data_image0
_chemical_formula_structural       CFeS2FeSHFeSFeS3FeS2FeS2FeSFeS3C2SC2NH4CH2C2SHC6H4C6H4C3SHC2H3CH4C3H2C2NCHNCHC4H2CHCHC2NHC2H2CH2SHC2H3C2H4NH2C3H6C3SH5CHCH3CSCHCFeS2FeS2FeSHFeS2FeSFeS3FeSHFeS2FeSFeS3C6H3C2HC3HCH2C2HNHSCH2C8HCH4C6H7CHC2HCHCNC3FeNCH2NC2NC6H2CH5SCHC2H2NCSCH5CHC3H5CH2CH3C2H5C3SHS2HFeSHS2FeSC2SFeSHSCFeHC2HC4H2C4SCH2NC5FeH3CFeCSFeHC2FeS3FeS2FeSHFeSFeHSH2C9HCHFeC2SC3H2C3H3C2H2S2H2C3H3CNC2SH3C3H2NC6H8C2HNH2C3FeCH2SCH2FeH6FeC4SHC2HNSHFeS2FeS2FeSFeS3CH4C4H3C6H4N2C2HCFeS2FeS2FeSFeS3C2SH3C6H3CHCHC4HC4HFeC2HCHCH5C2H4CHCNH3CHC2HNCSHC2H3C2SHCSHCHNFeHCHC2HCH5CH3C2HC2H2CH4CFeS2FeS2FeSFeS4FeS2FeSNFeSFeSHSC2HC2HC5H3NHCHCH2CH2C6H4C6H4C2HCH4CHCH2CHCH3SHC2NCH2C4H3C2HCH2CH2CNHC6HCHC2H2C3H4CH2CH2CSN2H4CH3C2H2C2HCH2FeS2FeS2FeSFeS3CSNFeSCFeS2FeSHFeSFeS4H2CHC6H5C3SHCHC3NCH2CHC2H2SCH2CHC6H2CHC2HCSH2CHCHC2H4C2H2CHC2FeH2CHCH3CH2SCH2CNCH3CHCH2FeHC2HC3HCH2C2H2C5HCH3C3HCH3C4HCNFeS2FeSHFeSFeS3FeS2FeS2FeSFeS3CHSCH3C6H4C6H2CHC6H4CHC2H2NHCH3SCHCHCHCH2CHSHCHCHCHCNH2CH4CH2NC3H3CH2CHCHC5H3CHC2H3C5HCH2NCH2SHCHCHCHC3H3CHN2H3FeS2C2SFeSCFeS2FeSFeS3FeS2FeS2FeSFeS3C6H3C6H2CHC2HSH2C2H4CHC5H4C6H7CNHC2HCHC2HCHNH2CHCH2CHCHCSCNHC2HCH3CHFeHNC6H2SH5CHCH3CH2C2H2C3HCH2CHCH2SCFeSHFeSFeNSFeSHC2FeSHSC2SCH2C4H2C6H2SC5H3CSFeCSFeS2CFeS3FeSHFeSCFeSFeCSC2H3C6H3SCHC4H2C4H2C2H4FeSCSH2CNC6H8NC6H8SC3S2FeHFeHCNSC2FeHCHCHNH2CH3CNH6FeSNFeS2FeS2FeSFeS3HCHCHC4H3C6H4CH2C2HFeS2FeS2FeCFeS3H2SNCSC6H6C2HC2H2FeH6SHCHC2NHC2FeHC2H2SHCSCH3C2HCHCHCH5CH5C2H7C4HCNC2FeS2FeS2FeSFeS4FeS2CSCFeSFeS3C4H2CHC2H2CHNH3C4H2C6H4C6H4C3HNC2H3C2H2NCH4FeH2CHCH2CHC2HC3HNH2C3HCHC2H4CHSC2HC3HCHCHCH4C2HC4HNH3CSH2NH2CH5FeS2FeS2FeSFeS3HSNFeSCFeS2FeSHFeSFeS3H2C2HC6H4C5HCSFeC4H4C2NSC3H3C6H4C2H2CHC2NH2SFeH3CHCH2CHSHCHCNHCH2C2HCHNC2H3C2NHC6NHCH3SHCH2C2H2CH3C3H2
_chemical_formula_sum              "C768 Fe128 S256 H768 N64"
_cell_length_a       44.1755
_cell_length_b       43.8091
_cell_length_c       37.4846
_cell_angle_alpha    90.5861
_cell_angle_beta     89.5803
_cell_angle_gamma    89.1823

_space_group_name_H-M_alt    "P 1"
_space_group_IT_number       1

loop_
  _space_group_symop_operation_xyz
  'x, y, z'

loop_
  _atom_site_type_symbol
  _atom_site_label
  _atom_site_symmetry_multiplicity
  _atom_site_fract_x
  _atom_site_fract_y
  _atom_site_fract_z
  _atom_site_occupancy
  C   C1        1.0  0.22021  0.01557  0.25550  1.0000
  Fe  Fe1       1.0  0.09271  0.14760  0.17159  1.0000
  S   S1        1.0  0.12306  0.17295  0.20947  1.0000
  S   S2        1.0  0.10517  0.15351  0.11310  1.0000
  Fe  Fe2       1.0  0.05036  0.12836  0.23236  1.0000
  S   S3        1.0  0.07739  0.15219  0.27424  1.0000
  H   H1        1.0  0.04581  0.29485  0.27702  1.0000
  Fe  Fe3       1.0  0.07988  0.19028  0.23469  1.0000
  S   S4        1.0  0.07526  0.23903  0.25436  1.0000
  Fe  Fe4       1.0  0.11794  0.13278  0.24531  1.0000
  S   S5        1.0  0.15527  0.10843  0.27518  1.0000
  S   S6        1.0  0.04960  0.16791  0.19468  1.0000
  S   S7        1.0  0.09087  0.10571  0.20572  1.0000
  Fe  Fe5       1.0  0.33284  0.12943  0.43633  1.0000
  S   S8        1.0  0.36636  0.10839  0.39773  1.0000
  S   S9        1.0  0.34160  0.11711  0.49391  1.0000
  Fe  Fe6       1.0  0.29420  0.15562  0.37626  1.0000
  S   S10       1.0  0.32513  0.13702  0.33324  1.0000
  S   S11       1.0  0.25369  0.18407  0.35927  1.0000
  Fe  Fe7       1.0  0.32575  0.09461  0.36625  1.0000
  S   S12       1.0  0.32439  0.04738  0.34199  1.0000
  Fe  Fe8       1.0  0.36286  0.15258  0.36853  1.0000
  S   S13       1.0  0.40331  0.17893  0.34900  1.0000
  S   S14       1.0  0.29222  0.11187  0.40707  1.0000
  S   S15       1.0  0.33197  0.17500  0.40928  1.0000
  C   C2        1.0  0.28908  0.02965  0.34476  1.0000
  C   C3        1.0  0.20548  0.29025  0.28097  1.0000
  S   S16       1.0  0.46226  0.30169  0.19993  1.0000
  C   C4        1.0  0.40694  0.31383  0.30421  1.0000
  C   C5        1.0  0.16450  0.32677  0.27475  1.0000
  N   N1        1.0  0.38332  0.26574  0.31564  1.0000
  H   H2        1.0  0.34002  0.18383  0.49540  1.0000
  H   H3        1.0  0.19362  0.24337  0.27077  1.0000
  H   H4        1.0  0.04037  0.23124  0.18950  1.0000
  H   H5        1.0  0.20297  0.21795  0.38643  1.0000
  C   C6        1.0  0.04571  0.26060  0.23531  1.0000
  H   H6        1.0  0.44960  0.31123  0.27587  1.0000
  H   H7        1.0  0.10895  0.33514  0.25416  1.0000
  C   C7        1.0  0.42152  0.13780  0.51235  1.0000
  C   C8        1.0  0.43102  0.29856  0.28721  1.0000
  S   S17       1.0  0.00885  0.10125  0.24706  1.0000
  H   H8        1.0  0.47604  0.23877  0.21225  1.0000
  C   C9        1.0  0.43339  0.15737  0.32949  1.0000
  C   C10       1.0  0.43236  0.12551  0.32763  1.0000
  C   C11       1.0  0.45672  0.10870  0.31262  1.0000
  C   C12       1.0  0.48219  0.12357  0.29899  1.0000
  C   C13       1.0  0.48313  0.15549  0.30043  1.0000
  C   C14       1.0  0.45884  0.17233  0.31580  1.0000
  H   H9        1.0  0.41284  0.11374  0.33785  1.0000
  H   H10       1.0  0.45581  0.08405  0.31157  1.0000
  H   H11       1.0  0.31568  0.01289  0.46012  1.0000
  H   H12       1.0  0.45992  0.19695  0.31726  1.0000
  C   C15       1.0  0.18082  0.13041  0.30026  1.0000
  C   C16       1.0  0.18114  0.16231  0.29843  1.0000
  C   C17       1.0  0.20328  0.17878  0.31708  1.0000
  C   C18       1.0  0.22534  0.16340  0.33716  1.0000
  C   C19       1.0  0.22460  0.13164  0.33938  1.0000
  C   C20       1.0  0.20226  0.11526  0.32132  1.0000
  H   H13       1.0  0.16459  0.17418  0.28233  1.0000
  H   H14       1.0  0.20370  0.20337  0.31547  1.0000
  H   H15       1.0  0.24106  0.11976  0.35543  1.0000
  H   H16       1.0  0.20175  0.09070  0.32344  1.0000
  C   C21       1.0  0.10075  0.12712  0.07761  1.0000
  C   C22       1.0  0.09184  0.09703  0.08325  1.0000
  C   C23       1.0  0.11318  0.31051  0.25929  1.0000
  S   S18       1.0  0.12472  0.34481  0.34901  1.0000
  H   H17       1.0  0.08648  0.08962  0.10998  1.0000
  C   C24       1.0  0.01111  0.30426  0.23848  1.0000
  C   C25       1.0  0.26268  0.04677  0.35142  1.0000
  H   H18       1.0  0.21015  0.33865  0.28922  1.0000
  H   H19       1.0  0.21397  0.04583  0.35614  1.0000
  H   H20       1.0  0.26391  0.07111  0.35553  1.0000
  C   C26       1.0  0.19054  0.23711  0.39824  1.0000
  H   H21       1.0  0.36441  0.30905  0.33151  1.0000
  H   H22       1.0  0.22905  0.28519  0.28699  1.0000
  H   H23       1.0  0.42115  0.14221  0.44153  1.0000
  H   H24       1.0  0.41780  0.21254  0.49352  1.0000
  C   C27       1.0  0.03544  0.28739  0.25246  1.0000
  C   C28       1.0  0.16578  0.24997  0.38066  1.0000
  C   C29       1.0  0.27051  0.03560  0.26202  1.0000
  H   H25       1.0  0.12658  0.30356  0.46600  1.0000
  H   H26       1.0  0.44983  0.25484  0.27150  1.0000
  C   C30       1.0  0.38309  0.29695  0.31838  1.0000
  C   C31       1.0  0.49652  0.28308  0.21036  1.0000
  N   N2        1.0  0.41842  0.16382  0.49275  1.0000
  C   C32       1.0  0.18291  0.27351  0.44631  1.0000
  H   H27       1.0  0.18470  0.04968  0.25097  1.0000
  N   N3        1.0  0.14522  0.30377  0.26589  1.0000
  C   C33       1.0  0.43115  0.26680  0.28473  1.0000
  H   H28       1.0  0.09481  0.08066  0.28671  1.0000
  C   C34       1.0  0.15531  0.27409  0.26474  1.0000
  C   C35       1.0  0.19922  0.24893  0.43124  1.0000
  C   C36       1.0  0.20884  0.04538  0.25365  1.0000
  C   C37       1.0  0.49687  0.25134  0.21451  1.0000
  H   H29       1.0  0.26758  0.10910  0.28300  1.0000
  H   H30       1.0  0.09957  0.30396  0.28296  1.0000
  C   C38       1.0  0.42171  0.19187  0.50856  1.0000
  H   H31       1.0  0.12901  0.32509  0.42510  1.0000
  C   C39       1.0  0.19489  0.32038  0.28225  1.0000
  H   H32       1.0  0.08349  0.05314  0.05882  1.0000
  C   C40       1.0  0.06950  0.03935  0.27829  1.0000
  C   C41       1.0  0.40917  0.16149  0.45535  1.0000
  N   N4        1.0  0.15899  0.28636  0.42863  1.0000
  H   H33       1.0  0.35480  0.22679  0.31674  1.0000
  C   C42       1.0  0.18562  0.26689  0.27206  1.0000
  C   C43       1.0  0.40708  0.25062  0.29937  1.0000
  H   H34       1.0  0.15810  0.32830  0.45765  1.0000
  H   H35       1.0  0.13098  0.28472  0.38248  1.0000
  C   C44       1.0  0.10763  0.13647  0.04276  1.0000
  H   H36       1.0  0.49567  0.03246  0.27804  1.0000
  H   H37       1.0  0.10507  0.29747  0.23570  1.0000
  S   S19       1.0  0.27076  0.34540  0.31589  1.0000
  H   H38       1.0  0.41711  0.11568  0.50032  1.0000
  C   C45       1.0  0.23444  0.03250  0.35148  1.0000
  C   C46       1.0  0.09389  0.05622  0.29105  1.0000
  H   H39       1.0  0.21973  0.09293  0.25467  1.0000
  H   H40       1.0  0.36536  0.24180  0.35961  1.0000
  H   H41       1.0  0.28580  0.10008  0.24064  1.0000
  C   C47       1.0  0.22875  0.06983  0.25624  1.0000
  C   C48       1.0  0.03190  0.25114  0.20370  1.0000
  H   H42       1.0  0.29452  0.03151  0.26618  1.0000
  H   H43       1.0  0.40754  0.22588  0.29760  1.0000
  H   H44       1.0  0.06331  0.33869  0.32572  1.0000
  H   H45       1.0  0.18970  0.28246  0.47211  1.0000
  N   N5        1.0  0.25895  0.06475  0.26187  1.0000
  H   H46       1.0  0.05164  0.05110  0.26385  1.0000
  H   H47       1.0  0.40679  0.33860  0.30636  1.0000
  C   C49       1.0  0.34694  0.14435  0.52824  1.0000
  C   C50       1.0  0.14222  0.31201  0.44512  1.0000
  C   C51       1.0  0.35893  0.24821  0.33204  1.0000
  H   H48       1.0  0.29974  0.08408  0.28184  1.0000
  H   H49       1.0  0.21854  0.23916  0.44502  1.0000
  H   H50       1.0  0.13982  0.25585  0.25814  1.0000
  H   H51       1.0  0.32294  0.03612  0.42158  1.0000
  H   H52       1.0  0.50269  0.16717  0.29007  1.0000
  H   H53       1.0  0.15877  0.24080  0.35508  1.0000
  C   C52       1.0  0.15012  0.27472  0.39637  1.0000
  C   C53       1.0  0.27904  0.09077  0.26689  1.0000
  C   C54       1.0  0.34579  0.17570  0.52167  1.0000
  S   S20       1.0  0.20616  0.33241  0.38280  1.0000
  H   H54       1.0  0.33727  0.26146  0.33290  1.0000
  H   H55       1.0  0.49802  0.20052  0.11795  1.0000
  H   H56       1.0  0.13635  0.05426  0.31905  1.0000
  H   H57       1.0  0.38446  0.15751  0.45422  1.0000
  H   H58       1.0  0.41430  0.18251  0.44020  1.0000
  C   C55       1.0  0.09016  0.07644  0.05422  1.0000
  H   H59       1.0  0.15504  0.05641  0.05115  1.0000
  C   C56       1.0  0.11721  0.04140  0.30923  1.0000
  H   H60       1.0  0.31969  0.33585  0.26599  1.0000
  H   H61       1.0  0.16715  0.11111  0.05714  1.0000
  H   H62       1.0  0.00980  0.15730  0.28936  1.0000
  C   C57       1.0  0.19656  0.34352  0.52212  1.0000
  S   S21       1.0  0.22002  0.33778  0.48410  1.0000
  C   C58       1.0  0.31184  0.01499  0.43100  1.0000
  H   H63       1.0  0.28719  0.01811  0.42603  1.0000
  C   C59       1.0  0.50604  0.29099  0.72584  1.0000
  Fe  Fe9       1.0  0.15628  0.28270  0.72777  1.0000
  S   S22       1.0  0.13599  0.30864  0.77430  1.0000
  S   S23       1.0  0.17686  0.23611  0.73816  1.0000
  Fe  Fe10      1.0  0.09908  0.31977  0.73555  1.0000
  S   S24       1.0  0.04920  0.32191  0.74827  1.0000
  S   S25       1.0  0.11746  0.29112  0.69041  1.0000
  Fe  Fe11      1.0  0.11781  0.04025  0.85519  1.0000
  S   S26       1.0  0.14726  0.07631  0.83156  1.0000
  H   H64       1.0  0.04265  0.05323  0.81366  1.0000
  Fe  Fe12      1.0  0.11578  0.07039  0.92931  1.0000
  S   S27       1.0  0.14501  0.10921  0.91216  1.0000
  S   S28       1.0  0.09753  0.05864  0.98423  1.0000
  Fe  Fe13      1.0  0.11745  0.10959  0.86186  1.0000
  S   S29       1.0  0.09659  0.15177  0.83704  1.0000
  Fe  Fe14      1.0  0.17258  0.07304  0.88320  1.0000
  S   S30       1.0  0.22339  0.07504  0.88670  1.0000
  S   S31       1.0  0.08567  0.07369  0.88151  1.0000
  S   S32       1.0  0.14570  0.03405  0.90432  1.0000
  Fe  Fe15      1.0  0.44487  0.19597  0.71619  1.0000
  S   S33       1.0  0.41310  0.23397  0.70132  1.0000
  H   H65       1.0  0.25704  0.08436  0.80835  1.0000
  Fe  Fe16      1.0  0.39423  0.15126  0.72954  1.0000
  S   S34       1.0  0.35810  0.18583  0.71566  1.0000
  S   S35       1.0  0.37983  0.10316  0.74251  1.0000
  Fe  Fe17      1.0  0.38858  0.19806  0.66995  1.0000
  S   S36       1.0  0.37209  0.21310  0.61568  1.0000
  Fe  Fe18      1.0  0.38553  0.21869  0.74795  1.0000
  S   S37       1.0  0.36340  0.24973  0.78930  1.0000
  S   S38       1.0  0.42276  0.16101  0.68100  1.0000
  S   S39       1.0  0.41921  0.18313  0.76561  1.0000
  C   C60       1.0  0.39456  0.08179  0.77827  1.0000
  C   C61       1.0  0.38509  0.05160  0.78220  1.0000
  C   C62       1.0  0.39521  0.03389  0.81087  1.0000
  C   C63       1.0  0.41528  0.04603  0.83574  1.0000
  C   C64       1.0  0.42505  0.07621  0.83169  1.0000
  C   C65       1.0  0.41466  0.09412  0.80308  1.0000
  H   H66       1.0  0.36985  0.04184  0.76285  1.0000
  H   H67       1.0  0.44034  0.08589  0.85101  1.0000
  H   H68       1.0  0.42189  0.11747  0.80046  1.0000
  C   C66       1.0  0.37221  0.28880  0.79043  1.0000
  C   C67       1.0  0.38676  0.30278  0.76179  1.0000
  H   H69       1.0  0.47902  0.21894  0.80549  1.0000
  C   C68       1.0  0.35250  0.19662  0.54914  1.0000
  C   C69       1.0  0.19233  0.11212  0.00764  1.0000
  C   C70       1.0  0.36457  0.30617  0.82089  1.0000
  H   H70       1.0  0.39251  0.28972  0.73805  1.0000
  C   C71       1.0  0.01620  0.25171  0.82029  1.0000
  H   H71       1.0  0.32654  0.08709  0.79461  1.0000
  H   H72       1.0  0.35325  0.29547  0.84310  1.0000
  C   C72       1.0  0.36100  0.15502  0.59000  1.0000
  C   C73       1.0  0.36060  0.18632  0.58319  1.0000
  H   H73       1.0  0.26497  0.22271  0.64645  1.0000
  N   N6        1.0  0.17927  0.05035  0.00205  1.0000
  H   H74       1.0  0.36709  0.14687  0.61618  1.0000
  S   S40       1.0  0.18358  0.32211  0.70708  1.0000
  C   C74       1.0  0.24243  0.03966  0.88333  1.0000
  H   H75       1.0  0.32756  0.01710  0.80262  1.0000
  H   H76       1.0  0.28559  0.05852  0.89732  1.0000
  C   C75       1.0  0.39388  0.33392  0.76384  1.0000
  C   C76       1.0  0.20246  0.09510  0.97812  1.0000
  C   C77       1.0  0.45320  0.26102  0.80933  1.0000
  C   C78       1.0  0.48359  0.34041  0.81186  1.0000
  C   C79       1.0  0.26477  0.06130  0.80199  1.0000
  C   C80       1.0  0.03314  0.23292  0.72636  1.0000
  C   C81       1.0  0.04779  0.26070  0.73206  1.0000
  C   C82       1.0  0.03092  0.28747  0.73833  1.0000
  H   H77       1.0  0.14812  0.01654  0.98659  1.0000
  C   C83       1.0  0.20251  0.32686  0.55320  1.0000
  H   H78       1.0  0.04647  0.21237  0.72162  1.0000
  H   H79       1.0  0.07218  0.26122  0.73216  1.0000
  H   H80       1.0  0.02501  0.32722  0.83209  1.0000
  H   H81       1.0  0.46906  0.26033  0.71782  1.0000
  C   C84       1.0  0.15465  0.21269  0.76580  1.0000
  C   C85       1.0  0.16691  0.18542  0.77923  1.0000
  C   C86       1.0  0.14946  0.16665  0.80142  1.0000
  C   C87       1.0  0.11954  0.17494  0.80998  1.0000
  C   C88       1.0  0.10724  0.20206  0.79628  1.0000
  C   C89       1.0  0.12478  0.22095  0.77447  1.0000
  H   H82       1.0  0.18997  0.17883  0.77258  1.0000
  H   H83       1.0  0.15914  0.14577  0.81179  1.0000
  H   H84       1.0  0.08409  0.20846  0.80255  1.0000
  H   H85       1.0  0.11517  0.24177  0.76400  1.0000
  H   H86       1.0  0.19691  0.13635  0.00950  1.0000
  H   H87       1.0  0.43717  0.16960  0.59318  1.0000
  H   H88       1.0  0.03972  0.15798  0.73634  1.0000
  C   C90       1.0  0.04744  0.14823  0.76205  1.0000
  H   H89       1.0  0.43408  0.30623  0.81250  1.0000
  C   C91       1.0  0.24364  0.03991  0.79044  1.0000
  C   C92       1.0  0.18400  0.33055  0.58375  1.0000
  H   H90       1.0  0.02933  0.23088  0.81589  1.0000
  C   C93       1.0  0.17108  0.01816  0.99832  1.0000
  H   H91       1.0  0.07219  0.30323  0.82163  1.0000
  C   C94       1.0  0.03118  0.07072  0.79825  1.0000
  N   N7        1.0  0.29448  0.05299  0.80645  1.0000
  C   C95       1.0  0.06361  0.27968  0.82498  1.0000
  C   C96       1.0  0.50566  0.08909  0.80434  1.0000
  C   C97       1.0  0.47990  0.24360  0.80824  1.0000
  Fe  Fe19      1.0  0.14248  0.33312  0.67407  1.0000
  N   N8        1.0  0.48228  0.30698  0.81132  1.0000
  C   C98       1.0  0.50190  0.11318  0.78044  1.0000
  H   H92       1.0  0.07215  0.01660  0.92953  1.0000
  H   H93       1.0  0.18881  0.31768  0.60758  1.0000
  N   N9        1.0  0.03042  0.27904  0.82465  1.0000
  C   C99       1.0  0.17575  0.09794  0.03442  1.0000
  C   C100      1.0  0.09752  0.08575  0.01947  1.0000
  N   N10       1.0  0.26915  0.24819  0.73183  1.0000
  C   C101      1.0  0.25697  0.23611  0.70143  1.0000
  C   C102      1.0  0.29860  0.25750  0.73213  1.0000
  C   C103      1.0  0.27460  0.23251  0.67045  1.0000
  C   C104      1.0  0.31686  0.25426  0.70164  1.0000
  C   C105      1.0  0.30475  0.24160  0.67066  1.0000
  C   C106      1.0  0.25006  0.25194  0.76377  1.0000
  H   H94       1.0  0.23348  0.22913  0.70107  1.0000
  H   H95       1.0  0.30824  0.26734  0.75608  1.0000
  C   C107      1.0  0.49318  0.26214  0.72108  1.0000
  H   H96       1.0  0.34035  0.26122  0.70218  1.0000
  H   H97       1.0  0.06899  0.10103  0.79904  1.0000
  H   H98       1.0  0.26354  0.25729  0.78789  1.0000
  H   H99       1.0  0.23312  0.27058  0.75965  1.0000
  H   H100      1.0  0.23761  0.23055  0.76913  1.0000
  S   S41       1.0  0.49573  0.19923  0.71830  1.0000
  C   C108      1.0  0.45486  0.29286  0.81135  1.0000
  H   H101      1.0  0.21506  0.10590  0.95681  1.0000
  C   C109      1.0  0.27365  0.03816  0.88945  1.0000
  C   C110      1.0  0.19564  0.06406  0.97573  1.0000
  H   H102      1.0  0.49166  0.31120  0.72613  1.0000
  H   H103      1.0  0.21993  0.04638  0.78804  1.0000
  N   N11       1.0  0.03189  0.11970  0.76986  1.0000
  C   C111      1.0  0.30407  0.02378  0.79888  1.0000
  S   S42       1.0  0.42901  0.02373  0.87143  1.0000
  C   C112      1.0  0.42901  0.13942  0.54854  1.0000
  H   H104      1.0  0.31869  0.23881  0.64685  1.0000
  H   H105      1.0  0.07229  0.27028  0.85038  1.0000
  H   H106      1.0  0.35491  0.10990  0.56789  1.0000
  H   H107      1.0  0.20329  0.05109  0.95249  1.0000
  H   H108      1.0  0.48741  0.07300  0.80772  1.0000
  C   C113      1.0  0.35412  0.13413  0.56260  1.0000
  H   H109      1.0  0.11166  0.12336  0.98716  1.0000
  C   C114      1.0  0.10605  0.11590  0.01379  1.0000
  C   C115      1.0  0.04605  0.09773  0.78968  1.0000
  C   C116      1.0  0.37201  0.33721  0.82310  1.0000
  H   H110      1.0  0.07237  0.14455  0.75995  1.0000
  H   H111      1.0  0.43058  0.11881  0.56425  1.0000
  H   H112      1.0  0.48095  0.11587  0.76569  1.0000
  H   H113      1.0  0.20313  0.01436  0.86789  1.0000
  H   H114      1.0  0.07309  0.26600  0.80233  1.0000
  C   C117      1.0  0.43274  0.16791  0.56477  1.0000
  H   H115      1.0  0.43133  0.25001  0.80817  1.0000
  H   H116      1.0  0.22157  0.31109  0.55371  1.0000
  C   C118      1.0  0.31637  0.07578  0.81820  1.0000
  H   H117      1.0  0.33485  0.06505  0.83395  1.0000
  H   H118      1.0  0.30542  0.09341  0.83572  1.0000
  H   H119      1.0  0.04285  0.16515  0.78374  1.0000
  C   C119      1.0  0.16909  0.06692  0.03098  1.0000
  C   C120      1.0  0.01385  0.30543  0.82945  1.0000
  H   H120      1.0  0.35199  0.22084  0.54380  1.0000
  H   H121      1.0  0.40520  0.34463  0.74162  1.0000
  H   H122      1.0  0.11445  0.15975  0.03819  1.0000
  H   H123      1.0  0.04467  0.01387  0.98703  1.0000
  H   H124      1.0  0.43035  0.21656  0.55768  1.0000
  C   C121      1.0  0.42899  0.19433  0.54475  1.0000
  C   C122      1.0  0.22713  0.01330  0.87309  1.0000
  C   C123      1.0  0.32558  0.35475  0.28327  1.0000
  S   S43       1.0  0.17113  0.39149  0.41917  1.0000
  H   H125      1.0  0.24022  0.53392  0.49618  1.0000
  S   S44       1.0  0.39538  0.67235  0.35358  1.0000
  S   S45       1.0  0.19887  0.39528  0.33692  1.0000
  H   H126      1.0  0.02968  0.37216  0.29030  1.0000
  Fe  Fe20      1.0  0.20477  0.41969  0.38923  1.0000
  S   S46       1.0  0.19985  0.47072  0.39268  1.0000
  H   H127      1.0  0.41444  0.47529  0.06456  1.0000
  S   S47       1.0  0.06514  0.64555  0.26737  1.0000
  S   S48       1.0  0.24552  0.39226  0.40609  1.0000
  Fe  Fe21      1.0  0.44558  0.41407  0.17397  1.0000
  S   S49       1.0  0.42933  0.44459  0.12919  1.0000
  C   C124      1.0  0.07504  0.50888  0.30896  1.0000
  C   C125      1.0  0.12293  0.65817  0.05905  1.0000
  S   S50       1.0  0.48907  0.38680  0.17639  1.0000
  Fe  Fe22      1.0  0.42863  0.40076  0.25149  1.0000
  S   S51       1.0  0.39649  0.41185  0.29709  1.0000
  H   H128      1.0  0.34176  0.51852  0.44233  1.0000
  S   S52       1.0  0.45390  0.43882  0.22566  1.0000
  C   C126      1.0  0.43349  0.43318  0.08424  1.0000
  Fe  Fe23      1.0  0.21123  0.36173  0.43182  1.0000
  H   H129      1.0  0.35744  0.44310  0.09085  1.0000
  C   C127      1.0  0.44540  0.40447  0.07482  1.0000
  C   C128      1.0  0.50415  0.47127  0.14085  1.0000
  H   H130      1.0  0.45318  0.38909  0.09534  1.0000
  C   C129      1.0  0.23284  0.49059  0.38194  1.0000
  C   C130      1.0  0.23299  0.52236  0.38610  1.0000
  C   C131      1.0  0.28604  0.49131  0.36529  1.0000
  C   C132      1.0  0.25927  0.47508  0.37099  1.0000
  H   H131      1.0  0.30661  0.47919  0.35751  1.0000
  H   H132      1.0  0.25923  0.45057  0.36729  1.0000
  C   C133      1.0  0.06275  0.40727  0.28365  1.0000
  C   C134      1.0  0.09254  0.41591  0.29097  1.0000
  C   C135      1.0  0.11157  0.39715  0.31148  1.0000
  C   C136      1.0  0.10108  0.36929  0.32421  1.0000
  S   S53       1.0  0.47065  0.37285  0.26076  1.0000
  C   C137      1.0  0.05246  0.37920  0.29595  1.0000
  H   H133      1.0  0.10087  0.43732  0.28096  1.0000
  H   H134      1.0  0.13434  0.40425  0.31730  1.0000
  N   N12       1.0  0.12610  0.51010  0.33070  1.0000
  C   C138      1.0  0.04512  0.49601  0.19260  1.0000
  C   C139      1.0  0.30527  0.36458  0.31014  1.0000
  C   C140      1.0  0.31294  0.38915  0.33221  1.0000
  C   C141      1.0  0.34095  0.40350  0.32777  1.0000
  C   C142      1.0  0.36131  0.39362  0.30102  1.0000
  Fe  Fe24      1.0  0.16862  0.36467  0.36811  1.0000
  H   H135      1.0  0.29747  0.39692  0.35295  1.0000
  H   H136      1.0  0.34690  0.42226  0.34525  1.0000
  H   H137      1.0  0.13862  0.47529  0.36743  1.0000
  C   C143      1.0  0.35201  0.43569  0.06392  1.0000
  Fe  Fe25      1.0  0.09101  0.60249  0.18001  1.0000
  C   C144      1.0  0.06966  0.48279  0.32894  1.0000
  S   S54       1.0  0.11088  0.57438  0.13424  1.0000
  Fe  Fe26      1.0  0.04007  0.61051  0.23541  1.0000
  H   H138      1.0  0.37747  0.39382  0.06784  1.0000
  C   C145      1.0  0.31973  0.52179  0.45491  1.0000
  C   C146      1.0  0.15426  0.64138  0.10921  1.0000
  Fe  Fe27      1.0  0.10616  0.61532  0.25856  1.0000
  S   S55       1.0  0.13896  0.59845  0.30024  1.0000
  S   S56       1.0  0.04872  0.63143  0.18175  1.0000
  S   S57       1.0  0.08005  0.57853  0.23096  1.0000
  Fe  Fe28      1.0  0.32144  0.63473  0.44835  1.0000
  S   S58       1.0  0.35743  0.60971  0.41644  1.0000
  S   S59       1.0  0.31901  0.62783  0.50812  1.0000
  Fe  Fe29      1.0  0.28649  0.65315  0.38147  1.0000
  S   S60       1.0  0.31973  0.62967  0.34458  1.0000
  H   H139      1.0  0.25370  0.46065  0.44799  1.0000
  Fe  Fe30      1.0  0.31885  0.59183  0.38427  1.0000
  S   S61       1.0  0.32070  0.54252  0.36684  1.0000
  Fe  Fe31      1.0  0.35535  0.64970  0.37969  1.0000
  H   H140      1.0  0.10745  0.54288  0.29504  1.0000
  S   S62       1.0  0.28282  0.61364  0.41868  1.0000
  H   H141      1.0  0.05943  0.47664  0.19958  1.0000
  H   H142      1.0  0.15632  0.35021  0.27664  1.0000
  C   C147      1.0  0.31210  0.54973  0.47097  1.0000
  C   C148      1.0  0.12357  0.56922  0.06288  1.0000
  C   C149      1.0  0.17190  0.36388  0.52176  1.0000
  C   C150      1.0  0.42558  0.64907  0.33755  1.0000
  C   C151      1.0  0.42740  0.61804  0.34578  1.0000
  C   C152      1.0  0.45145  0.59987  0.33227  1.0000
  C   C153      1.0  0.47395  0.61265  0.31067  1.0000
  C   C154      1.0  0.47231  0.64375  0.30268  1.0000
  C   C155      1.0  0.44817  0.66189  0.31609  1.0000
  H   H143      1.0  0.41049  0.60813  0.36292  1.0000
  C   C156      1.0  0.10350  0.52245  0.31038  1.0000
  H   H144      1.0  0.07912  0.51785  0.16039  1.0000
  Fe  Fe32      1.0  0.23707  0.36529  0.35584  1.0000
  C   C157      1.0  0.16940  0.62122  0.31442  1.0000
  C   C158      1.0  0.17009  0.65258  0.30779  1.0000
  S   S63       1.0  0.32215  0.67663  0.41402  1.0000
  C   C159      1.0  0.21751  0.65657  0.34062  1.0000
  C   C160      1.0  0.21709  0.62512  0.34649  1.0000
  C   C161      1.0  0.19302  0.60758  0.33371  1.0000
  H   H145      1.0  0.23512  0.61433  0.36130  1.0000
  H   H146      1.0  0.19282  0.58336  0.33884  1.0000
  C   C162      1.0  0.10371  0.58159  0.08883  1.0000
  C   C163      1.0  0.07891  0.59932  0.07810  1.0000
  C   C164      1.0  0.09261  0.47077  0.35026  1.0000
  H   H147      1.0  0.08872  0.45030  0.36562  1.0000
  H   H148      1.0  0.06337  0.60884  0.09783  1.0000
  H   H149      1.0  0.14271  0.55530  0.07102  1.0000
  C   C165      1.0  0.25968  0.53854  0.38032  1.0000
  C   C166      1.0  0.28639  0.52302  0.37060  1.0000
  H   H150      1.0  0.21255  0.53450  0.39429  1.0000
  H   H151      1.0  0.25950  0.56300  0.38347  1.0000
  S   S64       1.0  0.12011  0.63702  0.20737  1.0000
  S   S65       1.0  0.41705  0.37816  0.19963  1.0000
  H   H152      1.0  0.15502  0.54308  0.35329  1.0000
  H   H153      1.0  0.27729  0.57592  0.49823  1.0000
  C   C167      1.0  0.29847  0.49843  0.45424  1.0000
  C   C168      1.0  0.11092  0.67639  0.11741  1.0000
  C   C169      1.0  0.26254  0.53033  0.48455  1.0000
  H   H154      1.0  0.32573  0.47606  0.05162  1.0000
  H   H155      1.0  0.30454  0.47688  0.44140  1.0000
  H   H156      1.0  0.17406  0.50841  0.33817  1.0000
  C   C170      1.0  0.42356  0.45299  0.05740  1.0000
  N   N13       1.0  0.27022  0.50297  0.46875  1.0000
  C   C171      1.0  0.05605  0.51896  0.17060  1.0000
  C   C172      1.0  0.07157  0.36027  0.31612  1.0000
  S   S66       1.0  0.03871  0.43249  0.26027  1.0000
  H   H157      1.0  0.32835  0.56808  0.47171  1.0000
  H   H158      1.0  0.16719  0.37701  0.49815  1.0000
  H   H159      1.0  0.48955  0.65382  0.28607  1.0000
  C   C173      1.0  0.03722  0.54361  0.16200  1.0000
  C   C174      1.0  0.49318  0.49921  0.12851  1.0000
  C   C175      1.0  0.15556  0.52500  0.33229  1.0000
  H   H160      1.0  0.22520  0.48664  0.46386  1.0000
  H   H161      1.0  0.24887  0.46649  0.49544  1.0000
  N   N14       1.0  0.36903  0.54362  0.29062  1.0000
  C   C176      1.0  0.34024  0.53365  0.28489  1.0000
  C   C177      1.0  0.39289  0.52336  0.29079  1.0000
  C   C178      1.0  0.33475  0.50266  0.27886  1.0000
  C   C179      1.0  0.38826  0.49225  0.28439  1.0000
  C   C180      1.0  0.35898  0.48192  0.27842  1.0000
  C   C181      1.0  0.37402  0.57583  0.29936  1.0000
  H   H162      1.0  0.32115  0.54948  0.28658  1.0000
  H   H163      1.0  0.41563  0.53114  0.29628  1.0000
  H   H164      1.0  0.31180  0.49472  0.27550  1.0000
  H   H165      1.0  0.40715  0.47612  0.28471  1.0000
  H   H166      1.0  0.35500  0.45779  0.27405  1.0000
  H   H167      1.0  0.39684  0.58319  0.29048  1.0000
  H   H168      1.0  0.35716  0.59088  0.28611  1.0000
  H   H169      1.0  0.37192  0.57931  0.32870  1.0000
  C   C182      1.0  0.01542  0.49812  0.20566  1.0000
  C   C183      1.0  0.36340  0.40781  0.05069  1.0000
  H   H170      1.0  0.45279  0.57592  0.33888  1.0000
  N   N15       1.0  0.12853  0.65875  0.09492  1.0000
  H   H171      1.0  0.16130  0.53575  0.30640  1.0000
  H   H172      1.0  0.04787  0.47164  0.32752  1.0000
  C   C184      1.0  0.35344  0.36939  0.27850  1.0000
  C   C185      1.0  0.28334  0.55411  0.48588  1.0000
  C   C186      1.0  0.12086  0.48483  0.35088  1.0000
  Fe  Fe33      1.0  0.49521  0.40885  0.23033  1.0000
  C   C187      1.0  0.24850  0.47796  0.46916  1.0000
  H   H173      1.0  0.14818  0.63102  0.13519  1.0000
  H   H174      1.0  0.05729  0.51851  0.29244  1.0000
  S   S67       1.0  0.50360  0.58908  0.29386  1.0000
  C   C188      1.0  0.19399  0.67025  0.32112  1.0000
  H   H175      1.0  0.17392  0.65654  0.11293  1.0000
  H   H176      1.0  0.04561  0.56163  0.14510  1.0000
  Fe  Fe34      1.0  0.07683  0.66419  0.21341  1.0000
  H   H177      1.0  0.16091  0.62200  0.09127  1.0000
  H   H178      1.0  0.15199  0.66329  0.29298  1.0000
  H   H179      1.0  0.36888  0.36176  0.25763  1.0000
  H   H180      1.0  0.49392  0.45015  0.13205  1.0000
  H   H181      1.0  0.47427  0.49979  0.11016  1.0000
  H   H182      1.0  0.11578  0.67765  0.14571  1.0000
  Fe  Fe35      1.0  0.46132  0.35286  0.20672  1.0000
  C   C189      1.0  0.33466  0.65351  0.53929  1.0000
  C   C190      1.0  0.00769  0.54506  0.17576  1.0000
  C   C191      1.0  0.33444  0.45421  0.04187  1.0000
  C   C192      1.0  0.09841  0.67458  0.04507  1.0000
  S   S68       1.0  0.24692  0.67919  0.35786  1.0000
  H   H183      1.0  0.49839  0.54819  0.13068  1.0000
  C   C193      1.0  0.50648  0.52623  0.14017  1.0000
  C   C194      1.0  0.33679  0.62621  0.84848  1.0000
  H   H184      1.0  0.05497  0.61848  0.03339  1.0000
  N   N16       1.0  0.06243  0.39475  0.68480  1.0000
  S   S69       1.0  0.18524  0.38489  0.78223  1.0000
  H   H185      1.0  0.27402  0.36703  0.83444  1.0000
  Fe  Fe36      1.0  0.40833  0.42579  0.92565  1.0000
  S   S70       1.0  0.37170  0.39914  0.89884  1.0000
  S   S71       1.0  0.43651  0.40194  0.96733  1.0000
  Fe  Fe37      1.0  0.39824  0.48130  0.87881  1.0000
  S   S72       1.0  0.36099  0.45937  0.84797  1.0000
  S   S73       1.0  0.41669  0.52859  0.87034  1.0000
  Fe  Fe38      1.0  0.34526  0.44313  0.90132  1.0000
  S   S74       1.0  0.29594  0.44159  0.91587  1.0000
  Fe  Fe39      1.0  0.39040  0.41713  0.84771  1.0000
  S   S75       1.0  0.39711  0.38980  0.79669  1.0000
  S   S76       1.0  0.38011  0.46838  0.93281  1.0000
  S   S77       1.0  0.42942  0.44042  0.87405  1.0000
  C   C195      1.0  0.27956  0.38980  0.82570  1.0000
  H   H186      1.0  0.28013  0.65237  0.79738  1.0000
  H   H187      1.0  0.48161  0.45029  0.95199  1.0000
  H   H188      1.0  0.45598  0.37315  0.03157  1.0000
  H   H189      1.0  0.36335  0.52163  0.82592  1.0000
  C   C196      1.0  0.23195  0.50817  0.90729  1.0000
  C   C197      1.0  0.24648  0.47987  0.91267  1.0000
  C   C198      1.0  0.27806  0.47725  0.91000  1.0000
  C   C199      1.0  0.29514  0.50304  0.90233  1.0000
  H   H190      1.0  0.20757  0.51000  0.90916  1.0000
  H   H191      1.0  0.23318  0.46008  0.91897  1.0000
  H   H192      1.0  0.31954  0.50125  0.90033  1.0000
  C   C200      1.0  0.16210  0.41442  0.80030  1.0000
  C   C201      1.0  0.13103  0.41032  0.80548  1.0000
  C   C202      1.0  0.11333  0.43347  0.82193  1.0000
  C   C203      1.0  0.12651  0.46091  0.83301  1.0000
  C   C204      1.0  0.15746  0.46527  0.82713  1.0000
  C   C205      1.0  0.17516  0.44208  0.81075  1.0000
  H   H193      1.0  0.12079  0.38903  0.79760  1.0000
  H   H194      1.0  0.08944  0.42994  0.82654  1.0000
  H   H195      1.0  0.16777  0.48642  0.83537  1.0000
  H   H196      1.0  0.19899  0.44566  0.80598  1.0000
  N   N17       1.0  0.31079  0.62623  0.82882  1.0000
  N   N18       1.0  0.03988  0.65288  0.84011  1.0000
  C   C206      1.0  0.38678  0.35115  0.79462  1.0000
  C   C207      1.0  0.05163  0.67865  0.82549  1.0000
  H   H197      1.0  0.04344  0.35058  0.67726  1.0000
  C   C208      1.0  0.23587  0.40930  0.85967  1.0000
  Fe  Fe40      1.0  0.12620  0.53343  0.86972  1.0000
  S   S78       1.0  0.16038  0.55859  0.83721  1.0000
  S   S79       1.0  0.10377  0.48917  0.85429  1.0000
  Fe  Fe41      1.0  0.12005  0.58448  0.92610  1.0000
  S   S80       1.0  0.15419  0.61377  0.89844  1.0000
  S   S81       1.0  0.08933  0.60276  0.97058  1.0000
  Fe  Fe42      1.0  0.13150  0.60038  0.84752  1.0000
  S   S82       1.0  0.11546  0.63313  0.80519  1.0000
  Fe  Fe43      1.0  0.18065  0.56978  0.89053  1.0000
  S   S83       1.0  0.23158  0.57005  0.89472  1.0000
  S   S84       1.0  0.09535  0.57421  0.87545  1.0000
  S   S85       1.0  0.14835  0.54144  0.92282  1.0000
  C   C209      1.0  0.35357  0.65289  0.85234  1.0000
  C   C210      1.0  0.42457  0.44379  0.02136  1.0000
  S   S86       1.0  0.35639  0.61379  0.75393  1.0000
  H   H198      1.0  0.22106  0.39136  0.84835  1.0000
  H   H199      1.0  0.31942  0.37449  0.79625  1.0000
  H   H200      1.0  0.37454  0.65258  0.86720  1.0000
  C   C211      1.0  0.37431  0.58985  0.78509  1.0000
  C   C212      1.0  0.36106  0.56191  0.79352  1.0000
  C   C213      1.0  0.37387  0.54297  0.81957  1.0000
  C   C214      1.0  0.40012  0.55178  0.83732  1.0000
  C   C215      1.0  0.41332  0.57982  0.82900  1.0000
  C   C216      1.0  0.40053  0.59877  0.80287  1.0000
  H   H201      1.0  0.34079  0.55489  0.77985  1.0000
  H   H202      1.0  0.43360  0.58682  0.84266  1.0000
  H   H203      1.0  0.41090  0.62026  0.79657  1.0000
  C   C217      1.0  0.16417  0.67148  0.81363  1.0000
  H   H204      1.0  0.45451  0.49597  0.92824  1.0000
  C   C218      1.0  0.31236  0.42306  0.79276  1.0000
  H   H205      1.0  0.32800  0.62294  0.58328  1.0000
  C   C219      1.0  0.11923  0.57518  0.02647  1.0000
  C   C220      1.0  0.26893  0.44309  0.82528  1.0000
  C   C221      1.0  0.24904  0.53409  0.90022  1.0000
  C   C222      1.0  0.28066  0.53146  0.89787  1.0000
  H   H206      1.0  0.29400  0.55146  0.89276  1.0000
  C   C223      1.0  0.32818  0.44451  0.00716  1.0000
  C   C224      1.0  0.08466  0.41374  0.67300  1.0000
  C   C225      1.0  0.49149  0.50828  0.89356  1.0000
  C   C226      1.0  0.29416  0.44791  0.80336  1.0000
  H   H207      1.0  0.50263  0.34836  0.79483  1.0000
  Fe  Fe44      1.0  0.16026  0.34870  0.75126  1.0000
  C   C227      1.0  0.15334  0.36746  0.55221  1.0000
  C   C228      1.0  0.33596  0.64513  0.57533  1.0000
  H   H208      1.0  0.30545  0.57801  0.83553  1.0000
  C   C229      1.0  0.08434  0.43996  0.73003  1.0000
  H   H209      1.0  0.03228  0.38380  0.72743  1.0000
  C   C230      1.0  0.30066  0.65245  0.81306  1.0000
  H   H210      1.0  0.48336  0.67440  0.62694  1.0000
  H   H211      1.0  0.46250  0.35095  0.80105  1.0000
  H   H212      1.0  0.09355  0.45694  0.74813  1.0000
  H   H213      1.0  0.22168  0.43027  0.86314  1.0000
  H   H214      1.0  0.01800  0.66766  0.63957  1.0000
  C   C231      1.0  0.03551  0.51296  0.99173  1.0000
  C   C232      1.0  0.01009  0.49747  0.97964  1.0000
  H   H215      1.0  0.25530  0.46260  0.83406  1.0000
  H   H216      1.0  0.29991  0.47083  0.79529  1.0000
  H   H217      1.0  0.36630  0.35025  0.84684  1.0000
  H   H218      1.0  0.13433  0.38329  0.55172  1.0000
  C   C233      1.0  0.29332  0.59821  0.82464  1.0000
  H   H219      1.0  0.03802  0.51822  0.01989  1.0000
  C   C234      1.0  0.13675  0.66604  0.79643  1.0000
  N   N19       1.0  0.02895  0.49999  0.91942  1.0000
  H   H220      1.0  0.07783  0.53334  0.97644  1.0000
  H   H221      1.0  0.17297  0.65507  0.83240  1.0000
  H   H222      1.0  0.28939  0.59346  0.79587  1.0000
  C   C235      1.0  0.05437  0.51432  0.93120  1.0000
  H   H223      1.0  0.13506  0.56607  0.00677  1.0000
  C   C236      1.0  0.06097  0.42118  0.74135  1.0000
  C   C237      1.0  0.36982  0.36953  0.00286  1.0000
  H   H224      1.0  0.09472  0.41035  0.64669  1.0000
  N   N20       1.0  0.35782  0.39886  0.01630  1.0000
  C   C238      1.0  0.43606  0.41490  0.01198  1.0000
  S   S87       1.0  0.12141  0.36224  0.71729  1.0000
  H   H225      1.0  0.35278  0.35144  0.00651  1.0000
  C   C239      1.0  0.09463  0.59315  0.01573  1.0000
  C   C240      1.0  0.49252  0.46469  0.93243  1.0000
  H   H226      1.0  0.37595  0.37103  0.97411  1.0000
  H   H227      1.0  0.09350  0.67311  0.01676  1.0000
  H   H228      1.0  0.07214  0.52028  0.91258  1.0000
  C   C241      1.0  0.07531  0.65610  0.88834  1.0000
  C   C242      1.0  0.01628  0.63625  0.82103  1.0000
  S   S88       1.0  0.41043  0.66442  0.69246  1.0000
  H   H229      1.0  0.47948  0.52810  0.88339  1.0000
  C   C243      1.0  0.05786  0.52141  0.96740  1.0000
  S   S89       1.0  0.13518  0.35624  0.62078  1.0000
  H   H230      1.0  0.33243  0.42648  0.77640  1.0000
  C   C244      1.0  0.47732  0.49026  0.91918  1.0000
  H   H231      1.0  0.41638  0.45901  0.00095  1.0000
  N   N21       1.0  0.26185  0.41426  0.83598  1.0000
  Fe  Fe45      1.0  0.37862  0.65801  0.73891  1.0000
  H   H232      1.0  0.31437  0.45860  0.98974  1.0000
  C   C245      1.0  0.05172  0.37019  0.66142  1.0000
  H   H233      1.0  0.02698  0.62070  0.80083  1.0000
  C   C246      1.0  0.02589  0.49254  0.88141  1.0000
  C   C247      1.0  0.09613  0.43643  0.69554  1.0000
  H   H234      1.0  0.04266  0.62066  0.88232  1.0000
  C   C248      1.0  0.30512  0.39382  0.80404  1.0000
  H   H235      1.0  0.11463  0.45057  0.68667  1.0000
  H   H236      1.0  0.24394  0.40240  0.88644  1.0000
  H   H237      1.0  0.08490  0.64654  0.91239  1.0000
  H   H238      1.0  0.27121  0.60057  0.83890  1.0000
  H   H239      1.0  0.39103  0.36291  0.01680  1.0000
  C   C249      1.0  0.34754  0.66520  0.60117  1.0000
  H   H240      1.0  0.34840  0.65846  0.62885  1.0000
  H   H241      1.0  0.34512  0.60533  0.86054  1.0000
  H   H242      1.0  0.33484  0.40911  0.96785  1.0000
  C   C250      1.0  0.33996  0.41651  0.99482  1.0000
  C   C251      1.0  0.05143  0.64150  0.87112  1.0000
  H   H243      1.0  0.03764  0.50948  0.86452  1.0000
  C   C252      1.0  0.05006  0.39870  0.71815  1.0000
  C   C253      1.0  0.44687  0.39547  0.03873  1.0000
  H   H244      1.0  0.05175  0.42361  0.76815  1.0000
  H   H245      1.0  0.03600  0.46963  0.87568  1.0000
  C   C254      1.0  0.15932  0.35088  0.58333  1.0000
  H   H246      1.0  0.03315  0.37880  0.64432  1.0000
  H   H247      1.0  0.48676  0.34882  0.83960  1.0000
  H   H248      1.0  0.07047  0.36100  0.64424  1.0000
  H   H249      1.0  0.13686  0.64422  0.04111  1.0000
  C   C255      1.0  0.07419  0.60472  0.04159  1.0000
  Fe  Fe46      1.0  0.19640  0.89979  0.43285  1.0000
  S   S90       1.0  0.16109  0.91866  0.39609  1.0000
  S   S91       1.0  0.18823  0.90947  0.49160  1.0000
  Fe  Fe47      1.0  0.23582  0.87703  0.37063  1.0000
  S   S92       1.0  0.20340  0.89356  0.32878  1.0000
  S   S93       1.0  0.28018  0.85262  0.35778  1.0000
  Fe  Fe48      1.0  0.19984  0.93556  0.36350  1.0000
  S   S94       1.0  0.19720  0.98363  0.34330  1.0000
  Fe  Fe49      1.0  0.16730  0.87519  0.36494  1.0000
  S   S95       1.0  0.12586  0.84875  0.34903  1.0000
  S   S96       1.0  0.23496  0.92063  0.40270  1.0000
  S   S97       1.0  0.19992  0.85470  0.40419  1.0000
  S   S98       1.0  0.07701  0.71413  0.20054  1.0000
  Fe  Fe50      1.0  0.46282  0.90679  0.18116  1.0000
  S   S99       1.0  0.42400  0.87558  0.19178  1.0000
  S   S100      1.0  0.47260  0.93312  0.13067  1.0000
  Fe  Fe51      1.0  0.48489  0.90407  0.25820  1.0000
  S   S101      1.0  0.44745  0.87319  0.27542  1.0000
  N   N22       1.0  0.12798  0.83483  0.47959  1.0000
  Fe  Fe52      1.0  0.45782  0.84848  0.22379  1.0000
  S   S102      1.0  0.45629  0.79706  0.22424  1.0000
  Fe  Fe53      1.0  0.41684  0.90259  0.24236  1.0000
  S   S103      1.0  0.37073  0.92292  0.25622  1.0000
  H   H250      1.0  0.38942  0.98622  0.10376  1.0000
  S   S104      1.0  0.45343  0.93585  0.22967  1.0000
  C   C256      1.0  0.44939  0.92750  0.09304  1.0000
  C   C257      1.0  0.45176  0.94717  0.06379  1.0000
  H   H251      1.0  0.25313  0.74849  0.37243  1.0000
  C   C258      1.0  0.42797  0.90437  0.09231  1.0000
  C   C259      1.0  0.28721  0.99813  0.33871  1.0000
  H   H252      1.0  0.42622  0.88880  0.11436  1.0000
  C   C260      1.0  0.49029  0.77571  0.22570  1.0000
  C   C261      1.0  0.34482  0.93584  0.37605  1.0000
  C   C262      1.0  0.03840  0.76345  0.20086  1.0000
  C   C263      1.0  0.04174  0.73226  0.20792  1.0000
  C   C264      1.0  0.19882  0.85126  0.51728  1.0000
  H   H253      1.0  0.12485  0.82915  0.42309  1.0000
  H   H254      1.0  0.46840  0.96505  0.06409  1.0000
  H   H255      1.0  0.05705  0.77586  0.18942  1.0000
  N   N23       1.0  0.29437  0.75299  0.34408  1.0000
  H   H256      1.0  0.46716  0.73310  0.23195  1.0000
  C   C265      1.0  0.08620  0.69306  0.10437  1.0000
  H   H257      1.0  0.34488  0.69976  0.31378  1.0000
  C   C266      1.0  0.35640  0.74143  0.34111  1.0000
  H   H258      1.0  0.00915  0.80311  0.20473  1.0000
  H   H259      1.0  0.02718  0.80599  0.28575  1.0000
  C   C267      1.0  0.25911  0.98369  0.34012  1.0000
  H   H260      1.0  0.30745  0.98484  0.33260  1.0000
  H   H261      1.0  0.25774  0.95941  0.33530  1.0000
  C   C268      1.0  0.05927  0.89544  0.27309  1.0000
  C   C269      1.0  0.08847  0.90709  0.27744  1.0000
  C   C270      1.0  0.10895  0.89329  0.30115  1.0000
  C   C271      1.0  0.10045  0.86743  0.32019  1.0000
  C   C272      1.0  0.07129  0.85580  0.31584  1.0000
  C   C273      1.0  0.05077  0.86980  0.29244  1.0000
  H   H262      1.0  0.09539  0.92656  0.26206  1.0000
  H   H263      1.0  0.13149  0.90226  0.30415  1.0000
  H   H264      1.0  0.06451  0.83605  0.33084  1.0000
  H   H265      1.0  0.02831  0.86090  0.28947  1.0000
  C   C274      1.0  0.30492  0.87169  0.32861  1.0000
  C   C275      1.0  0.29671  0.89983  0.31402  1.0000
  C   C276      1.0  0.31703  0.91523  0.29174  1.0000
  C   C277      1.0  0.34565  0.90251  0.28367  1.0000
  C   C278      1.0  0.35383  0.87424  0.29804  1.0000
  C   C279      1.0  0.33352  0.85891  0.32051  1.0000
  H   H266      1.0  0.27465  0.90965  0.31992  1.0000
  H   H267      1.0  0.31057  0.93711  0.28080  1.0000
  H   H268      1.0  0.37580  0.86421  0.29191  1.0000
  H   H269      1.0  0.34003  0.83715  0.33165  1.0000
  C   C280      1.0  0.03195  0.78263  0.29335  1.0000
  C   C281      1.0  0.14115  0.80427  0.48453  1.0000
  H   H270      1.0  0.09934  0.79535  0.28901  1.0000
  C   C282      1.0  0.33633  0.72070  0.32618  1.0000
  H   H271      1.0  0.13394  0.99821  0.32862  1.0000
  H   H272      1.0  0.10459  0.88117  0.41329  1.0000
  H   H273      1.0  0.20464  0.80579  0.53807  1.0000
  H   H274      1.0  0.08655  0.72860  0.28734  1.0000
  C   C283      1.0  0.10977  0.87375  0.44014  1.0000
  H   H275      1.0  0.28977  0.71034  0.31672  1.0000
  C   C284      1.0  0.04306  0.99095  0.26940  1.0000
  H   H276      1.0  0.39178  0.88365  0.06289  1.0000
  H   H277      1.0  0.04693  0.69836  0.31716  1.0000
  C   C285      1.0  0.40860  0.90136  0.06297  1.0000
  H   H278      1.0  0.32978  0.91511  0.07134  1.0000
  C   C286      1.0  0.50029  0.80549  0.31302  1.0000
  H   H279      1.0  0.14234  0.79810  0.51322  1.0000
  H   H280      1.0  0.25608  0.78331  0.34682  1.0000
  H   H281      1.0  0.26035  0.98749  0.26074  1.0000
  S   S105      1.0  0.03384  0.91360  0.24371  1.0000
  H   H282      1.0  0.49616  0.75675  0.30698  1.0000
  C   C287      1.0  0.12112  0.84427  0.44588  1.0000
  C   C288      1.0  0.09105  0.99379  0.30160  1.0000
  N   N24       1.0  0.05938  0.76920  0.28542  1.0000
  C   C289      1.0  0.34275  0.92630  0.09208  1.0000
  H   H283      1.0  0.38060  0.73667  0.34017  1.0000
  H   H284      1.0  0.09019  0.96934  0.30578  1.0000
  C   C290      1.0  0.34517  0.76795  0.35770  1.0000
  C   C291      1.0  0.35802  0.95313  0.08448  1.0000
  C   C292      1.0  0.00909  0.76603  0.30993  1.0000
  C   C293      1.0  0.30784  0.96103  0.41431  1.0000
  H   H285      1.0  0.20672  0.84518  0.49074  1.0000
  H   H286      1.0  0.39245  0.96028  0.19776  1.0000
  H   H287      1.0  0.44695  0.68590  0.30968  1.0000
  C   C294      1.0  0.30520  0.72681  0.32801  1.0000
  C   C295      1.0  0.06497  0.73939  0.29413  1.0000
  H   H288      1.0  0.33442  0.89196  0.13167  1.0000
  C   C296      1.0  0.08332  0.78697  0.26848  1.0000
  H   H289      1.0  0.35702  0.96264  0.05785  1.0000
  H   H290      1.0  0.24939  0.74749  0.32472  1.0000
  C   C297      1.0  0.11316  0.88403  0.50328  1.0000
  H   H291      1.0  0.30527  0.79379  0.37247  1.0000
  H   H292      1.0  0.30551  0.91369  0.39740  1.0000
  C   C298      1.0  0.04263  0.72214  0.31087  1.0000
  N   N25       1.0  0.37847  0.95373  0.14369  1.0000
  H   H293      1.0  0.07207  0.70666  0.12251  1.0000
  C   C299      1.0  0.36363  0.92736  0.15141  1.0000
  C   C300      1.0  0.18963  0.88132  0.52489  1.0000
  C   C301      1.0  0.34558  0.91323  0.12573  1.0000
  C   C302      1.0  0.10623  0.89387  0.46900  1.0000
  C   C303      1.0  0.39809  0.96787  0.17031  1.0000
  C   C304      1.0  0.11585  0.00997  0.31457  1.0000
  H   H294      1.0  0.36599  0.91688  0.17741  1.0000
  C   C305      1.0  0.31821  0.93473  0.39623  1.0000
  H   H295      1.0  0.20493  0.99638  0.25496  1.0000
  C   C306      1.0  0.01747  0.71631  0.22248  1.0000
  C   C307      1.0  0.48895  0.74403  0.23030  1.0000
  H   H296      1.0  0.36057  0.78413  0.36959  1.0000
  H   H297      1.0  0.19420  0.69456  0.31643  1.0000
  C   C308      1.0  0.34986  0.98885  0.39279  1.0000
  C   C309      1.0  0.31388  0.77331  0.35915  1.0000
  C   C310      1.0  0.26163  0.75844  0.34717  1.0000
  H   H298      1.0  0.11143  0.89975  0.52579  1.0000
  H   H299      1.0  0.01984  0.69220  0.22789  1.0000
  H   H300      1.0  0.35290  0.91574  0.36153  1.0000
  H   H301      1.0  0.07383  0.80701  0.25413  1.0000
  C   C311      1.0  0.36077  0.96303  0.37422  1.0000
  H   H302      1.0  0.09588  0.77278  0.24835  1.0000
  H   H303      1.0  0.12737  0.78683  0.47066  1.0000
  C   C312      1.0  0.37634  0.96631  0.11053  1.0000
  H   H304      1.0  0.09873  0.91723  0.46471  1.0000
  H   H305      1.0  0.28694  0.96015  0.42963  1.0000
  C   C313      1.0  0.23264  0.00096  0.34581  1.0000
  S   S106      1.0  0.49752  0.87738  0.20877  1.0000
  N   N26       1.0  0.32347  0.98772  0.41211  1.0000
  N   N27       1.0  0.06820  0.00856  0.28395  1.0000
  H   H306      1.0  0.04958  0.98093  0.24302  1.0000
  H   H307      1.0  0.47631  0.81007  0.30920  1.0000
  H   H308      1.0  0.16457  0.80349  0.47346  1.0000
  H   H309      1.0  0.12987  0.84702  0.53486  1.0000
  C   C314      1.0  0.12382  0.85416  0.50818  1.0000
  H   H310      1.0  0.03692  0.97189  0.28736  1.0000
  H   H311      1.0  0.38116  0.96423  0.35797  1.0000
  H   H312      1.0  0.06054  0.70453  0.05760  1.0000
  C   C315      1.0  0.01452  0.73560  0.31874  1.0000
  C   C316      1.0  0.07985  0.69197  0.06797  1.0000
  H   H313      1.0  0.42204  0.96159  0.16441  1.0000
  H   H314      1.0  0.39560  0.99311  0.17002  1.0000
  C   C317      1.0  0.34499  0.68222  0.52922  1.0000
  C   C318      1.0  0.01122  0.77891  0.20941  1.0000
  H   H315      1.0  0.34402  0.68889  0.50154  1.0000
  C   C319      1.0  0.25132  0.01058  0.25888  1.0000
  H   H316      1.0  0.02238  0.00539  0.26608  1.0000
  H   H317      1.0  0.36212  0.01006  0.39069  1.0000
  Fe  Fe54      1.0  0.16659  0.81916  0.66667  1.0000
  S   S107      1.0  0.13726  0.85854  0.68575  1.0000
  S   S108      1.0  0.18431  0.80785  0.61094  1.0000
  Fe  Fe55      1.0  0.16795  0.78953  0.74029  1.0000
  S   S109      1.0  0.13886  0.82624  0.76562  1.0000
  S   S110      1.0  0.19046  0.75245  0.77257  1.0000
  Fe  Fe56      1.0  0.11156  0.82272  0.71557  1.0000
  S   S111      1.0  0.06064  0.82493  0.71788  1.0000
  Fe  Fe57      1.0  0.16685  0.85898  0.73435  1.0000
  S   S112      1.0  0.18713  0.90013  0.76165  1.0000
  S   S113      1.0  0.13829  0.78313  0.69259  1.0000
  S   S114      1.0  0.19850  0.82248  0.71287  1.0000
  C   C320      1.0  0.28552  0.87384  0.81177  1.0000
  S   S115      1.0  0.40675  0.73803  0.71217  1.0000
  N   N28       1.0  0.27353  0.73847  0.62525  1.0000
  Fe  Fe58      1.0  0.37551  0.72550  0.75681  1.0000
  S   S116      1.0  0.35191  0.75785  0.79523  1.0000
  C   C321      1.0  0.50544  0.71631  0.64126  1.0000
  Fe  Fe59      1.0  0.38596  0.93672  0.94458  1.0000
  S   S117      1.0  0.36175  0.90586  0.90624  1.0000
  S   S118      1.0  0.38149  0.92046  0.00174  1.0000
  Fe  Fe60      1.0  0.40362  0.98047  0.88484  1.0000
  S   S119      1.0  0.38107  0.95251  0.84253  1.0000
  H   H318      1.0  0.31345  0.74985  0.59683  1.0000
  Fe  Fe61      1.0  0.34323  0.94884  0.88237  1.0000
  S   S120      1.0  0.29452  0.95010  0.86437  1.0000
  Fe  Fe62      1.0  0.40157  0.91214  0.87006  1.0000
  S   S121      1.0  0.42583  0.87564  0.83730  1.0000
  S   S122      1.0  0.36415  0.97959  0.92335  1.0000
  S   S123      1.0  0.42745  0.94016  0.90976  1.0000
  S   S124      1.0  0.36990  0.72066  0.62329  1.0000
  H   H319      1.0  0.06475  0.76307  0.66104  1.0000
  H   H320      1.0  0.31389  0.00978  0.88845  1.0000
  C   C322      1.0  0.23849  0.89917  0.83086  1.0000
  H   H321      1.0  0.30901  0.70035  0.80375  1.0000
  C   C323      1.0  0.37342  0.78956  0.80824  1.0000
  C   C324      1.0  0.40205  0.79460  0.79344  1.0000
  C   C325      1.0  0.41814  0.82089  0.80287  1.0000
  C   C326      1.0  0.40561  0.84233  0.82701  1.0000
  C   C327      1.0  0.37723  0.83695  0.84230  1.0000
  C   C328      1.0  0.36131  0.81050  0.83317  1.0000
  H   H322      1.0  0.41174  0.77842  0.77455  1.0000
  H   H323      1.0  0.44016  0.82481  0.79111  1.0000
  H   H324      1.0  0.36755  0.85307  0.86125  1.0000
  H   H325      1.0  0.33941  0.80645  0.84519  1.0000
  H   H326      1.0  0.22870  0.73175  0.71382  1.0000
  C   C329      1.0  0.24318  0.98567  0.86821  1.0000
  C   C330      1.0  0.27453  0.98427  0.87371  1.0000
  C   C331      1.0  0.02021  0.77646  0.64364  1.0000
  S   S125      1.0  0.34685  0.69571  0.72228  1.0000
  H   H327      1.0  0.23132  0.96550  0.85964  1.0000
  C   C332      1.0  0.50137  0.74760  0.64784  1.0000
  H   H328      1.0  0.08512  0.71387  0.82974  1.0000
  C   C333      1.0  0.04631  0.73736  0.74605  1.0000
  C   C334      1.0  0.06061  0.76507  0.73899  1.0000
  C   C335      1.0  0.04327  0.79094  0.73066  1.0000
  N   N29       1.0  0.47331  0.76097  0.64508  1.0000
  C   C336      1.0  0.48511  0.75941  0.73951  1.0000
  H   H329      1.0  0.05989  0.71720  0.75115  1.0000
  H   H330      1.0  0.08503  0.76621  0.73917  1.0000
  C   C337      1.0  0.48069  0.69881  0.63133  1.0000
  H   H331      1.0  0.46112  0.75800  0.74465  1.0000
  C   C338      1.0  0.16923  0.71957  0.78186  1.0000
  C   C339      1.0  0.18046  0.69808  0.80615  1.0000
  H   H332      1.0  0.36385  0.72479  0.54727  1.0000
  H   H333      1.0  0.03302  0.83046  0.78806  1.0000
  S   S126      1.0  0.48515  0.69690  0.73148  1.0000
  C   C340      1.0  0.14163  0.71427  0.76499  1.0000
  H   H334      1.0  0.02529  0.80066  0.64354  1.0000
  H   H335      1.0  0.24249  0.80234  0.78066  1.0000
  C   C341      1.0  0.02785  0.85020  0.80470  1.0000
  H   H336      1.0  0.13282  0.73060  0.74617  1.0000
  C   C342      1.0  0.16177  0.92826  0.77871  1.0000
  C   C343      1.0  0.13064  0.92656  0.77259  1.0000
  C   C344      1.0  0.11092  0.94935  0.78636  1.0000
  C   C345      1.0  0.12213  0.97370  0.80674  1.0000
  C   C346      1.0  0.15327  0.97542  0.81283  1.0000
  C   C347      1.0  0.17303  0.95282  0.79874  1.0000
  H   H337      1.0  0.12182  0.90791  0.75684  1.0000
  H   H338      1.0  0.08699  0.94831  0.78082  1.0000
  C   C348      1.0  0.03250  0.00798  0.89803  1.0000
  H   H339      1.0  0.19705  0.95439  0.80344  1.0000
  C   C349      1.0  0.18710  0.83669  0.57858  1.0000
  C   C350      1.0  0.17829  0.86682  0.58626  1.0000
  H   H340      1.0  0.17262  0.91230  0.56562  1.0000
  C   C351      1.0  0.28354  0.00180  0.78737  1.0000
  S   S127      1.0  0.09674  0.00149  0.82454  1.0000
  H   H341      1.0  0.17033  0.87301  0.61275  1.0000
  H   H342      1.0  0.48163  0.97579  0.85949  1.0000
  C   C352      1.0  0.25313  0.00996  0.78317  1.0000
  H   H343      1.0  0.24701  0.90385  0.85817  1.0000
  C   C353      1.0  0.29060  0.74048  0.59169  1.0000
  H   H344      1.0  0.00996  0.92069  0.86396  1.0000
  C   C354      1.0  0.45236  0.71280  0.62754  1.0000
  C   C355      1.0  0.31681  0.67958  0.81655  1.0000
  H   H345      1.0  0.27915  0.75547  0.57206  1.0000
  H   H346      1.0  0.48458  0.88077  0.80028  1.0000
  H   H347      1.0  0.05202  0.70834  0.66539  1.0000
  H   H348      1.0  0.23747  0.76797  0.60847  1.0000
  C   C356      1.0  0.01536  0.90093  0.84733  1.0000
  C   C357      1.0  0.30176  0.84912  0.79693  1.0000
  H   H349      1.0  0.49018  0.80440  0.66241  1.0000
  H   H350      1.0  0.32618  0.85012  0.79410  1.0000
  C   C358      1.0  0.41026  0.92157  0.03420  1.0000
  H   H351      1.0  0.43353  0.96009  0.01252  1.0000
  C   C359      1.0  0.23923  0.84780  0.80351  1.0000
  C   C360      1.0  0.46877  0.79340  0.65397  1.0000
  Fe  Fe63      1.0  0.43407  0.69723  0.72909  1.0000
  H   H352      1.0  0.29888  0.80346  0.77536  1.0000
  H   H353      1.0  0.17099  0.00675  0.02464  1.0000
  C   C361      1.0  0.26897  0.71820  0.68437  1.0000
  H   H354      1.0  0.20857  0.76376  0.66471  1.0000
  C   C362      1.0  0.17966  0.88905  0.55953  1.0000
  H   H355      1.0  0.30637  0.70881  0.64864  1.0000
  H   H356      1.0  0.29339  0.71738  0.57937  1.0000
  H   H357      1.0  0.42678  0.75467  0.63221  1.0000
  C   C363      1.0  0.12560  0.68747  0.77205  1.0000
  H   H358      1.0  0.45240  0.79589  0.67653  1.0000
  H   H359      1.0  0.20178  0.70204  0.81930  1.0000
  S   S128      1.0  0.40486  0.68725  0.77677  1.0000
  C   C364      1.0  0.35753  0.69401  0.59117  1.0000
  H   H360      1.0  0.43293  0.69942  0.61975  1.0000
  H   H361      1.0  0.29772  0.89380  0.82081  1.0000
  C   C365      1.0  0.50225  0.73287  0.73284  1.0000
  N   N30       1.0  0.25468  0.87289  0.81500  1.0000
  C   C366      1.0  0.35622  0.70248  0.55516  1.0000
  H   H362      1.0  0.21470  0.84732  0.80523  1.0000
  H   H363      1.0  0.21369  0.89545  0.83269  1.0000
  H   H364      1.0  0.45992  0.80585  0.63049  1.0000
  C   C367      1.0  0.28488  0.72088  0.65212  1.0000
  H   H365      1.0  0.05110  0.92300  0.81840  1.0000
  C   C368      1.0  0.24652  0.75385  0.62961  1.0000
  H   H366      1.0  0.46783  0.92663  0.83433  1.0000
  H   H367      1.0  0.29106  0.97840  0.78272  1.0000
  Fe  Fe64      1.0  0.38075  0.70461  0.67900  1.0000
  H   H368      1.0  0.24206  0.91965  0.81420  1.0000
  C   C369      1.0  0.50109  0.89460  0.81412  1.0000
  C   C370      1.0  0.25483  0.82238  0.78924  1.0000
  H   H369      1.0  0.48582  0.80837  0.74592  1.0000
  C   C371      1.0  0.23003  0.75162  0.66147  1.0000
  C   C372      1.0  0.28635  0.82306  0.78610  1.0000
  C   C373      1.0  0.24135  0.73367  0.68899  1.0000
  H   H370      1.0  0.23685  0.99300  0.77493  1.0000
  C   C374      1.0  0.01466  0.73553  0.74521  1.0000
  H   H371      1.0  0.16211  0.99418  0.82833  1.0000
  H   H372      1.0  0.10666  0.69330  0.88583  1.0000
  C   C375      1.0  0.04240  0.75532  0.65360  1.0000
  C   C376      1.0  0.44905  0.74410  0.63458  1.0000
  H   H373      1.0  0.10451  0.68325  0.75853  1.0000
  H   H374      1.0  0.27798  0.70419  0.70561  1.0000
  C   C377      1.0  0.03509  0.72442  0.65588  1.0000
  C   C378      1.0  0.49177  0.92067  0.83336  1.0000
  C   C379      1.0  0.49918  0.78791  0.74050  1.0000
  C   C380      1.0  0.03833  0.90223  0.82166  1.0000
  C   C381      1.0  0.04469  0.87670  0.80016  1.0000
  H   H375      1.0  0.06240  0.87736  0.77991  1.0000
  C   C382      1.0  0.43222  0.94426  0.03442  1.0000
  H   H376      1.0  0.49184  0.70291  0.81695  1.0000
  H   H377      1.0  0.04443  0.00926  0.87267  1.0000
  H   H378      1.0  0.38783  0.01069  0.81332  1.0000
  C   C383      1.0  0.08740  0.68241  0.87356  1.0000
  C   C384      1.0  0.07531  0.69400  0.84212  1.0000
  C   C385      1.0  0.01162  0.78941  0.73110  1.0000
  H   H379      1.0  0.48917  0.75864  0.82840  1.0000
  C   C386      1.0  0.28969  0.01052  0.88464  1.0000
  H   H380      1.0  0.18735  0.00545  0.98069  1.0000
  H   H381      1.0  0.04323  0.68697  0.80033  1.0000
  H   H382      1.0  0.35622  0.70061  0.83893  1.0000
  C   C387      1.0  0.19760  0.82903  0.54411  1.0000
  C   C388      1.0  0.03237  0.01043  0.96238  1.0000
  C   C389      1.0  0.04807  0.01205  0.92991  1.0000
  C   C390      1.0  0.34340  0.67973  0.83635  1.0000
  H   H383      1.0  0.49655  0.95835  0.89917  1.0000
  C   C391      1.0  0.50219  0.96513  0.87144  1.0000
  N   N31       1.0  0.64572  0.28069  0.29211  1.0000
  Fe  Fe65      1.0  0.58165  0.12334  0.17917  1.0000
  S   S129      1.0  0.61978  0.15315  0.19698  1.0000
  S   S130      1.0  0.57003  0.10499  0.12421  1.0000
  Fe  Fe66      1.0  0.55157  0.12430  0.25314  1.0000
  S   S131      1.0  0.58737  0.15380  0.27758  1.0000
  H   H384      1.0  0.99612  0.25983  0.16609  1.0000
  Fe  Fe67      1.0  0.58370  0.18024  0.22657  1.0000
  S   S132      1.0  0.58621  0.23174  0.22608  1.0000
  Fe  Fe68      1.0  0.62068  0.12456  0.24656  1.0000
  S   S133      1.0  0.66359  0.10300  0.26848  1.0000
  S   S134      1.0  0.54540  0.15294  0.20451  1.0000
  S   S135      1.0  0.58518  0.09254  0.22631  1.0000
  Fe  Fe69      1.0  0.83706  0.12184  0.43655  1.0000
  S   S136      1.0  0.86877  0.09692  0.39887  1.0000
  S   S137      1.0  0.84389  0.11137  0.49499  1.0000
  Fe  Fe70      1.0  0.80039  0.14873  0.37496  1.0000
  S   S138      1.0  0.83001  0.12663  0.33284  1.0000
  S   S139      1.0  0.75898  0.17693  0.36044  1.0000
  Fe  Fe71      1.0  0.82710  0.08533  0.36781  1.0000
  S   S140      1.0  0.82098  0.03763  0.34538  1.0000
  Fe  Fe72      1.0  0.86877  0.14035  0.36781  1.0000
  S   S141      1.0  0.91203  0.16389  0.35145  1.0000
  S   S142      1.0  0.79534  0.10677  0.40804  1.0000
  S   S143      1.0  0.83936  0.16627  0.40749  1.0000
  C   C392      1.0  0.92557  0.20068  0.26287  1.0000
  H   H385      1.0  0.53405  0.15841  0.10097  1.0000
  S   S144      1.0  0.96428  0.31343  0.19157  1.0000
  C   C393      1.0  0.91673  0.13605  0.48338  1.0000
  H   H386      1.0  0.52451  0.06083  0.22167  1.0000
  H   H387      1.0  0.92278  0.22350  0.49229  1.0000
  H   H388      1.0  0.83813  0.17783  0.49254  1.0000
  C   C394      1.0  0.68203  0.24024  0.28107  1.0000
  C   C395      1.0  0.52353  0.29918  0.21336  1.0000
  C   C396      1.0  0.55093  0.28334  0.21922  1.0000
  C   C397      1.0  0.55132  0.25148  0.22267  1.0000
  C   C398      1.0  0.74306  0.01691  0.39680  1.0000
  C   C399      1.0  0.52434  0.03752  0.21161  1.0000
  H   H389      1.0  0.63385  0.23506  0.27804  1.0000
  H   H390      1.0  0.57187  0.29582  0.22046  1.0000
  H   H391      1.0  0.97806  0.15591  0.19767  1.0000
  H   H392      1.0  0.56356  0.09126  0.04966  1.0000
  C   C400      1.0  0.93984  0.14453  0.32531  1.0000
  C   C401      1.0  0.93439  0.11602  0.30965  1.0000
  C   C402      1.0  0.95608  0.10253  0.28644  1.0000
  C   C403      1.0  0.98327  0.11744  0.27872  1.0000
  C   C404      1.0  0.67897  0.05150  0.34899  1.0000
  C   C405      1.0  0.96737  0.15903  0.31832  1.0000
  H   H393      1.0  0.91323  0.10467  0.31483  1.0000
  H   H394      1.0  0.95152  0.08073  0.27390  1.0000
  C   C406      1.0  0.64873  0.10418  0.06684  1.0000
  H   H395      1.0  0.97177  0.18106  0.33035  1.0000
  C   C407      1.0  0.68972  0.12444  0.29359  1.0000
  C   C408      1.0  0.68303  0.15411  0.30580  1.0000
  C   C409      1.0  0.70430  0.17007  0.32649  1.0000
  C   C410      1.0  0.73230  0.15648  0.33498  1.0000
  C   C411      1.0  0.73881  0.12677  0.32293  1.0000
  C   C412      1.0  0.71765  0.11090  0.30226  1.0000
  H   H396      1.0  0.66138  0.16455  0.29967  1.0000
  H   H397      1.0  0.69894  0.19283  0.33625  1.0000
  H   H398      1.0  0.76025  0.11602  0.32930  1.0000
  H   H399      1.0  0.72309  0.08806  0.29275  1.0000
  C   C413      1.0  0.59704  0.10218  0.08920  1.0000
  H   H400      1.0  0.53610  0.03479  0.28242  1.0000
  C   C414      1.0  0.78879  0.01816  0.36060  1.0000
  C   C415      1.0  0.62780  0.10705  0.09522  1.0000
  H   H401      1.0  0.58896  0.16593  0.10721  1.0000
  H   H402      1.0  0.63556  0.11243  0.12183  1.0000
  N   N32       1.0  0.58424  0.21132  0.12799  1.0000
  H   H403      1.0  0.70354  0.05540  0.34491  1.0000
  C   C416      1.0  0.98898  0.14558  0.29510  1.0000
  H   H404      1.0  0.76599  0.05785  0.38238  1.0000
  H   H405      1.0  0.71702  0.30630  0.30369  1.0000
  H   H406      1.0  0.61150  0.31432  0.28292  1.0000
  S   S145      1.0  0.71222  0.33582  0.48667  1.0000
  C   C417      1.0  0.69892  0.29050  0.29779  1.0000
  H   H407      1.0  0.91317  0.14344  0.42676  1.0000
  C   C418      1.0  0.77292  0.26064  0.38599  1.0000
  H   H408      1.0  0.76041  0.21177  0.43079  1.0000
  C   C419      1.0  0.56468  0.23473  0.13680  1.0000
  H   H409      1.0  0.72627  0.02880  0.41312  1.0000
  C   C420      1.0  0.74326  0.23038  0.42771  1.0000
  H   H410      1.0  0.62513  0.23243  0.11262  1.0000
  H   H411      1.0  0.62169  0.22399  0.15972  1.0000
  C   C421      1.0  0.99656  0.29417  0.20762  1.0000
  H   H412      1.0  0.73007  0.23265  0.45298  1.0000
  S   S146      1.0  0.70054  0.33729  0.38697  1.0000
  H   H413      1.0  0.79846  0.28929  0.35029  1.0000
  C   C422      1.0  0.96275  0.24145  0.26866  1.0000
  H   H414      1.0  0.72892  0.25217  0.28709  1.0000
  C   C423      1.0  0.81736  0.03067  0.44871  1.0000
  H   H415      1.0  0.83081  0.03524  0.47308  1.0000
  C   C424      1.0  0.92113  0.19889  0.48995  1.0000
  H   H416      1.0  0.72733  0.22350  0.40634  1.0000
  C   C425      1.0  0.77213  0.31040  0.43231  1.0000
  N   N33       1.0  0.95325  0.21205  0.25381  1.0000
  H   H417      1.0  0.67372  0.05389  0.37792  1.0000
  H   H418      1.0  0.98783  0.24247  0.27063  1.0000
  C   C426      1.0  0.76593  0.03340  0.37994  1.0000
  H   H419      1.0  0.66367  0.32397  0.30681  1.0000
  H   H420      1.0  0.77123  0.32985  0.45052  1.0000
  H   H421      1.0  0.91409  0.11150  0.48125  1.0000
  H   H422      1.0  0.77336  0.24122  0.36774  1.0000
  C   C427      1.0  0.91603  0.17279  0.24868  1.0000
  H   H423      1.0  0.79395  0.03974  0.45294  1.0000
  H   H424      1.0  0.57317  0.25600  0.14762  1.0000
  N   N34       1.0  0.92208  0.18112  0.51977  1.0000
  C   C428      1.0  0.52411  0.23564  0.22112  1.0000
  C   C429      1.0  0.84355  0.17127  0.51951  1.0000
  C   C430      1.0  0.75783  0.28322  0.44131  1.0000
  H   H425      1.0  0.68693  0.21664  0.27370  1.0000
  H   H426      1.0  0.95353  0.24514  0.29605  1.0000
  H   H427      1.0  0.52341  0.32372  0.21031  1.0000
  C   C431      1.0  0.97165  0.19665  0.23002  1.0000
  H   H428      1.0  0.92835  0.13449  0.21472  1.0000
  H   H429      1.0  0.89466  0.16324  0.25719  1.0000
  C   C432      1.0  0.53342  0.23133  0.13303  1.0000
  H   H430      1.0  0.91698  0.19957  0.43232  1.0000
  C   C433      1.0  0.93491  0.15667  0.22491  1.0000
  H   H431      1.0  0.91110  0.21262  0.28208  1.0000
  C   C434      1.0  0.91790  0.18559  0.45607  1.0000
  C   C435      1.0  0.95978  0.34180  0.09704  1.0000
  C   C436      1.0  0.96260  0.34256  0.05995  1.0000
  C   C437      1.0  0.96285  0.16869  0.21536  1.0000
  C   C438      1.0  0.91575  0.15397  0.45287  1.0000
  H   H432      1.0  0.60753  0.29329  0.32377  1.0000
  H   H433      1.0  0.52402  0.21124  0.22444  1.0000
  H   H434      1.0  0.67136  0.03588  0.28096  1.0000
  C   C439      1.0  0.61687  0.21561  0.13226  1.0000
  H   H435      1.0  0.98189  0.33164  0.04676  1.0000
  C   C440      1.0  0.52224  0.20370  0.12027  1.0000
  C   C441      1.0  0.61423  0.29145  0.29518  1.0000
  H   H436      1.0  0.56449  0.34198  0.31977  1.0000
  H   H437      1.0  0.59833  0.27588  0.28149  1.0000
  H   H438      1.0  0.66596  0.06968  0.33505  1.0000
  C   C442      1.0  0.78692  0.31253  0.39948  1.0000
  C   C443      1.0  0.66867  0.30040  0.29950  1.0000
  C   C444      1.0  0.70558  0.26019  0.28849  1.0000
  C   C445      1.0  0.78737  0.28753  0.37612  1.0000
  C   C446      1.0  0.57351  0.18442  0.11463  1.0000
  H   H439      1.0  0.74612  0.28199  0.46679  1.0000
  C   C447      1.0  0.65204  0.25085  0.28336  1.0000
  H   H440      1.0  0.62986  0.19388  0.12829  1.0000
  H   H441      1.0  0.67256  0.10747  0.07180  1.0000
  N   N35       1.0  0.75823  0.25884  0.41816  1.0000
  C   C448      1.0  0.54238  0.18012  0.11080  1.0000
  H   H442      1.0  0.99359  0.20556  0.22292  1.0000
  H   H443      1.0  0.95477  0.26032  0.25129  1.0000
  S   S147      1.0  0.51242  0.10138  0.28087  1.0000
  H   H444      1.0  0.87519  0.01881  0.26188  1.0000
  C   C449      1.0  0.52763  0.03221  0.17488  1.0000
  H   H445      1.0  0.53082  0.05119  0.15682  1.0000
  C   C450      1.0  0.84693  0.14037  0.52785  1.0000
  H   H446      1.0  0.82712  0.04370  0.42621  1.0000
  C   C451      1.0  0.00706  0.26760  0.19020  1.0000
  H   H447      1.0  0.97666  0.33008  0.11307  1.0000
  C   C452      1.0  0.66848  0.01687  0.29904  1.0000
  C   C453      1.0  0.58733  0.09503  0.05453  1.0000
  C   C454      1.0  0.92010  0.15005  0.51681  1.0000
  H   H448      1.0  0.79762  0.33369  0.39187  1.0000
  H   H449      1.0  0.84455  0.21762  0.53959  1.0000
  H   H450      1.0  0.00323  0.32465  0.25217  1.0000
  C   C455      1.0  0.51743  0.02008  0.27289  1.0000
  H   H451      1.0  0.81769  0.34058  0.27312  1.0000
  N   N36       1.0  0.67109  0.02126  0.33508  1.0000
  N   N37       1.0  0.52098  0.01371  0.23459  1.0000
  H   H452      1.0  0.51797  0.24980  0.14070  1.0000
  H   H453      1.0  0.92034  0.13592  0.54041  1.0000
  H   H454      1.0  0.70885  0.03747  0.98146  1.0000
  Fe  Fe73      1.0  0.66271  0.29677  0.73770  1.0000
  S   S148      1.0  0.63489  0.31835  0.78184  1.0000
  S   S149      1.0  0.68603  0.25071  0.74422  1.0000
  C   C456      1.0  0.55528  0.10562  0.81809  1.0000
  C   C457      1.0  0.98723  0.08910  0.76675  1.0000
  S   S150      1.0  0.62918  0.30653  0.69411  1.0000
  Fe  Fe74      1.0  0.63211  0.04935  0.87555  1.0000
  S   S151      1.0  0.65587  0.07810  0.83511  1.0000
  C   C458      1.0  0.59114  0.29208  0.60083  1.0000
  Fe  Fe75      1.0  0.65519  0.08701  0.93899  1.0000
  S   S152      1.0  0.68018  0.11882  0.90281  1.0000
  S   S153      1.0  0.66644  0.09249  0.99772  1.0000
  Fe  Fe76      1.0  0.63909  0.11773  0.86826  1.0000
  S   S154      1.0  0.61560  0.15873  0.84423  1.0000
  Fe  Fe77      1.0  0.69472  0.07630  0.87326  1.0000
  S   S155      1.0  0.74378  0.07244  0.85676  1.0000
  S   S156      1.0  0.61242  0.08924  0.90673  1.0000
  S   S157      1.0  0.67245  0.04438  0.91129  1.0000
  Fe  Fe78      1.0  0.93294  0.19806  0.71695  1.0000
  S   S158      1.0  0.90489  0.23789  0.69829  1.0000
  S   S159      1.0  0.98383  0.19631  0.72077  1.0000
  Fe  Fe79      1.0  0.87862  0.15893  0.73140  1.0000
  S   S160      1.0  0.84581  0.19561  0.71455  1.0000
  S   S161      1.0  0.85917  0.11402  0.74840  1.0000
  Fe  Fe80      1.0  0.87786  0.20264  0.66873  1.0000
  S   S162      1.0  0.86078  0.21448  0.61345  1.0000
  Fe  Fe81      1.0  0.87536  0.22751  0.74547  1.0000
  S   S163      1.0  0.85373  0.26186  0.78359  1.0000
  S   S164      1.0  0.90864  0.16354  0.68319  1.0000
  S   S165      1.0  0.90533  0.19014  0.76639  1.0000
  C   C459      1.0  0.87958  0.09114  0.77852  1.0000
  C   C460      1.0  0.86843  0.06237  0.78748  1.0000
  C   C461      1.0  0.88456  0.04329  0.81076  1.0000
  C   C462      1.0  0.91192  0.05293  0.82527  1.0000
  C   C463      1.0  0.92266  0.08204  0.81708  1.0000
  C   C464      1.0  0.90662  0.10108  0.79363  1.0000
  H   H455      1.0  0.84748  0.05456  0.77598  1.0000
  H   H456      1.0  0.94351  0.08983  0.82881  1.0000
  H   H457      1.0  0.91521  0.12334  0.78717  1.0000
  C   C465      1.0  0.87461  0.29503  0.79287  1.0000
  C   C466      1.0  0.90125  0.30111  0.77407  1.0000
  C   C467      1.0  0.96751  0.27715  0.82532  1.0000
  C   C468      1.0  0.00273  0.11585  0.75875  1.0000
  C   C469      1.0  0.60824  0.09250  0.02605  1.0000
  C   C470      1.0  0.86444  0.31566  0.81942  1.0000
  H   H458      1.0  0.90930  0.28550  0.75354  1.0000
  H   H459      1.0  0.73562  0.22109  0.69932  1.0000
  C   C471      1.0  0.69784  0.32760  0.55732  1.0000
  H   H460      1.0  0.84381  0.31113  0.83404  1.0000
  C   C472      1.0  0.85802  0.15464  0.58955  1.0000
  C   C473      1.0  0.85455  0.18552  0.58126  1.0000
  H   H461      1.0  0.51411  0.05452  0.86088  1.0000
  S   S166      1.0  0.93366  0.02883  0.85276  1.0000
  H   H462      1.0  0.86368  0.14802  0.61645  1.0000
  H   H463      1.0  0.84158  0.26471  0.66126  1.0000
  C   C474      1.0  0.76128  0.03680  0.86437  1.0000
  C   C475      1.0  0.00149  0.06651  0.78684  1.0000
  H   H464      1.0  0.80626  0.05328  0.85397  1.0000
  H   H465      1.0  0.80715  0.10029  0.80537  1.0000
  H   H466      1.0  0.53034  0.30125  0.81176  1.0000
  H   H467      1.0  0.76873  0.09418  0.79174  1.0000
  C   C476      1.0  0.53723  0.29363  0.73130  1.0000
  H   H468      1.0  0.73713  0.12978  0.82130  1.0000
  C   C477      1.0  0.54282  0.23860  0.72593  1.0000
  C   C478      1.0  0.55570  0.26745  0.73082  1.0000
  C   C479      1.0  0.88110  0.34199  0.82752  1.0000
  C   C480      1.0  0.98220  0.30489  0.82989  1.0000
  C   C481      1.0  0.98451  0.25857  0.73263  1.0000
  H   H469      1.0  0.55713  0.21833  0.72635  1.0000
  H   H470      1.0  0.57979  0.26931  0.73517  1.0000
  H   H471      1.0  0.99257  0.02093  0.01581  1.0000
  H   H472      1.0  0.96011  0.25785  0.73337  1.0000
  C   C482      1.0  0.66623  0.22476  0.77136  1.0000
  C   C483      1.0  0.68015  0.19713  0.78132  1.0000
  C   C484      1.0  0.66497  0.17664  0.80378  1.0000
  C   C485      1.0  0.63562  0.18359  0.81603  1.0000
  C   C486      1.0  0.62150  0.21084  0.80533  1.0000
  C   C487      1.0  0.63675  0.23138  0.78321  1.0000
  H   H473      1.0  0.70271  0.19163  0.77165  1.0000
  H   H474      1.0  0.67579  0.15542  0.81141  1.0000
  H   H475      1.0  0.59874  0.21625  0.81442  1.0000
  H   H476      1.0  0.62558  0.25228  0.77525  1.0000
  H   H477      1.0  0.76188  0.22386  0.83076  1.0000
  H   H478      1.0  0.98606  0.30699  0.74361  1.0000
  H   H479      1.0  0.82338  0.15809  0.78361  1.0000
  C   C488      1.0  0.92655  0.19556  0.55479  1.0000
  N   N38       1.0  0.75275  0.04872  0.96181  1.0000
  H   H480      1.0  0.85672  0.10831  0.56962  1.0000
  C   C489      1.0  0.57027  0.29400  0.62896  1.0000
  C   C490      1.0  0.75357  0.14757  0.81699  1.0000
  H   H481      1.0  0.57079  0.14567  0.79060  1.0000
  C   C491      1.0  0.80161  0.16342  0.79587  1.0000
  H   H482      1.0  0.93830  0.33206  0.76723  1.0000
  C   C492      1.0  0.74643  0.17742  0.82816  1.0000
  C   C493      1.0  0.78828  0.10969  0.78916  1.0000
  H   H483      1.0  0.75130  0.09468  0.98006  1.0000
  C   C494      1.0  0.55230  0.12990  0.79435  1.0000
  H   H484      1.0  0.97334  0.22881  0.81575  1.0000
  N   N39       1.0  0.53197  0.08580  0.82310  1.0000
  H   H485      1.0  0.54713  0.32387  0.66609  1.0000
  H   H486      1.0  0.55980  0.27357  0.63925  1.0000
  C   C495      1.0  0.76728  0.20056  0.82255  1.0000
  H   H487      1.0  0.79574  0.23688  0.64397  1.0000
  C   C496      1.0  0.63908  0.09683  0.03218  1.0000
  H   H488      1.0  0.60056  0.08676  0.99951  1.0000
  H   H489      1.0  0.72012  0.08403  0.95227  1.0000
  C   C497      1.0  0.85406  0.13217  0.56296  1.0000
  H   H490      1.0  0.95063  0.20186  0.55809  1.0000
  C   C498      1.0  0.50855  0.29006  0.81170  1.0000
  H   H491      1.0  0.57640  0.10281  0.83244  1.0000
  C   C499      1.0  0.98456  0.25036  0.82038  1.0000
  S   S167      1.0  0.68985  0.33896  0.72711  1.0000
  C   C500      1.0  0.78169  0.03863  0.95492  1.0000
  N   N40       1.0  0.78082  0.14096  0.80086  1.0000
  H   H492      1.0  0.81168  0.21132  0.80219  1.0000
  C   C501      1.0  0.60430  0.31865  0.58801  1.0000
  C   C502      1.0  0.74483  0.08092  0.95637  1.0000
  H   H493      1.0  0.75622  0.08978  0.93211  1.0000
  C   C503      1.0  0.79513  0.19356  0.80642  1.0000
  H   H494      1.0  0.79537  0.10937  0.76065  1.0000
  H   H495      1.0  0.92012  0.18018  0.57696  1.0000
  H   H496      1.0  0.52871  0.24486  0.80861  1.0000
  C   C504      1.0  0.84719  0.19375  0.54620  1.0000
  H   H497      1.0  0.72475  0.18258  0.84087  1.0000
  Fe  Fe82      1.0  0.60326  0.33109  0.73762  1.0000
  H   H498      1.0  0.94295  0.27652  0.82507  1.0000
  N   N41       1.0  0.76920  0.25386  0.68813  1.0000
  C   C505      1.0  0.79500  0.25127  0.66773  1.0000
  C   C506      1.0  0.76873  0.27158  0.71842  1.0000
  C   C507      1.0  0.82112  0.26696  0.67735  1.0000
  C   C508      1.0  0.79457  0.28733  0.72896  1.0000
  C   C509      1.0  0.82084  0.28506  0.70817  1.0000
  C   C510      1.0  0.74179  0.23748  0.67808  1.0000
  H   H499      1.0  0.84117  0.29680  0.71642  1.0000
  H   H500      1.0  0.74830  0.27346  0.73468  1.0000
  S   S168      1.0  0.55232  0.32972  0.74042  1.0000
  H   H501      1.0  0.79446  0.30084  0.75341  1.0000
  H   H502      1.0  0.70816  0.30521  0.55392  1.0000
  H   H503      1.0  0.74468  0.22457  0.65259  1.0000
  H   H504      1.0  0.79839  0.05398  0.94409  1.0000
  H   H505      1.0  0.72254  0.25389  0.67502  1.0000
  C   C511      1.0  0.79289  0.03394  0.86188  1.0000
  H   H506      1.0  0.96417  0.08604  0.75767  1.0000
  C   C512      1.0  0.56338  0.32251  0.64435  1.0000
  H   H507      1.0  0.68731  0.32117  0.61326  1.0000
  H   H508      1.0  0.59712  0.27009  0.58901  1.0000
  H   H509      1.0  0.87599  0.02097  0.81705  1.0000
  C   C513      1.0  0.99924  0.28638  0.73853  1.0000
  H   H510      1.0  0.54372  0.03942  0.83159  1.0000
  H   H511      1.0  0.91199  0.21637  0.55783  1.0000
  C   C514      1.0  0.53576  0.05981  0.84707  1.0000
  C   C515      1.0  0.50778  0.25814  0.80998  1.0000
  H   H512      1.0  0.98940  0.04591  0.79373  1.0000
  H   H513      1.0  0.55279  0.06456  0.86806  1.0000
  C   C516      1.0  0.73163  0.02926  0.97518  1.0000
  C   C517      1.0  0.68609  0.33657  0.59094  1.0000
  C   C518      1.0  0.00147  0.23175  0.72663  1.0000
  H   H514      1.0  0.62062  0.31761  0.56620  1.0000
  C   C519      1.0  0.51147  0.23583  0.72150  1.0000
  H   H515      1.0  0.99127  0.13352  0.74361  1.0000
  H   H516      1.0  0.52302  0.15229  0.75684  1.0000
  C   C520      1.0  0.52544  0.13365  0.77547  1.0000
  H   H517      1.0  0.96916  0.32596  0.83313  1.0000
  C   C521      1.0  0.91771  0.32751  0.78192  1.0000
  H   H518      1.0  0.71983  0.01323  0.87516  1.0000
  H   H519      1.0  0.55523  0.67146  0.08921  1.0000
  S   S169      1.0  0.66880  0.39785  0.42457  1.0000
  C   C522      1.0  0.53039  0.52484  0.16441  1.0000
  Fe  Fe83      1.0  0.73394  0.36857  0.36182  1.0000
  S   S170      1.0  0.69813  0.40121  0.34297  1.0000
  H   H520      1.0  0.66856  0.59123  0.09513  1.0000
  Fe  Fe84      1.0  0.70488  0.42437  0.39599  1.0000
  S   S171      1.0  0.70347  0.47591  0.39488  1.0000
  Fe  Fe85      1.0  0.66533  0.37227  0.37267  1.0000
  N   N42       1.0  0.91648  0.37220  0.05659  1.0000
  S   S172      1.0  0.74331  0.39353  0.41309  1.0000
  Fe  Fe86      1.0  0.94451  0.42517  0.18711  1.0000
  S   S173      1.0  0.92781  0.45596  0.14311  1.0000
  H   H521      1.0  0.99593  0.65397  0.27272  1.0000
  C   C523      1.0  0.84303  0.67548  0.52687  1.0000
  C   C524      1.0  0.63850  0.58566  0.05055  1.0000
  Fe  Fe87      1.0  0.92595  0.40637  0.26239  1.0000
  S   S174      1.0  0.89247  0.41793  0.30670  1.0000
  H   H522      1.0  0.68215  0.39201  0.51060  1.0000
  S   S175      1.0  0.95249  0.44567  0.24122  1.0000
  C   C525      1.0  0.93849  0.44845  0.09845  1.0000
  C   C526      1.0  0.92144  0.46137  0.07082  1.0000
  S   S176      1.0  0.75620  0.67395  0.33612  1.0000
  C   C527      1.0  0.96346  0.42973  0.08999  1.0000
  H   H523      1.0  0.90225  0.47610  0.07724  1.0000
  H   H524      1.0  0.97696  0.41996  0.11106  1.0000
  C   C528      1.0  0.73832  0.49478  0.39650  1.0000
  C   C529      1.0  0.73876  0.52663  0.39326  1.0000
  C   C530      1.0  0.79320  0.49404  0.39984  1.0000
  C   C531      1.0  0.76561  0.47853  0.39985  1.0000
  H   H525      1.0  0.81422  0.48129  0.40241  1.0000
  H   H526      1.0  0.76553  0.45402  0.40229  1.0000
  C   C532      1.0  0.56267  0.40910  0.27493  1.0000
  C   C533      1.0  0.59042  0.42086  0.28636  1.0000
  C   C534      1.0  0.60875  0.40428  0.31011  1.0000
  C   C535      1.0  0.59937  0.37581  0.32230  1.0000
  C   C536      1.0  0.80168  0.59307  0.50890  1.0000
  C   C537      1.0  0.55368  0.38047  0.28675  1.0000
  H   H527      1.0  0.59777  0.44274  0.27673  1.0000
  H   H528      1.0  0.63008  0.41340  0.31890  1.0000
  S   S177      1.0  0.53947  0.43065  0.24623  1.0000
  C   C538      1.0  0.67867  0.64363  0.29139  1.0000
  C   C539      1.0  0.80258  0.36787  0.31818  1.0000
  C   C540      1.0  0.80993  0.39169  0.34152  1.0000
  C   C541      1.0  0.83777  0.40650  0.33797  1.0000
  C   C542      1.0  0.85827  0.39794  0.31077  1.0000
  H   H529      1.0  0.56155  0.58572  0.05733  1.0000
  H   H530      1.0  0.79430  0.39865  0.36244  1.0000
  H   H531      1.0  0.84344  0.42470  0.35637  1.0000
  C   C543      1.0  0.57693  0.67708  0.10072  1.0000
  S   S178      1.0  0.76803  0.34848  0.32258  1.0000
  Fe  Fe88      1.0  0.57144  0.61236  0.18939  1.0000
  C   C544      1.0  0.70217  0.66236  0.30345  1.0000
  S   S179      1.0  0.56168  0.59703  0.13280  1.0000
  Fe  Fe89      1.0  0.54125  0.61162  0.26310  1.0000
  S   S180      1.0  0.57737  0.64009  0.28829  1.0000
  S   S181      1.0  0.61012  0.64080  0.20834  1.0000
  C   C545      1.0  0.91354  0.37153  0.09295  1.0000
  Fe  Fe90      1.0  0.61018  0.61080  0.25669  1.0000
  S   S182      1.0  0.65098  0.58806  0.28205  1.0000
  S   S183      1.0  0.53535  0.64167  0.21558  1.0000
  S   S184      1.0  0.57425  0.57995  0.23517  1.0000
  Fe  Fe91      1.0  0.82472  0.65291  0.43959  1.0000
  S   S185      1.0  0.86311  0.62230  0.42123  1.0000
  H   H532      1.0  0.93280  0.35571  0.14243  1.0000
  Fe  Fe92      1.0  0.79454  0.65208  0.36641  1.0000
  S   S186      1.0  0.83030  0.62160  0.34159  1.0000
  C   C546      1.0  0.58490  0.58692  0.06566  1.0000
  Fe  Fe93      1.0  0.82698  0.59580  0.39297  1.0000
  S   S187      1.0  0.82867  0.54438  0.39402  1.0000
  Fe  Fe94      1.0  0.86338  0.65057  0.37138  1.0000
  C   C547      1.0  0.60331  0.66476  0.08511  1.0000
  S   S188      1.0  0.78847  0.62401  0.41537  1.0000
  C   C548      1.0  0.81320  0.57214  0.48383  1.0000
  C   C549      1.0  0.85095  0.37413  0.28739  1.0000
  H   H533      1.0  0.53268  0.37095  0.27775  1.0000
  H   H534      1.0  0.58198  0.51471  0.19784  1.0000
  H   H535      1.0  0.86666  0.36733  0.26641  1.0000
  C   C550      1.0  0.92966  0.64821  0.31964  1.0000
  C   C551      1.0  0.92374  0.61743  0.31275  1.0000
  C   C552      1.0  0.94391  0.59984  0.29144  1.0000
  C   C553      1.0  0.82322  0.35902  0.29124  1.0000
  C   C554      1.0  0.97598  0.64365  0.28392  1.0000
  C   C555      1.0  0.97016  0.61284  0.27712  1.0000
  H   H536      1.0  0.90371  0.60716  0.32390  1.0000
  H   H537      1.0  0.93927  0.57603  0.28628  1.0000
  H   H538      1.0  0.84821  0.48620  0.34614  1.0000
  S   S189      1.0  0.96727  0.37656  0.26964  1.0000
  C   C556      1.0  0.67995  0.61218  0.29730  1.0000
  H   H539      1.0  0.88384  0.56326  0.51727  1.0000
  C   C557      1.0  0.57187  0.36397  0.31046  1.0000
  C   C558      1.0  0.72696  0.64982  0.32166  1.0000
  C   C559      1.0  0.72817  0.61837  0.32781  1.0000
  C   C560      1.0  0.70474  0.59960  0.31559  1.0000
  H   H540      1.0  0.74709  0.60856  0.34205  1.0000
  H   H541      1.0  0.70576  0.57534  0.32048  1.0000
  C   C561      1.0  0.59162  0.59182  0.10182  1.0000
  C   C562      1.0  0.62186  0.59333  0.11236  1.0000
  C   C563      1.0  0.95574  0.66126  0.30501  1.0000
  C   C564      1.0  0.97100  0.42361  0.05412  1.0000
  H   H542      1.0  0.62728  0.59701  0.14015  1.0000
  H   H543      1.0  0.55532  0.49957  0.22997  1.0000
  C   C565      1.0  0.76637  0.54211  0.39297  1.0000
  C   C566      1.0  0.79366  0.52582  0.39616  1.0000
  H   H544      1.0  0.71773  0.53933  0.39051  1.0000
  H   H545      1.0  0.76645  0.56653  0.38953  1.0000
  H   H546      1.0  0.85212  0.54539  0.46712  1.0000
  H   H547      1.0  0.54035  0.54596  0.17364  1.0000
  Fe  Fe95      1.0  0.70656  0.36486  0.43718  1.0000
  S   S190      1.0  0.91502  0.38793  0.20801  1.0000
  C   C567      1.0  0.68321  0.37644  0.53280  1.0000
  S   S191      1.0  0.99508  0.59018  0.25052  1.0000
  H   H548      1.0  0.77889  0.60229  0.50620  1.0000
  H   H549      1.0  0.65964  0.65354  0.27741  1.0000
  C   C568      1.0  0.64520  0.59012  0.08680  1.0000
  N   N43       1.0  0.61690  0.52300  0.33963  1.0000
  C   C569      1.0  0.60123  0.49686  0.33278  1.0000
  C   C570      1.0  0.60268  0.55090  0.33807  1.0000
  C   C571      1.0  0.57076  0.49836  0.32270  1.0000
  C   C572      1.0  0.57223  0.55323  0.32836  1.0000
  C   C573      1.0  0.55626  0.52681  0.32041  1.0000
  C   C574      1.0  0.64868  0.52111  0.35052  1.0000
  H   H550      1.0  0.61225  0.47467  0.33507  1.0000
  H   H551      1.0  0.61496  0.57162  0.34396  1.0000
  H   H552      1.0  0.55845  0.47761  0.31684  1.0000
  H   H553      1.0  0.56111  0.57543  0.32691  1.0000
  H   H554      1.0  0.53263  0.52848  0.31271  1.0000
  H   H555      1.0  0.65020  0.52035  0.38009  1.0000
  H   H556      1.0  0.66014  0.50031  0.33940  1.0000
  H   H557      1.0  0.66149  0.54109  0.34075  1.0000
  N   N44       1.0  0.81253  0.49888  0.31159  1.0000
  C   C575      1.0  0.79103  0.47670  0.31164  1.0000
  C   C576      1.0  0.80427  0.52896  0.30835  1.0000
  C   C577      1.0  0.76034  0.48437  0.30812  1.0000
  C   C578      1.0  0.77381  0.53742  0.30433  1.0000
  C   C579      1.0  0.75175  0.51493  0.30433  1.0000
  C   C580      1.0  0.84432  0.49035  0.31732  1.0000
  H   H558      1.0  0.79748  0.45297  0.31518  1.0000
  H   H559      1.0  0.82114  0.54666  0.30999  1.0000
  H   H560      1.0  0.74331  0.46679  0.30938  1.0000
  H   H561      1.0  0.76730  0.56132  0.30237  1.0000
  H   H562      1.0  0.72799  0.52125  0.30234  1.0000
  H   H563      1.0  0.85052  0.46930  0.30197  1.0000
  H   H564      1.0  0.85992  0.50855  0.30865  1.0000
  H   H565      1.0  0.57771  0.47423  0.20204  1.0000
  S   S192      1.0  0.98732  0.39720  0.18761  1.0000
  C   C581      1.0  0.84292  0.56138  0.48686  1.0000
  C   C582      1.0  0.63125  0.67046  0.10069  1.0000
  C   C583      1.0  0.93510  0.35629  0.11364  1.0000
  S   S193      1.0  0.62152  0.35386  0.35159  1.0000
  S   S194      1.0  0.81404  0.67110  0.49515  1.0000
  Fe  Fe96      1.0  0.99305  0.41431  0.24377  1.0000
  H   H566      1.0  0.95598  0.54704  0.20916  1.0000
  Fe  Fe97      1.0  0.95880  0.36140  0.21315  1.0000
  H   H567      1.0  0.53619  0.44887  0.17472  1.0000
  C   C584      1.0  0.87343  0.67043  0.51778  1.0000
  N   N45       1.0  0.84915  0.59198  0.53983  1.0000
  S   S195      1.0  0.90479  0.67130  0.34575  1.0000
  C   C585      1.0  0.96592  0.52364  0.21076  1.0000
  C   C586      1.0  0.56525  0.49648  0.20282  1.0000
  Fe  Fe98      1.0  0.57418  0.66787  0.23824  1.0000
  H   H568      1.0  0.95176  0.50769  0.19497  1.0000
  C   C587      1.0  0.82001  0.60267  0.53703  1.0000
  H   H569      1.0  0.96511  0.51726  0.23937  1.0000
  C   C588      1.0  0.69655  0.34756  0.52819  1.0000
  H   H570      1.0  0.99337  0.56458  0.16952  1.0000
  N   N46       1.0  0.99721  0.52252  0.19742  1.0000
  H   H571      1.0  0.60205  0.65018  0.06159  1.0000
  H   H572      1.0  0.91946  0.66974  0.53660  1.0000
  C   C589      1.0  0.86071  0.57163  0.51518  1.0000
  H   H573      1.0  0.79923  0.56451  0.46187  1.0000
  H   H574      1.0  0.89471  0.38319  0.10626  1.0000
  H   H575      1.0  0.99024  0.40893  0.04775  1.0000
  C   C590      1.0  0.52811  0.47072  0.16499  1.0000
  N   N47       1.0  0.54103  0.49730  0.17629  1.0000
  H   H576      1.0  0.87964  0.66440  0.49061  1.0000
  H   H577      1.0  0.88366  0.40772  0.04933  1.0000
  H   H578      1.0  0.65173  0.66026  0.08928  1.0000
  H   H579      1.0  0.00706  0.48014  0.22258  1.0000
  H   H580      1.0  0.53854  0.66550  0.77191  1.0000
  H   H581      1.0  0.85743  0.62055  0.58551  1.0000
  Fe  Fe99      1.0  0.65371  0.35072  0.68748  1.0000
  S   S196      1.0  0.68096  0.39259  0.80891  1.0000
  N   N48       1.0  0.77050  0.45615  0.81047  1.0000
  Fe  Fe100     1.0  0.93051  0.43718  0.93651  1.0000
  S   S197      1.0  0.89523  0.40612  0.91395  1.0000
  S   S198      1.0  0.96131  0.42414  0.98221  1.0000
  Fe  Fe101     1.0  0.92306  0.48350  0.87668  1.0000
  S   S199      1.0  0.88725  0.45656  0.84869  1.0000
  S   S200      1.0  0.94553  0.52668  0.85843  1.0000
  Fe  Fe102     1.0  0.86912  0.44973  0.90415  1.0000
  S   S201      1.0  0.81912  0.45115  0.91580  1.0000
  Fe  Fe103     1.0  0.91604  0.41513  0.86038  1.0000
  S   S202      1.0  0.93044  0.37969  0.81898  1.0000
  S   S203      1.0  0.90258  0.48008  0.93154  1.0000
  S   S204      1.0  0.95356  0.44273  0.88359  1.0000
  H   H582      1.0  0.94305  0.35869  0.01116  1.0000
  C   C591      1.0  0.72495  0.49565  0.78750  1.0000
  H   H583      1.0  0.79772  0.41576  0.80607  1.0000
  C   C592      1.0  0.57092  0.37773  0.65010  1.0000
  H   H584      1.0  0.88213  0.52750  0.83784  1.0000
  C   C593      1.0  0.75244  0.51172  0.89371  1.0000
  C   C594      1.0  0.76832  0.48514  0.90321  1.0000
  C   C595      1.0  0.79998  0.48415  0.90166  1.0000
  C   C596      1.0  0.81578  0.50958  0.88966  1.0000
  H   H585      1.0  0.72806  0.51202  0.89443  1.0000
  H   H586      1.0  0.75599  0.46537  0.91199  1.0000
  H   H587      1.0  0.84026  0.50886  0.88814  1.0000
  C   C597      1.0  0.66025  0.42399  0.82685  1.0000
  C   C598      1.0  0.63013  0.42974  0.81747  1.0000
  C   C599      1.0  0.61468  0.45560  0.83138  1.0000
  C   C600      1.0  0.62945  0.47615  0.85414  1.0000
  C   C601      1.0  0.65958  0.47041  0.86339  1.0000
  C   C602      1.0  0.67475  0.44419  0.85024  1.0000
  H   H588      1.0  0.61876  0.41427  0.79952  1.0000
  H   H589      1.0  0.59140  0.45988  0.82403  1.0000
  H   H590      1.0  0.67110  0.48589  0.88111  1.0000
  H   H591      1.0  0.69791  0.43972  0.85800  1.0000
  C   C603      1.0  0.65812  0.67044  0.81769  1.0000
  H   H592      1.0  0.51752  0.53190  0.83758  1.0000
  H   H593      1.0  0.71126  0.53066  0.00685  1.0000
  C   C604      1.0  0.78407  0.51374  0.98302  1.0000
  C   C605      1.0  0.67327  0.36571  0.59561  1.0000
  H   H594      1.0  0.73977  0.42023  0.79894  1.0000
  Fe  Fe104     1.0  0.63804  0.54672  0.89326  1.0000
  S   S205      1.0  0.66082  0.57863  0.85528  1.0000
  S   S206      1.0  0.60959  0.50842  0.87126  1.0000
  Fe  Fe105     1.0  0.66059  0.58023  0.95966  1.0000
  S   S207      1.0  0.68563  0.61432  0.92670  1.0000
  S   S208      1.0  0.66858  0.58241  0.01939  1.0000
  Fe  Fe106     1.0  0.64419  0.61575  0.89255  1.0000
  C   C606      1.0  0.54102  0.66911  0.80115  1.0000
  Fe  Fe107     1.0  0.70016  0.57433  0.89257  1.0000
  S   S209      1.0  0.74862  0.57157  0.87281  1.0000
  S   S210      1.0  0.61784  0.58424  0.92792  1.0000
  S   S211      1.0  0.67856  0.53989  0.92817  1.0000
  H   H595      1.0  0.60287  0.58051  0.01221  1.0000
  H   H596      1.0  0.78582  0.42638  0.85092  1.0000
  S   S212      1.0  0.86821  0.61868  0.76468  1.0000
  N   N49       1.0  0.51991  0.50089  0.88123  1.0000
  C   C607      1.0  0.77517  0.48697  0.81054  1.0000
  S   S213      1.0  0.93289  0.65660  0.70555  1.0000
  C   C608      1.0  0.88994  0.59339  0.79081  1.0000
  C   C609      1.0  0.87612  0.56779  0.80574  1.0000
  C   C610      1.0  0.89296  0.54715  0.82648  1.0000
  C   C611      1.0  0.92374  0.55209  0.83249  1.0000
  C   C612      1.0  0.93751  0.57780  0.81776  1.0000
  C   C613      1.0  0.92069  0.59840  0.79693  1.0000
  H   H597      1.0  0.85234  0.56386  0.80115  1.0000
  H   H598      1.0  0.96129  0.58165  0.82227  1.0000
  H   H599      1.0  0.93149  0.61808  0.78553  1.0000
  H   H600      1.0  0.81431  0.54518  0.95824  1.0000
  H   H601      1.0  0.70687  0.51105  0.77940  1.0000
  H   H602      1.0  0.78903  0.60970  0.97441  1.0000
  C   C614      1.0  0.53448  0.52031  0.85473  1.0000
  C   C615      1.0  0.73402  0.53360  0.99635  1.0000
  H   H603      1.0  0.59153  0.39209  0.65041  1.0000
  C   C616      1.0  0.76813  0.53751  0.88277  1.0000
  C   C617      1.0  0.79982  0.53623  0.88011  1.0000
  H   H604      1.0  0.81210  0.55597  0.87111  1.0000
  H   H605      1.0  0.75909  0.60686  0.94178  1.0000
  Fe  Fe108     1.0  0.65924  0.36144  0.76813  1.0000
  H   H606      1.0  0.72968  0.66982  0.81661  1.0000
  H   H607      1.0  0.55256  0.38996  0.63583  1.0000
  H   H608      1.0  0.00222  0.62263  0.83952  1.0000
  H   H609      1.0  0.90224  0.39506  0.00929  1.0000
  H   H610      1.0  0.69949  0.45484  0.77729  1.0000
  H   H611      1.0  0.81092  0.61928  0.55608  1.0000
  S   S214      1.0  0.65824  0.37841  0.63705  1.0000
  H   H612      1.0  0.53397  0.43808  0.93066  1.0000
  C   C618      1.0  0.95320  0.43549  0.02653  1.0000
  H   H613      1.0  0.56288  0.65882  0.81001  1.0000
  C   C619      1.0  0.86807  0.60152  0.56983  1.0000
  C   C620      1.0  0.74245  0.56167  0.98220  1.0000
  N   N50       1.0  0.77080  0.56546  0.96817  1.0000
  H   H614      1.0  0.98734  0.47914  0.93408  1.0000
  C   C621      1.0  0.79354  0.43525  0.82473  1.0000
  C   C622      1.0  0.53532  0.47632  0.89472  1.0000
  Fe  Fe109     1.0  0.89192  0.65919  0.74103  1.0000
  H   H615      1.0  0.72600  0.58030  0.98213  1.0000
  C   C623      1.0  0.75490  0.50941  0.99637  1.0000
  C   C624      1.0  0.67173  0.38549  0.56641  1.0000
  H   H616      1.0  0.80038  0.49494  0.98233  1.0000
  H   H617      1.0  0.68240  0.67835  0.76850  1.0000
  S   S215      1.0  0.62501  0.37616  0.72796  1.0000
  H   H618      1.0  0.79636  0.49617  0.81988  1.0000
  C   C625      1.0  0.77916  0.59502  0.95332  1.0000
  S   S216      1.0  0.62278  0.66107  0.87761  1.0000
  C   C626      1.0  0.77736  0.66136  0.80744  1.0000
  H   H619      1.0  0.66247  0.64608  0.81733  1.0000
  H   H620      1.0  0.75578  0.53169  0.80093  1.0000
  H   H621      1.0  0.54971  0.50660  0.83682  1.0000
  C   C627      1.0  0.00716  0.49117  0.94317  1.0000
  C   C628      1.0  0.75238  0.50719  0.79948  1.0000
  H   H622      1.0  0.77721  0.63859  0.81868  1.0000
  C   C629      1.0  0.74373  0.44464  0.79857  1.0000
  H   H623      1.0  0.74844  0.48731  0.00649  1.0000
  C   C630      1.0  0.52180  0.45774  0.92032  1.0000
  H   H624      1.0  0.91488  0.46418  0.01383  1.0000
  C   C631      1.0  0.72076  0.46416  0.78644  1.0000
  H   H625      1.0  0.81551  0.44676  0.82915  1.0000
  H   H626      1.0  0.52261  0.65685  0.81506  1.0000
  H   H627      1.0  0.66181  0.40807  0.56984  1.0000
  H   H628      1.0  0.87195  0.58210  0.58813  1.0000
  H   H629      1.0  0.55821  0.47095  0.88567  1.0000
  C   C632      1.0  0.79175  0.54218  0.96919  1.0000
  H   H630      1.0  0.79567  0.59199  0.93097  1.0000
  H   H631      1.0  0.87434  0.37102  0.02992  1.0000
  H   H632      1.0  0.54836  0.53778  0.86847  1.0000
  H   H633      1.0  0.99274  0.49018  0.99827  1.0000
  H   H634      1.0  0.00071  0.65230  0.80710  1.0000
  C   C633      1.0  0.89594  0.67350  0.54387  1.0000
  C   C634      1.0  0.89296  0.38714  0.03525  1.0000
  H   H635      1.0  0.56407  0.37471  0.67848  1.0000
  H   H636      1.0  0.87335  0.35759  0.84832  1.0000
  H   H637      1.0  0.99632  0.67687  0.67943  1.0000
  H   H638      1.0  0.82517  0.66011  0.79529  1.0000
  H   H639      1.0  0.60709  0.36730  0.59398  1.0000
  H   H640      1.0  0.00173  0.49286  0.87326  1.0000
  H   H641      1.0  0.89023  0.60985  0.55996  1.0000
  C   C635      1.0  0.92862  0.45475  0.03492  1.0000
  C   C636      1.0  0.80426  0.67339  0.79427  1.0000
  C   C637      1.0  0.60826  0.58405  0.04004  1.0000
  C   C638      1.0  0.90788  0.34789  0.80883  1.0000
  H   H642      1.0  0.97839  0.67644  0.63648  1.0000
  C   C639      1.0  0.94048  0.35778  0.03997  1.0000
  N   N51       1.0  0.57740  0.34823  0.63266  1.0000
  C   C640      1.0  0.59674  0.34674  0.60402  1.0000
  C   C641      1.0  0.75071  0.67882  0.80619  1.0000
  Fe  Fe110     1.0  0.69188  0.85468  0.43702  1.0000
  S   S217      1.0  0.66595  0.89332  0.41181  1.0000
  S   S218      1.0  0.67498  0.82495  0.48193  1.0000
  Fe  Fe111     1.0  0.74291  0.85670  0.38159  1.0000
  S   S219      1.0  0.72157  0.89553  0.35185  1.0000
  S   S220      1.0  0.78575  0.83117  0.36526  1.0000
  Fe  Fe112     1.0  0.71170  0.91484  0.40635  1.0000
  S   S221      1.0  0.71585  0.96492  0.41872  1.0000
  Fe  Fe113     1.0  0.67776  0.87101  0.35931  1.0000
  S   S222      1.0  0.64805  0.86435  0.31104  1.0000
  S   S223      1.0  0.73680  0.87807  0.43595  1.0000
  S   S224      1.0  0.69991  0.83034  0.38461  1.0000
  S   S225      1.0  0.57750  0.71932  0.23771  1.0000
  Fe  Fe114     1.0  0.93540  0.88679  0.18216  1.0000
  S   S226      1.0  0.90906  0.85772  0.22019  1.0000
  S   S227      1.0  0.90665  0.90117  0.13493  1.0000
  C   C642      1.0  0.60581  0.70124  0.14582  1.0000
  S   S228      1.0  0.96495  0.86421  0.27682  1.0000
  C   C643      1.0  0.66209  0.98789  0.28505  1.0000
  Fe  Fe115     1.0  0.95318  0.83363  0.23063  1.0000
  S   S229      1.0  0.95395  0.78260  0.23881  1.0000
  Fe  Fe116     1.0  0.92305  0.89071  0.26251  1.0000
  S   S230      1.0  0.88878  0.91320  0.29970  1.0000
  S   S231      1.0  0.97872  0.85965  0.18888  1.0000
  S   S232      1.0  0.94713  0.92128  0.22437  1.0000
  C   C644      1.0  0.91950  0.90958  0.09126  1.0000
  C   C645      1.0  0.89797  0.91505  0.06454  1.0000
  C   C646      1.0  0.52021  0.82946  0.31875  1.0000
  C   C647      1.0  0.95029  0.91156  0.08275  1.0000
  H   H643      1.0  0.87411  0.91354  0.07088  1.0000
  H   H644      1.0  0.96707  0.90741  0.10308  1.0000
  C   C648      1.0  0.51559  0.72650  0.23377  1.0000
  H   H645      1.0  0.65939  0.94914  0.36306  1.0000
  C   C649      1.0  0.54520  0.77214  0.22696  1.0000
  C   C650      1.0  0.54377  0.74053  0.23220  1.0000
  H   H646      1.0  0.81908  0.90810  0.20761  1.0000
  H   H647      1.0  0.79508  0.75922  0.38957  1.0000
  C   C651      1.0  0.52313  0.97819  0.18529  1.0000
  H   H648      1.0  0.56696  0.78315  0.22583  1.0000
  N   N52       1.0  0.86959  0.73104  0.28450  1.0000
  H   H649      1.0  0.97167  0.71940  0.24265  1.0000
  H   H650      1.0  0.56643  0.84169  0.32732  1.0000
  H   H651      1.0  0.75062  0.80399  0.42700  1.0000
  C   C652      1.0  0.74234  0.98510  0.39344  1.0000
  C   C653      1.0  0.55077  0.70860  0.14629  1.0000
  C   C654      1.0  0.78709  0.98648  0.35559  1.0000
  C   C655      1.0  0.76383  0.96996  0.37188  1.0000
  H   H652      1.0  0.80451  0.97450  0.34051  1.0000
  H   H653      1.0  0.76345  0.94541  0.36919  1.0000
  C   C656      1.0  0.55400  0.90840  0.30111  1.0000
  C   C657      1.0  0.57174  0.91473  0.33114  1.0000
  C   C658      1.0  0.60087  0.90170  0.33441  1.0000
  C   C659      1.0  0.61251  0.88262  0.30735  1.0000
  C   C660      1.0  0.59507  0.87692  0.27694  1.0000
  C   C661      1.0  0.56582  0.88958  0.27393  1.0000
  H   H654      1.0  0.56269  0.92926  0.35229  1.0000
  H   H655      1.0  0.61407  0.90607  0.35805  1.0000
  H   H656      1.0  0.60399  0.86220  0.25589  1.0000
  H   H657      1.0  0.84870  0.89219  0.23531  1.0000
  C   C662      1.0  0.81429  0.85403  0.34691  1.0000
  C   C663      1.0  0.81104  0.88581  0.34637  1.0000
  C   C664      1.0  0.83419  0.90371  0.33206  1.0000
  C   C665      1.0  0.86036  0.88995  0.31745  1.0000
  C   C666      1.0  0.86355  0.85815  0.31763  1.0000
  C   C667      1.0  0.84073  0.84028  0.33288  1.0000
  H   H658      1.0  0.79080  0.89657  0.35726  1.0000
  H   H659      1.0  0.83177  0.92826  0.33213  1.0000
  H   H660      1.0  0.88388  0.84742  0.30679  1.0000
  H   H661      1.0  0.84370  0.81582  0.33412  1.0000
  C   C668      1.0  0.67539  0.83703  0.52715  1.0000
  C   C669      1.0  0.85397  0.75801  0.28920  1.0000
  C   C670      1.0  0.59479  0.78775  0.32040  1.0000
  H   H662      1.0  0.55249  0.88470  0.25058  1.0000
  N   N53       1.0  0.76417  0.75739  0.43290  1.0000
  C   C671      1.0  0.75391  0.78520  0.44522  1.0000
  C   C672      1.0  0.76939  0.73404  0.45616  1.0000
  H   H663      1.0  0.77764  0.93437  0.45923  1.0000
  H   H664      1.0  0.73853  0.81169  0.49102  1.0000
  H   H665      1.0  0.53179  0.70930  0.12701  1.0000
  C   C673      1.0  0.77115  0.75312  0.39486  1.0000
  C   C674      1.0  0.86849  0.99672  0.25149  1.0000
  H   H666      1.0  0.77832  0.71221  0.44666  1.0000
  H   H667      1.0  0.70107  0.68667  0.29869  1.0000
  N   N54       1.0  0.85178  0.93959  0.22603  1.0000
  C   C675      1.0  0.65869  0.96334  0.30816  1.0000
  H   H668      1.0  0.85634  0.99968  0.40681  1.0000
  H   H669      1.0  0.81732  0.94120  0.26615  1.0000
  H   H670      1.0  0.76736  0.72910  0.38620  1.0000
  H   H671      1.0  0.86549  0.77960  0.28643  1.0000
  Fe  Fe117     1.0  0.98816  0.89181  0.23481  1.0000
  H   H672      1.0  0.51771  0.99884  0.28895  1.0000
  H   H673      1.0  0.83152  0.99241  0.28866  1.0000
  C   C676      1.0  0.83587  0.95307  0.25356  1.0000
  H   H674      1.0  0.51978  0.81414  0.22042  1.0000
  C   C677      1.0  0.83945  0.98530  0.41903  1.0000
  H   H675      1.0  0.55445  0.73241  0.15573  1.0000
  H   H676      1.0  0.65996  0.98449  0.25647  1.0000
  C   C678      1.0  0.82300  0.75812  0.29762  1.0000
  H   H677      1.0  0.51755  0.96538  0.23998  1.0000
  C   C679      1.0  0.87572  0.95417  0.21076  1.0000
  C   C680      1.0  0.88452  0.98287  0.22332  1.0000
  H   H678      1.0  0.75631  0.76787  0.37822  1.0000
  C   C681      1.0  0.74734  0.78980  0.48147  1.0000
  C   C682      1.0  0.54264  0.77007  0.31435  1.0000
  C   C683      1.0  0.55117  0.82307  0.32218  1.0000
  H   H679      1.0  0.55126  0.74680  0.31182  1.0000
  N   N55       1.0  0.56211  0.79383  0.31856  1.0000
  H   H680      1.0  0.60128  0.78218  0.34818  1.0000
  H   H681      1.0  0.60150  0.76843  0.30234  1.0000
  C   C684      1.0  0.51145  0.77553  0.31163  1.0000
  C   C685      1.0  0.52680  0.00231  0.16169  1.0000
  C   C686      1.0  0.84391  0.98186  0.26660  1.0000
  H   H682      1.0  0.52891  0.99778  0.13324  1.0000
  C   C687      1.0  0.66160  0.96807  0.34481  1.0000
  H   H683      1.0  0.74654  0.76919  0.53336  1.0000
  C   C688      1.0  0.84356  0.90889  0.21397  1.0000
  C   C689      1.0  0.99018  0.73174  0.23079  1.0000
  H   H684      1.0  0.69775  0.87950  0.51746  1.0000
  H   H685      1.0  0.52228  0.95486  0.17525  1.0000
  H   H686      1.0  0.91378  0.74903  0.29108  1.0000
  H   H687      1.0  0.60797  0.80788  0.31167  1.0000
  C   C690      1.0  0.83999  0.95393  0.41139  1.0000
  H   H688      1.0  0.51418  0.70227  0.23837  1.0000
  S   S233      1.0  0.51709  0.92400  0.29854  1.0000
  C   C691      1.0  0.75183  0.76591  0.50523  1.0000
  C   C692      1.0  0.81779  0.93541  0.42611  1.0000
  H   H689      1.0  0.76735  0.71926  0.51091  1.0000
  C   C693      1.0  0.82405  0.70308  0.29518  1.0000
  C   C694      1.0  0.95936  0.91908  0.04782  1.0000
  C   C695      1.0  0.98713  0.76317  0.22469  1.0000
  H   H690      1.0  0.85642  0.90167  0.18956  1.0000
  C   C696      1.0  0.63257  0.68869  0.13137  1.0000
  H   H691      1.0  0.65396  0.94063  0.29780  1.0000
  C   C697      1.0  0.76322  0.73791  0.49263  1.0000
  H   H692      1.0  0.78402  0.73003  0.30707  1.0000
  C   C698      1.0  0.66779  0.99733  0.35788  1.0000
  H   H693      1.0  0.88847  0.94347  0.18906  1.0000
  H   H694      1.0  0.67020  0.00066  0.38643  1.0000
  H   H695      1.0  0.81064  0.77953  0.30169  1.0000
  H   H696      1.0  0.81761  0.91114  0.41991  1.0000
  C   C699      1.0  0.90182  0.73157  0.27498  1.0000
  C   C700      1.0  0.52033  0.98431  0.22188  1.0000
  H   H697      1.0  0.91320  0.70929  0.28017  1.0000
  C   C701      1.0  0.68817  0.86475  0.53742  1.0000
  C   C702      1.0  0.80803  0.73042  0.30065  1.0000
  C   C703      1.0  0.79549  0.94836  0.44832  1.0000
  C   C704      1.0  0.85498  0.70380  0.28703  1.0000
  H   H698      1.0  0.85718  0.94415  0.39364  1.0000
  N   N56       1.0  0.57851  0.69564  0.13022  1.0000
  H   H699      1.0  0.90464  0.73703  0.24627  1.0000
  H   H700      1.0  0.60697  0.71525  0.16982  1.0000
  H   H701      1.0  0.99684  0.72235  0.33115  1.0000
  C   C705      1.0  0.79568  0.97978  0.45546  1.0000
  S   S234      1.0  0.82772  0.68350  0.39214  1.0000
  H   H702      1.0  0.77785  0.98970  0.47215  1.0000
  H   H703      1.0  0.54391  0.69476  0.16952  1.0000
  N   N57       1.0  0.81730  0.99785  0.44056  1.0000
  H   H704      1.0  0.98699  0.77650  0.31479  1.0000
  H   H705      1.0  0.65411  0.69283  0.14414  1.0000
  C   C706      1.0  0.51851  0.78974  0.22385  1.0000
  H   H706      1.0  0.51184  0.85290  0.32014  1.0000
  H   H707      1.0  0.90389  0.99401  0.21153  1.0000
  H   H708      1.0  0.81257  0.68144  0.29737  1.0000
  H   H709      1.0  0.96029  0.68507  0.30999  1.0000
  H   H710      1.0  0.86729  0.68239  0.28311  1.0000
  Fe  Fe118     1.0  0.65515  0.84193  0.69146  1.0000
  S   S235      1.0  0.62308  0.87010  0.72565  1.0000
  S   S236      1.0  0.67711  0.86668  0.64519  1.0000
  Fe  Fe119     1.0  0.65570  0.78923  0.74490  1.0000
  S   S237      1.0  0.62432  0.81372  0.78325  1.0000
  S   S238      1.0  0.67675  0.74243  0.75417  1.0000
  Fe  Fe120     1.0  0.59849  0.82612  0.73404  1.0000
  S   S239      1.0  0.54741  0.82602  0.73675  1.0000
  Fe  Fe121     1.0  0.65152  0.85541  0.77162  1.0000
  S   S240      1.0  0.66954  0.88702  0.81431  1.0000
  S   S241      1.0  0.62799  0.79893  0.69581  1.0000
  S   S242      1.0  0.68534  0.82985  0.73736  1.0000
  H   H711      1.0  0.77416  0.96382  0.97570  1.0000
  S   S243      1.0  0.92660  0.73132  0.69840  1.0000
  N   N58       1.0  0.00505  0.84926  0.82955  1.0000
  Fe  Fe122     1.0  0.88634  0.72797  0.73500  1.0000
  S   S244      1.0  0.85757  0.76719  0.75646  1.0000
  C   C707      1.0  0.98821  0.82099  0.83451  1.0000
  Fe  Fe123     1.0  0.91832  0.93944  0.93078  1.0000
  S   S245      1.0  0.88679  0.90565  0.90562  1.0000
  S   S246      1.0  0.95021  0.93442  0.97776  1.0000
  Fe  Fe124     1.0  0.91245  0.98421  0.86856  1.0000
  S   S247      1.0  0.88070  0.95441  0.83781  1.0000
  H   H712      1.0  0.98074  0.87339  0.87065  1.0000
  Fe  Fe125     1.0  0.85887  0.94735  0.89142  1.0000
  S   S248      1.0  0.80799  0.94781  0.89665  1.0000
  Fe  Fe126     1.0  0.91064  0.91507  0.85387  1.0000
  S   S249      1.0  0.93147  0.87989  0.81611  1.0000
  S   S250      1.0  0.88832  0.98035  0.92117  1.0000
  S   S251      1.0  0.94442  0.94556  0.87990  1.0000
  H   H713      1.0  0.65313  0.79662  0.54567  1.0000
  H   H714      1.0  0.69841  0.89494  0.58142  1.0000
  C   C708      1.0  0.99127  0.76642  0.63518  1.0000
  C   C709      1.0  0.56556  0.71861  0.80691  1.0000
  H   H715      1.0  0.52066  0.76089  0.65624  1.0000
  C   C710      1.0  0.87801  0.79856  0.77316  1.0000
  C   C711      1.0  0.90865  0.80189  0.76468  1.0000
  C   C712      1.0  0.92451  0.82726  0.77746  1.0000
  C   C713      1.0  0.91012  0.84912  0.79961  1.0000
  C   C714      1.0  0.87951  0.84577  0.80837  1.0000
  C   C715      1.0  0.86343  0.82067  0.79487  1.0000
  H   H716      1.0  0.92001  0.78519  0.74774  1.0000
  H   H717      1.0  0.94798  0.83003  0.76995  1.0000
  H   H718      1.0  0.86822  0.86254  0.82538  1.0000
  H   H719      1.0  0.83972  0.81827  0.80151  1.0000
  C   C716      1.0  0.51087  0.74746  0.82325  1.0000
  C   C717      1.0  0.75869  0.98397  0.88290  1.0000
  C   C718      1.0  0.79033  0.98138  0.88149  1.0000
  C   C719      1.0  0.51255  0.71592  0.81695  1.0000
  C   C720      1.0  0.99952  0.68235  0.65079  1.0000
  H   H720      1.0  0.74539  0.96476  0.89138  1.0000
  C   C721      1.0  0.80407  0.70269  0.77975  1.0000
  S   S252      1.0  0.91723  0.68348  0.61128  1.0000
  Fe  Fe127     1.0  0.94831  0.69800  0.73565  1.0000
  C   C722      1.0  0.54771  0.76349  0.72845  1.0000
  C   C723      1.0  0.66301  0.81812  0.55342  1.0000
  C   C724      1.0  0.73447  0.90119  0.75344  1.0000
  C   C725      1.0  0.75133  0.70804  0.79141  1.0000
  H   H721      1.0  0.54702  0.71448  0.72241  1.0000
  H   H722      1.0  0.57191  0.76492  0.72435  1.0000
  H   H723      1.0  0.72188  0.98284  0.98991  1.0000
  H   H724      1.0  0.97293  0.76075  0.73866  1.0000
  C   C726      1.0  0.66294  0.72022  0.78961  1.0000
  C   C727      1.0  0.54247  0.92995  0.85065  1.0000
  N   N59       1.0  0.00675  0.71473  0.64719  1.0000
  S   S253      1.0  0.60239  0.01196  0.85370  1.0000
  C   C728      1.0  0.63467  0.71517  0.84502  1.0000
  C   C729      1.0  0.64605  0.73345  0.81755  1.0000
  C   C730      1.0  0.98654  0.00056  0.93189  1.0000
  H   H725      1.0  0.75138  0.88345  0.75774  1.0000
  H   H726      1.0  0.76926  0.91170  0.80830  1.0000
  H   H727      1.0  0.64193  0.75778  0.81816  1.0000
  C   C731      1.0  0.65092  0.92203  0.82393  1.0000
  C   C732      1.0  0.62469  0.93103  0.80594  1.0000
  C   C733      1.0  0.61004  0.95882  0.81495  1.0000
  C   C734      1.0  0.62197  0.97806  0.84136  1.0000
  C   C735      1.0  0.64873  0.96948  0.85847  1.0000
  C   C736      1.0  0.66298  0.94143  0.85003  1.0000
  H   H728      1.0  0.61550  0.91643  0.78541  1.0000
  H   H729      1.0  0.58953  0.96548  0.80130  1.0000
  H   H730      1.0  0.65801  0.98399  0.87901  1.0000
  H   H731      1.0  0.68329  0.93465  0.86403  1.0000
  C   C737      1.0  0.67593  0.85466  0.59996  1.0000
  C   C738      1.0  0.66316  0.82693  0.58969  1.0000
  H   H732      1.0  0.70330  0.96298  0.79371  1.0000
  H   H733      1.0  0.96134  0.00247  0.99450  1.0000
  C   C739      1.0  0.68849  0.87346  0.57368  1.0000
  H   H734      1.0  0.65350  0.81225  0.60967  1.0000
  C   C740      1.0  0.64034  0.68359  0.84495  1.0000
  C   C741      1.0  0.93779  0.92442  0.02109  1.0000
  N   N60       1.0  0.51246  0.93826  0.85079  1.0000
  H   H735      1.0  0.78867  0.76627  0.78259  1.0000
  H   H736      1.0  0.96434  0.82609  0.84254  1.0000
  S   S254      1.0  0.90948  0.69762  0.77455  1.0000
  Fe  Fe128     1.0  0.90817  0.68989  0.67062  1.0000
  H   H737      1.0  0.75229  0.94763  0.82021  1.0000
  H   H738      1.0  0.67124  0.96145  0.73990  1.0000
  H   H739      1.0  0.79214  0.75047  0.73823  1.0000
  C   C742      1.0  0.74420  0.01156  0.87418  1.0000
  H   H740      1.0  0.75519  0.75874  0.75642  1.0000
  C   C743      1.0  0.53719  0.76462  0.82135  1.0000
  H   H741      1.0  0.89023  0.92634  0.00925  1.0000
  H   H742      1.0  0.58520  0.76333  0.81080  1.0000
  C   C744      1.0  0.56473  0.75014  0.81320  1.0000
  H   H743      1.0  0.57627  0.89720  0.83196  1.0000
  S   S255      1.0  0.86559  0.68942  0.70382  1.0000
  H   H744      1.0  0.73053  0.72150  0.79065  1.0000
  C   C745      1.0  0.71709  0.90015  0.72240  1.0000
  H   H745      1.0  0.96239  0.72766  0.63024  1.0000
  C   C746      1.0  0.66930  0.68873  0.79003  1.0000
  N   N61       1.0  0.72982  0.92391  0.77830  1.0000
  H   H746      1.0  0.72071  0.88211  0.70266  1.0000
  C   C747      1.0  0.53360  0.73495  0.72744  1.0000
  H   H747      1.0  0.82513  0.71197  0.76983  1.0000
  H   H748      1.0  0.53919  0.86613  0.79836  1.0000
  C   C748      1.0  0.99733  0.76175  0.73841  1.0000
  C   C749      1.0  0.68941  0.94482  0.74308  1.0000
  H   H749      1.0  0.98722  0.80747  0.80927  1.0000
  C   C750      1.0  0.77831  0.75025  0.76316  1.0000
  H   H750      1.0  0.97365  0.78268  0.62798  1.0000
  N   N62       1.0  0.53975  0.70189  0.80935  1.0000
  C   C751      1.0  0.69425  0.92194  0.71740  1.0000
  C   C752      1.0  0.74718  0.92395  0.81151  1.0000
  H   H751      1.0  0.62125  0.72551  0.86630  1.0000
  H   H752      1.0  0.68008  0.92071  0.69387  1.0000
  H   H753      1.0  0.83186  0.00442  0.86926  1.0000
  C   C753      1.0  0.90704  0.92231  0.02957  1.0000
  C   C754      1.0  0.98497  0.73525  0.63682  1.0000
  N   N63       1.0  0.00198  0.00474  0.96305  1.0000
  H   H754      1.0  0.81178  0.68738  0.56944  1.0000
  C   C755      1.0  0.85777  0.68608  0.58844  1.0000
  C   C756      1.0  0.73893  0.99843  0.98040  1.0000
  C   C757      1.0  0.76826  0.98783  0.97284  1.0000
  C   C758      1.0  0.70764  0.94557  0.77345  1.0000
  C   C759      1.0  0.53048  0.79002  0.73497  1.0000
  C   C760      1.0  0.88820  0.68112  0.57930  1.0000
  N   N64       1.0  0.77774  0.71944  0.77805  1.0000
  H   H755      1.0  0.73391  0.91264  0.83283  1.0000
  C   C761      1.0  0.55251  0.90383  0.83194  1.0000
  H   H756      1.0  0.53614  0.78921  0.82509  1.0000
  H   H757      1.0  0.81262  0.99989  0.95400  1.0000
  H   H758      1.0  0.55889  0.94355  0.86498  1.0000
  S   S256      1.0  0.99740  0.70008  0.75157  1.0000
  H   H759      1.0  0.99908  0.80692  0.85539  1.0000
  C   C762      1.0  0.78993  0.00813  0.96061  1.0000
  H   H760      1.0  0.58688  0.70764  0.79944  1.0000
  H   H761      1.0  0.52748  0.70559  0.64484  1.0000
  C   C763      1.0  0.99897  0.87404  0.85108  1.0000
  C   C764      1.0  0.53168  0.88626  0.81329  1.0000
  H   H762      1.0  0.99809  0.80948  0.72505  1.0000
  H   H763      1.0  0.98910  0.99931  0.87432  1.0000
  C   C765      1.0  0.00152  0.00231  0.89895  1.0000
  H   H764      1.0  0.51993  0.98287  0.87229  1.0000
  H   H765      1.0  0.85159  0.69206  0.61564  1.0000
  H   H766      1.0  0.99255  0.97974  0.00980  1.0000
  C   C766      1.0  0.83527  0.68340  0.56222  1.0000
  C   C767      1.0  0.80741  0.00627  0.87046  1.0000
  C   C768      1.0  0.98639  0.00196  0.99751  1.0000
  H   H767      1.0  0.96248  0.99581  0.93233  1.0000
  H   H768      1.0  0.98321  0.92059  0.04147  1.0000
