data_image0
_chemical_formula_structural       CH2C3HFeS2FeSHFeSFeS3FeS2FeS2FeSFeS3FeS2HNH2NCHCH2FeS2FeS2FeSFeS3FeS2HSFeSFeS3FeS2FeSFeS3FeS2FeSHFeCFeS3FeS2FeS2Fe2S2FeS2FeS2HFeHS2HFeSFeS2FeS3FeS2FeNFeS2FeSCFeSFeS3C6H4C6H4C6H4C2NC2HSH2C6H4C6HFeSH4C6H4C6H4CH2C6H2C6H4C6H4C6H4C6H4C2HSC6H4C3H3C6H4C6H4C6H5CH2CHCH2C4H2CFeH2C2HC2NHCHCH5NSCHSHC2HNHCHCH4SHSH2FeH2C4H3C2HCHCH2CHCNH2C2HCH3C3HCH4C2H2SCSH7NSC2NC6H8CHC3HCHC2HCHCH4CNC4SCH2NH3NC6HNH3SNC2HCHCFeCSHCH4CH3CFeC3H2SFeSHNC6H5CHCNC2H5NC6H5CNHCH4CHC7HFeSCH2CH2CH3SC2NC3HCHCH2SCSHCSHC6H6CH3CHCH4CHFeH2SHCNH2C3H3CH2CHCSCH3FeC4H3C2HCSCHC3SFeS2FeSCFeSFeS3CNCSHCHCFeHSC2FeS2FeS2FeSFeS3H2C2FeS2FeS2FeSFeS3HC2SHCNSCFeSFeS2FeSC3H2C6H3C6HC4H3C6H5C4SH3C7H2NCHNCHSC2H2C6H6FeHNC6H4C4H2C3H3FeHCH2NHC5H2C6H4NH2C6H4C2FeHC2HNCHC3H3CH2CH4SHSCHNHCSNC6H3CHCHCH5SCHCHCSHCNH2CHCH2NH2CHC4HC2H3SC2H7NC2H2CH2CNHCH4FeSHCH2SCHC2H3C4H2SNCH3C2H3CH3CH2CH2CH3CH3S2CH3CHC3H2CSH2NC3HCHSCHCH11C2H2CNC4SCFeH2CH2NC3HCH2NHC2FeHC4SHNH3C2SC2H2FeH3SH3CHC3H4C2NH2C2HCH3CH3CH3CFeH2C2S2HC2HCH2FeSFeS2FeSFeS3NH2Fe2SFeSHCSCFeCSFeCS2HCHS2FeSCHSFeHFeSHSCH2CSHFeS2FeS2FeS2FeSFeS3HCSC2SH2FeCFeSHFeSFeS2FeSFeSCSCFeSH2FeS2FeS2FeSFeS3HFeSFeS2FeSFeS4FeSFeSNCFeS2FeCH2CSNCSCHC3HC4H3C8H4C6H4C3SHC2H2C7H4SC8H4C6H4C2HC3H8C7HCHC4H2C6H2CHCHSC2SC6S3H2CHFeCHCFeC3H2C7H4C3H3C6H4CH3C3FeHC7H6C2SHFeH2C2HC2H3C6H4C2NH5C2HCHSHNC6H5FeHCH2CNH2SNCSH2CHCNC2HCHCH2CHSCHNC6H6SH2FeSCS2H2SH2C3FeHSFeHFeCH2CH3NSHC3H2FeC2S2H2NC6H8NCHC2H2CHCHSCNCHC3H2CHCFeCSFeCHCHCSHCNH2FeH2NC2H9SCNC6H9NHCSC4SCNCFeNC6H3CN2CHC2HC2S2H3CH2CHC2HCSCHSC3HCH2CNCH3SCHCH2CH2CHC2S2C2HCH3CH2CHSH3CHSCHC2FeCFeH2CHCHCHFeC4HSCSNHCSH3CFeHFeC2H2CHCSCH4CH2FeH2CFeHCFeH4SH2CS2HCHCH2SH2C3H3C2HC2H5C2SH5NH2C2HCHFeSHC3H2CSHCH2NH2CHCHC2H5C4HCSCH4CH2SCFeS2FeH3CSH2CNHCHSNH2SHC3HFeS2FeS2FeHFeS3HCSFeS2FeSCFeSFeS3CH2FeS2FeS2FeSFeS3CNCHCHFeCSCHFeSHSCH2NH2CH3C2S2H6CH2FeC3HCH2C6HCH2C6H2NH2C4HCNC2HCH2C4HCH3C2HCH2SHSC7H4SCHFeC3H6CHC2H4C5H3CHC3H3C6H6FeH3C8H4C6H3C3HC2H2FeC3HC4HSC2HCH2C3H3CNHFeSC3SNC2NH2CH2CNSCHC4H2CH2CHFeSC2HCHCNHC2HCNHCH2C2HC2HCH2C2H2CH3C2NHSHCH2CHCSHCSNHNCHCSH2CHSH2C2SNCHCH4SCHCFeS2FeHFeS2HS2FeHSHCSCSFeS2FeS2FeSFeS2HS2CFeSHCHFeS2FeS2FeSFeS3FeS2FeS2FeSFeS4H4S2FeS2CSFeSFeS3FeS2FeSHFeHFeSHSC2FeS2FeS2CHFeS3C2HCHFeS2FeSFe2S2C6HCHSCHCHCH3C2HNC6H4C9FeH3C8H2C6H4C2H2C2H2CH2C7H3FeH3C6H4C6H4CHCFeC2HCH2C6H5C6H4C6H4SC6H4C7H5C3H2C6H3C6H2FeHCH2FeH2C2SCS2NC6H7SNC6H8NC5H2CH6CH3CHC5SCNC6H8NC2SHNC2H2CH5C2H9SH4CHS2NHCHCSC2H2CSC2HCSFeHCHC5H2CHCHCNC6H6SN2CSC2H3CH2FeNHNC6H8NC6H9CH2FeH2C2HC2H2C2H2CHCH4CSH2C2NH3CH4C4SHNH2CH3NCNH2SNHCHC2HCHCH2CHSH2FeC2HNFeSH2CHCH2C4H5CFeCHCNCHFeCH3CHCH3C3HC2H6NHC5H2CH2CHCHC2H3C4H3CNCHCH2CH2CS2HCHCHSFeSFeS2FeS2FeS2FeSFeS3FeSFeHFeS3H2FeS2FeS2FeSFeHS2FeS2HSFeSFeS3FeSFeS2HFeS2FeS2FeCFeS3FeS2FeS2CFeS3FeSCFeS2FeSFeS3FeS2FeS2FeSFeS4FeS2FeSCFeS2FeSFeS3HSC2FeC6H4C4HCH3C7H4C4H2CH3CHFeCHC6H4C6H4C6H4C6H2SH3CHCH2CHNHCHC2H3CHSC7H4C6H4C3HC7H4C6H5C13H4C6H5C3H2C6H5CSHSH3C4HCHSFeCH3CFeHFeHCH3C2NSHNC6H8SC4H2C2H2CHCHCHCH3SHNC2H2CH2CHC4HCHC4HCH2SCSHNC5HCH3CN2C3H3CH3CSHCHSHFeHNHCHNSHCHCHCNC3H2NCH3FeHC3HCSHNC5H9NC6H8NC6H8NC6H8NH2C3H2C2H2C3H2NC6H8SC3N2FeHSC3H5FeCHS2HCHC2HCH4CH2FeCHCHCHCH4C3H3C2H2C2SFeS2CHFeS2FeS2FeS3H4SHSFeSFeS2FeS2FeSFeCS2C2H2SH3FeSCH2S2FeSFeS2FeSFeS3HSC2SH2S2FeS2FeS2FeSFeS3CHC4H5C7H2C2H6C6H4CS2CH2C2H2C6H6SNH2CHC7H6C2HCHC8H4C5H4C7H4CH3SCH2SC3H2SHC7H4C4HFeH2C4H3C3H2CSC8H2C2H2CH3CH2CHCH2FeCH3SHC2HCHSCFeC2NC6H9SH4CH3CNHCH6NHC4HSH2FeNHFeH2C4H2SH2CH2FeHC2SC4HCNC3HCFeH2CNCHC6HNSN2C4HNHCH2C2HC2NC6H6CHCSHSHCHNCH2CSCHCH2CHSH2CHC2HSC2HC2HCHSHCHCNHC5NCHCHCFeHC3H2SH2FeC2HC2H2SHNHFeH2FeC4H2C2HFeH2CH4S2FeHCFeH4NCH2FeHSCH2CH2FeHFeS2FeHFeS2HSHCHFeSFeS2Fe2S3FeHSC3FeCSHS2NS2HCH2C2FeS2FeS2FeSFeS4FeSHFeSFeS2C2FeSCFeHCHCH3S2CHFeS2FeSCFeSFeS3FeSCHSHFeSH2SHFeS2FeS2FeSFeCSH2CHFeCHSCFeS2FeS2Fe2S3CS2HC6H5SC8H4CH3CSC4H4C2HCHC2FeCHC6H4SC2HFeSHC3H2C4H2CH2SH2SH2NHC6H3C7H3C7H4C6H4C3H2C4HC3NC6H4SC3NCSH3CH2CH2SC3HC7H4SCHCH3CSC3H3C7H5C3SH4CH2NC2SCFeHCHCH4C3NC6H9CHCH3SHCHFeC2HSCHCH2CHNHSCNS2CH2CHCSCHCH2NSC2H2NC6H3CH3C2HC2H2C2HCHSNC5H4CNC6H10C2H2CHNCHCHNC6H10SHC2H3C2HCHC3H3CHFeHCH2C3H3CSCH2CSH2NHC2H2NCHCHC2FeCHCHCHSC3HCHSCSNC6H8C2H2Fe2SC4NHSNCH2CH3CHCH3CNCNCHSH2SHFeH4CFeSHC2HCSNC2HCHCHC3HNC2H4NCH2FeH5C4HCHCHCSHC2FeCHC3HCHCHC2HC3SHFeCH2FeSCHSCFe2SC4NHFeSH3FeSFeS2FeS2FeS2FeS2FeSFeS3CSHFeS2FeHSHSH2S3CHCSC3HSHC3FeS2FeS2FeSFeS3HCSC6H2FeC7H4C6H5CH2CNHFeC6H4CHCFeC2HNC4NFeH3CHC2HC4H2CH3SFeCHCHCH2CSH2C2H4C7H5CH2NCSCHNH2C6H4CHC2H3CH3CH2C3H2CHNHCHCH2NH4CHSCH2C2FeHCS2H3SHCHSCHNH3C2HCH3NHC3H3CHSH5C4HCH5C2NCSHC5NC2H2C2H2S2C5FeH2NHNC2H2CH2CNHSHSCHCHCHC3H5C2H3FeCHCHFeC2HC2H3CHC2H5NH2C3SCH2CHCH2CHS2FeS2FeSFeS2FeS2FeS2FeSFeS3HC2SH4C2H3FeS2FeS2FeSFeS3FeS2FeCFeSHSHNH2CHFeS2FeS2FeSFeS3FeCSCFeS2FeS2FeS2FeSFeS2FeHSFeCSHFeS3FeS2FeS2FeSFeS3FeS2FeS2FeSFeS3C4H2C6H4C6H4C6H4NCSHSCNC3H2C6H4C6H4C6H4C6HCH2C5H3CNHC6H4C6H4C6H4C7H4CH3SFeHC2H3C6H4C6H4C3HC2H3C7H4C3H2C6H2NC6H8NC6H11CHC2H2CHC3HCHCHCNCHC2HC3H2SCHNHC3HC2NHSHCHCH2CH3CH2NCHNC6H8NCHCSH2NC2H3CH4CHCH3NC2H2CH3CH2NC6H2CH2NH2CH3CHC2HCHNC6H5CHC3H6NC2NC3SNHCSHNH3C2HCHC3H2CH3C2H4CH2CNHCH2C2H2C2SHC2SHC4H4SCH2FeHCHCH2C3HNC6H7SHC2HCHSHCH2SHC2HCH3C3HCHC3NCH7CHCH2CHS2CHCFeH4CH5CHFeC2HC3HCNCH2CH3C2H2C2HCSH3CHNHC4HN2H2CHC3NHFeHSFe2SCSFeS2FeS2FeSFeS3FeS2FeS2FeSFeCS2CHFe2HSC3HFeS2H2C3FeS2FeS2FeSFeS3FeS2FeS2FeSFeS3FeHSHFeSFeSFeS2FeS2FeS2FeS2FeSFeHS2H3SFeS2FeS2FeSCFeCFeS3FeS2FeS2FeSFeS2CFeSC7HCSHC6H4C6H4CNHC3H5CSFeHC5HC6H4SHC7HC3H2C6H4C6H5CHNH2C3HCH2C6H6CHCHC6H4CSH2C3H2SC6H4C7H4C6H4C6H4C6H5C2H5C3H4CSC4HC2H2CSH3C2H4C2HCH5C2HC2HNC2NH2CH10NC3NHC2H2CHNHSHCH3C2HCHCH3CNC6H8NC6H8NC5H5CH2NH4C2H4NC5H2CHCHCHCSNHCHCH2CHCHCHCNC6H2CH6CH5NC2H3NHCSCSH6CSH3CH2CH2C3HNH2C3HCHC2HC6H5CHCNC6H8C4HSC3HCHC2H2CHC2HSHC3HCN2CH3CH4SCFeSHFeS2CHCH2SFeS2FeS2FeSFeS3FeHCHSHFeS2FeHSFeS3HC2FeS2FeS2FeS2FeSFeHS3CSFeS2FeSFeS3CHC3SH2C2SCNHFeSC7H6NC6H8CHC4H3SC3HSH2NC5H3C6H3CHCHC8H3C2HCHC8H4SC2NHNCNHC6H4CHC4H4C6H4SHCH4CHC6H7SH2CH8NCS2HCHCHC2SH2C3NC6H2CHCH3CHCH2FeH2CH2SCH4CFeHC4HCNCH2C3H2FeC2FeC3HCS2H2FeHCHFeHC3HSCHCH6SC2H2C3HCHN2CSHCH3CH4CNH3NH5C2HCHC3H2C3H2SNC4SC2H3FeH9CHCHSNSFeSFeSCFeS2FeS2FeSFeS3CFeS2FeSFeS2FeHSHSHS2CH3C2H3CHSCHC2FeS2HSCFeCHFeSNH3SFeS2FeSFeSFeS2FeSFeS2FeSFeS3NCFeS2FeSCFeSFeHS2FeCFeSHFeS2FeSHFeS2FeSFeS3FeSH2SCFeSFeHFe2S2FeS2FeSHS2H3C2H3SC3H3C4H3CH2C6H4C6H5FeH5CHSH2CHC7H5CHC6H4C4NCHC4H6C5H3C8H5C6H4CH4CHC3HCH5SC5NH2NC3HCH2C3NC6H4C4SCH2CHC6H5C2HC7H3C2HNSCSHCHC6H3SHCHC2SHCH6CSCFeC2H2CH2CHCHCHCHCNFeH7CHC6HCH5CH2C2HCS2CHSH2SNC6H9CH4C2HCHCHC2HCHFeCNS2C2HCNHC2HFeCHCHCHSH3C2HC2H6CNHCHFeH5SC2HCHCSHC7HNC6H8C2S2H2CSHCNFeH3CH2FeCH6C8HCHSH3C2HFeC3SCSCS2HC3NHC2HC4FeC3HFeC2HCH2CHCSC3SCH3NCN2CHCH3NH3C4S2HC3HFe2HC3H2SC2H2C4SCH3FeCH2CS2C2HSFe2S2FeS2FeSFeS4FeSHFeSFeSFeHSHSC3SHC2H2NCH2FeSCFeS2FeSFeS3CHCHSHCSHCHCHFeSHFeS2FeS2FeHFeCS3H3CH3C3H2C6H5SNCSHCHC2SCH3CSC6H4C3NC2H2SH3CSHCHC7H5CHSFeNSH2C6H4C3HFeC2HC2NCH2C6H2CFeSC3HC7H6CHC7H5C4SC2H2CHC2HCH2C2HCH3CHCH2N2HC2H2CH2C2HCSH5CH2CH2CH2C3H2CHCHC4HNC5HCH2C3S2HCH2SHCH3C2H2CHC2HNH3CH2CH2NCH2C2H2CSHNC6H5SC2H7CSH2CHCHFeHCH2C2H2CHNH2CSHCH4CSFe2H2C2H3FeSH3CH5CH2C2H3FeS2FeS2CFeS2FeSFeSFeS3FeS2FeS2FeSFeS3HNHS2FeSHFeS2FeSCS2FeS2FeS2FeSFeS3FeSCFeS2FeSFeS3C2SFeHCFeSHFeS2FeSFeS3FeHSFeS2FeS2H4CFeCHFeS2FeC2FeSFeS2H2FeS2FeS2FeSFeS3C5HCH4C6H6CHC6H5CH5C6H4C2HSHCHC2HC6H4CH2C3H3CHC6H2C6H5C2HC3H2C6H4C6H4C6H5SHC2H2C3H2C6H4C6H4C6H4CH2C6H4FeC2H2C6H4C6H4NC6H8CSH2SCH6SHNH2NC3H3CH3CHCHCSC3HCSH2CNCNC2N2CHCSCHCSFeCSCHC2NH3C2H4CHCH2C3HCHCHC2NC3H4NC6H8SH4CH2C2HSCH2S2C2H2CHCH2CHC2SCNH2CH7C3H3NC2HSC3FeC3HCHC3HCH2CFeH2CHNC2NCHC2HNC3HCHSHCH3NCHCH2C2HNCH4CHFeCSH4CH4C2HC2SHCH2SCH4Fe2S2FeSFe2S3FeS2HS2FeCFeSHSFeS2FeS2FeCFeS3FeS2FeS2FeSFeS3FeS2HCS2FeSCFeS2FeSCFeSFeHS2FeS2FeS2FeSFeS3HSCFeS2H2C2HCFe2S2FeS2FeSFeS3FeS3FeSFeS3HSFeS2FeSFeS3H2C2SFeHC7H4C6H4C6H4C6H4C2N2HFeHC2H2C7H2C6H4C6H4NS2H2C6H4C4H2C2HCHNCHSC6H4C3SC2H3C7H3C6H4C6H5CH2S2HCSCSNC7H4C6H3C2H2C6H2NC6H8CH2C2SC3H2FeNC4HCH3CH3SHSCHC2HC4HC2HNC6H8NCHSCH3NC6H8C4H2C3H4C2H2NC4HCH3CSH3C2H4C2HNH5C2HCHCH2NC6H8NC6H8NC6H8C4HC2H4CH3CHC2H4C2NC2H5CH2C2HCH3FeC2H2CHFeHCHNC2H8CHC5H4C3HSH2NFeHFeC2NH2CHSFeC2HCHC2HCHC2N2H2FeH2CHCHCHCSNH10FeH3C3H2S2HSH2CH2C2H8SH4CHNSC3SHCFeS2FeS2FeSFeS4CFeS2FeS2FeSFeHS2HNH2C2NSCHNSCSFeH3SHSFeS2FeS2FeSFeS3H2CHC3H2C6H3C4H2C6H3CSCHFeC4H3C2H4C2H3C2H3C7FeH2C4H2CHC5HCH4CHCH4C9H4FeC2SCH3CHC5H4CH2NC6H4CHCHSC3HSC2H2CSC4HNCFeCHC3HCHCH4CH2SHCHC3H2C2NC2H9CHC2H2CHNHCNH3CHCH7C6SC3HSC3HC3NHCHC5HNC2HCHCH2CH3CHCH2SCH2CSHCNHC4H4C2H3CH2CHC2HC4HCHCH3C2HCH2FeNCNHSNH3CHCH2CH3CFeS2FeS2FeSHSFeS2HSCFeCFeSHSFe2SH5FeC2SHFeSCH2FeSFeSHCSFeCSH4CSFeS2FeSFeSFeS3FeS2FeCSHCSHSFeS3FeHFeSHFeSH2SFeSFeS2HCHCFeSHFeS2FeSFeSNS2Fe2SC2FeS2FeSHFe2SHSHCHSCFeS2CH2C7H3SC6H6CHC6H3SHFeSH3S4HSNHC2HCHC6H4C6H2SHCHC4H4C6HCH2C2H2C2SH2CHCSC2HFeHCHSHCHCHSC7H4CNCFe2C5H3S2HFeHFeC2SC2H2C2SC4H3CSCSC5H5SH2FeCH2SFeC6SH3C3SH4C6H4SCHCHSHCSCH2FeCHCHFeNSC2HCHCH6NC7H3CH5FeCHSH4C2SHCHCHCHCSFeH2CNC6H2SCH3FeSC4HSHS2C3H2FeC3NCHNC6H8NC6H7C2HSC2H3NHC3SC3Fe2S2NCH2C3HNC2HCHC2HCH5NC6H8C3HNC6H8NC6H11C3H2CHC2SHSNH2SCH2FeHCH2FeH5C5HC2H2CH3CH2CH3SHS2CHCH2NCSHC2NHC2H2SCHNSCNC2FeS2FeS2FeSFeS3H2CH2CHCFeHSHCH2SH2FeS2FeS2FeCFeS5HFeHFeSFeCHSFeS2CFeS2FeS2FeSFeS4C6HSH2C6H4C3H2C6H4C6H3CH3C4NC5NH3SC2HC3HCSHC6H4SH2C2HCHCH2C7HSH2C3H3C5H4C3HC4FeH2C6H4C2HC2HC2NH2CSH5CHCHCH2NH4C2HNCSCSCSNCHFeH2C2FeH2CSNH4CHC6HCHNHSHSHCHC6H2C2HCHC2HC3H2NC2HC2SCHCHC2H3CHC2H2CHSNHC3H2SHSCHCH3FeC2HCHCFeHC3H3SNC6H9CH4CH4CH2CHCH3CH5CHCH3C2HCN2HCHSFeH2CH3C3HSC2FeS2FeSFeSFeS5FeSHFeS2FeSFeS3FeC2HFeCFeHSFeS2FeS2FeHFeS3FeSFeS2Fe2S3HCFeS2FeS2CFeS3FeS2FeCFeS2FeS2FeS2FeSFeS3FeS2FeS2FeSFeS3HS2C2SH2SFeS2FeS2FeSFeS3H2C4H5CFeCSHC6H4C6H4C8H2SC3H2C6H4C2HC6H2C7H4C6H4C7H3C5SHC6H4C6H8CH2C2H2CHC2H2C7H4C6H4C6H4C2HC3H4C6H4C2H2NH2CH5NCHCH2CH2CH2CHNHCSCH3CSCSHFeH2CHSH2CH2CHFeHSH9CHC2HNCSH3CH4NC6H8NC6H6SHSFeSH2CHC2HCNC7H5CHNC6H8NC6H2C3H3CH2C5HSH2SHCH2CNCH3CNC6H8CHCHCHFeCHC2H2CFeNC6H9FeHC3HCHCSHN2C2FeC3HCH2CNHC3HNCNCSH2S2CHCH2CFeH2C2HCHC2H5CH2CSHCH3CH4CHCHFeNCNHC2HCH2
_chemical_formula_sum              "C4608 H4608 Fe768 S1536 N384"
_cell_length_a       83.118
_cell_length_b       84.0837
_cell_length_c       84.209
_cell_angle_alpha    74.1686
_cell_angle_beta     74.1405
_cell_angle_gamma    74.1872

_space_group_name_H-M_alt    "P 1"
_space_group_IT_number       1

loop_
  _space_group_symop_operation_xyz
  'x, y, z'

loop_
  _atom_site_type_symbol
  _atom_site_label
  _atom_site_symmetry_multiplicity
  _atom_site_fract_x
  _atom_site_fract_y
  _atom_site_fract_z
  _atom_site_occupancy
  C   C1        1.0  0.07898  0.30644  0.09101  1.0000
  H   H1        1.0  0.39496  0.38727  0.05489  1.0000
  H   H2        1.0  0.08331  0.32023  0.12374  1.0000
  C   C2        1.0  0.45052  0.46894  0.16145  1.0000
  C   C3        1.0  0.15891  0.10317  0.98852  1.0000
  C   C4        1.0  0.47291  0.36053  0.03569  1.0000
  H   H3        1.0  0.47550  0.31068  0.05809  1.0000
  Fe  Fe1       1.0  0.16475  0.07883  0.05968  1.0000
  S   S1        1.0  0.17958  0.09850  0.05733  1.0000
  S   S2        1.0  0.14802  0.06581  0.08268  1.0000
  Fe  Fe2       1.0  0.17420  0.07967  0.02206  1.0000
  S   S3        1.0  0.18971  0.09922  0.01644  1.0000
  H   H4        1.0  0.31862  0.41465  0.08247  1.0000
  Fe  Fe3       1.0  0.19996  0.08411  0.03938  1.0000
  S   S4        1.0  0.22891  0.07687  0.03539  1.0000
  Fe  Fe4       1.0  0.16807  0.11177  0.03457  1.0000
  S   S5        1.0  0.15617  0.13924  0.02597  1.0000
  S   S6        1.0  0.18594  0.06338  0.04358  1.0000
  S   S7        1.0  0.15177  0.09327  0.03842  1.0000
  Fe  Fe5       1.0  0.03552  0.19404  0.05678  1.0000
  S   S8        1.0  0.02428  0.21756  0.06689  1.0000
  S   S9        1.0  0.01995  0.18053  0.04908  1.0000
  Fe  Fe6       1.0  0.06868  0.18750  0.06917  1.0000
  S   S10       1.0  0.05999  0.21077  0.08020  1.0000
  S   S11       1.0  0.08928  0.16549  0.07747  1.0000
  Fe  Fe7       1.0  0.03469  0.20304  0.08972  1.0000
  S   S12       1.0  0.01827  0.19990  0.11588  1.0000
  Fe  Fe8       1.0  0.05059  0.22321  0.05609  1.0000
  S   S13       1.0  0.05063  0.25008  0.04123  1.0000
  S   S14       1.0  0.04394  0.17926  0.08037  1.0000
  S   S15       1.0  0.06127  0.20030  0.04420  1.0000
  Fe  Fe9       1.0  0.07764  0.10428  0.14817  1.0000
  S   S16       1.0  0.06119  0.09110  0.14142  1.0000
  S   S17       1.0  0.09986  0.11418  0.13010  1.0000
  H   H5        1.0  0.40507  0.42533  0.05648  1.0000
  N   N1        1.0  0.41888  0.00866  0.10680  1.0000
  H   H6        1.0  0.39350  0.41524  0.07648  1.0000
  H   H7        1.0  0.45366  0.32424  0.07985  1.0000
  N   N2        1.0  0.49488  0.32254  0.05873  1.0000
  C   C5        1.0  0.09277  0.39958  0.18339  1.0000
  H   H8        1.0  0.44818  0.47690  0.12300  1.0000
  C   C6        1.0  0.45153  0.42497  0.08198  1.0000
  H   H9        1.0  0.36300  0.99011  0.12282  1.0000
  H   H10       1.0  0.08316  0.18567  0.10374  1.0000
  Fe  Fe10      1.0  0.30046  0.08439  0.07348  1.0000
  S   S18       1.0  0.31703  0.07690  0.04965  1.0000
  S   S19       1.0  0.27155  0.09191  0.07936  1.0000
  Fe  Fe11      1.0  0.33153  0.08109  0.08839  1.0000
  S   S20       1.0  0.35040  0.07326  0.06576  1.0000
  S   S21       1.0  0.33895  0.08415  0.11107  1.0000
  Fe  Fe12      1.0  0.33331  0.09382  0.05088  1.0000
  S   S22       1.0  0.34341  0.11331  0.02873  1.0000
  Fe  Fe13      1.0  0.33236  0.05717  0.06703  1.0000
  S   S23       1.0  0.34065  0.02930  0.06767  1.0000
  S   S24       1.0  0.31548  0.10281  0.07350  1.0000
  S   S25       1.0  0.31460  0.06346  0.09085  1.0000
  Fe  Fe14      1.0  0.41382  0.10438  0.14520  1.0000
  S   S26       1.0  0.43289  0.09259  0.12488  1.0000
  S   S27       1.0  0.39648  0.12957  0.13762  1.0000
  H   H11       1.0  0.14133  0.03303  0.10924  1.0000
  S   S28       1.0  0.44088  0.05887  0.15419  1.0000
  Fe  Fe15      1.0  0.44983  0.08319  0.14364  1.0000
  S   S29       1.0  0.47794  0.08306  0.13747  1.0000
  Fe  Fe16      1.0  0.42177  0.06972  0.13761  1.0000
  S   S30       1.0  0.41542  0.05662  0.12067  1.0000
  S   S31       1.0  0.43169  0.09710  0.16300  1.0000
  S   S32       1.0  0.40182  0.08184  0.15720  1.0000
  Fe  Fe17      1.0  0.40481  0.18383  0.04835  1.0000
  S   S33       1.0  0.37930  0.19768  0.06032  1.0000
  S   S34       1.0  0.42446  0.16774  0.06324  1.0000
  Fe  Fe18      1.0  0.38306  0.21885  0.03767  1.0000
  S   S35       1.0  0.37485  0.24598  0.04076  1.0000
  Fe  Fe19      1.0  0.36918  0.18699  0.04435  1.0000
  S   S36       1.0  0.34791  0.17328  0.05745  1.0000
  S   S37       1.0  0.40968  0.20592  0.02692  1.0000
  S   S38       1.0  0.39452  0.17173  0.03375  1.0000
  Fe  Fe20      1.0  0.40483  0.42140  0.11545  1.0000
  S   S39       1.0  0.38059  0.41936  0.13511  1.0000
  S   S40       1.0  0.42407  0.39900  0.10707  1.0000
  Fe  Fe21      1.0  0.39611  0.45985  0.10748  1.0000
  S   S41       1.0  0.37085  0.46082  0.12582  1.0000
  H   H12       1.0  0.44688  0.36945  0.00375  1.0000
  Fe  Fe22      1.0  0.38563  0.44060  0.14322  1.0000
  C   C7        1.0  0.48461  0.08386  0.15526  1.0000
  Fe  Fe23      1.0  0.36837  0.43976  0.11575  1.0000
  S   S42       1.0  0.34454  0.43710  0.10975  1.0000
  S   S43       1.0  0.41118  0.44077  0.12533  1.0000
  S   S44       1.0  0.39236  0.44058  0.09568  1.0000
  Fe  Fe24      1.0  0.42231  0.31457  0.03990  1.0000
  S   S45       1.0  0.43500  0.33039  0.01624  1.0000
  S   S46       1.0  0.42933  0.28667  0.03969  1.0000
  Fe  Fe25      1.0  0.40777  0.34459  0.05703  1.0000
  S   S47       1.0  0.41943  0.36258  0.03477  1.0000
  S   S48       1.0  0.39076  0.35603  0.07878  1.0000
  Fe  Fe26      1.0  0.41067  0.34989  0.01954  1.0000
  Fe  Fe27      1.0  0.44266  0.34159  0.03353  1.0000
  S   S49       1.0  0.39702  0.33328  0.04188  1.0000
  S   S50       1.0  0.43190  0.32438  0.05716  1.0000
  Fe  Fe28      1.0  0.31675  0.42934  0.01848  1.0000
  S   S51       1.0  0.33615  0.44549  0.00668  1.0000
  S   S52       1.0  0.32392  0.40095  0.02583  1.0000
  Fe  Fe29      1.0  0.28677  0.45935  0.01763  1.0000
  S   S53       1.0  0.30378  0.47797  0.00559  1.0000
  S   S54       1.0  0.25865  0.47110  0.02230  1.0000
  H   H13       1.0  0.37424  0.43968  0.05390  1.0000
  Fe  Fe30      1.0  0.31977  0.46228  0.02422  1.0000
  H   H14       1.0  0.47714  0.37276  0.99776  1.0000
  S   S55       1.0  0.30005  0.44195  0.99980  1.0000
  S   S56       1.0  0.30163  0.44500  0.03765  1.0000
  H   H15       1.0  0.09901  0.30005  0.10491  1.0000
  Fe  Fe31      1.0  0.14389  0.44047  0.08989  1.0000
  S   S57       1.0  0.12975  0.43304  0.11675  1.0000
  Fe  Fe32      1.0  0.17926  0.43773  0.06666  1.0000
  S   S58       1.0  0.16922  0.45455  0.04414  1.0000
  S   S59       1.0  0.20692  0.42450  0.06507  1.0000
  Fe  Fe33      1.0  0.14866  0.43944  0.05311  1.0000
  S   S60       1.0  0.13803  0.43166  0.03513  1.0000
  S   S61       1.0  0.16452  0.45489  0.08438  1.0000
  S   S62       1.0  0.15981  0.42154  0.07438  1.0000
  Fe  Fe34      1.0  0.04883  0.38620  0.14752  1.0000
  S   S63       1.0  0.03016  0.40858  0.13682  1.0000
  S   S64       1.0  0.06720  0.36859  0.13166  1.0000
  Fe  Fe35      1.0  0.04108  0.42300  0.14865  1.0000
  N   N3        1.0  0.29227  0.13421  0.04873  1.0000
  Fe  Fe36      1.0  0.07279  0.35406  0.04721  1.0000
  S   S65       1.0  0.09358  0.33537  0.05866  1.0000
  S   S66       1.0  0.04921  0.36511  0.06482  1.0000
  Fe  Fe37      1.0  0.09277  0.35232  0.01156  1.0000
  S   S67       1.0  0.11522  0.33361  0.02054  1.0000
  C   C8        1.0  0.48671  0.34178  0.07745  1.0000
  Fe  Fe38      1.0  0.09530  0.32082  0.03949  1.0000
  S   S68       1.0  0.09963  0.29241  0.04828  1.0000
  Fe  Fe39      1.0  0.11124  0.35009  0.03883  1.0000
  S   S69       1.0  0.13222  0.35543  0.04752  1.0000
  S   S70       1.0  0.07299  0.33833  0.02931  1.0000
  S   S71       1.0  0.09028  0.36985  0.02849  1.0000
  C   C9        1.0  0.06196  0.36992  0.11247  1.0000
  C   C10       1.0  0.07508  0.36585  0.09882  1.0000
  C   C11       1.0  0.07119  0.36556  0.08374  1.0000
  C   C12       1.0  0.05415  0.36856  0.08248  1.0000
  C   C13       1.0  0.04099  0.37317  0.09596  1.0000
  C   C14       1.0  0.04489  0.37403  0.11090  1.0000
  H   H16       1.0  0.08832  0.36291  0.09988  1.0000
  H   H17       1.0  0.08146  0.36289  0.07317  1.0000
  H   H18       1.0  0.02777  0.37565  0.09502  1.0000
  H   H19       1.0  0.03468  0.37713  0.12146  1.0000
  C   C15       1.0  0.13632  0.41047  0.03889  1.0000
  C   C16       1.0  0.12643  0.40629  0.03018  1.0000
  C   C17       1.0  0.12494  0.38947  0.03285  1.0000
  C   C18       1.0  0.13350  0.37669  0.04412  1.0000
  C   C19       1.0  0.14349  0.38086  0.05273  1.0000
  C   C20       1.0  0.14485  0.39770  0.05017  1.0000
  H   H20       1.0  0.11991  0.41609  0.02132  1.0000
  H   H21       1.0  0.11749  0.38635  0.02590  1.0000
  H   H22       1.0  0.15024  0.37100  0.06136  1.0000
  H   H23       1.0  0.15274  0.40068  0.05675  1.0000
  C   C21       1.0  0.10726  0.43833  0.12124  1.0000
  C   C22       1.0  0.09809  0.44827  0.10897  1.0000
  C   C23       1.0  0.08013  0.45147  0.11277  1.0000
  C   C24       1.0  0.07129  0.44456  0.12878  1.0000
  C   C25       1.0  0.08043  0.43511  0.14121  1.0000
  C   C26       1.0  0.09837  0.43200  0.13743  1.0000
  H   H24       1.0  0.10472  0.45333  0.09652  1.0000
  H   H25       1.0  0.07310  0.45885  0.10314  1.0000
  H   H26       1.0  0.10546  0.42446  0.14693  1.0000
  H   H27       1.0  0.32612  0.37438  0.05746  1.0000
  C   C27       1.0  0.11835  0.11045  0.01307  1.0000
  C   C28       1.0  0.15078  0.03614  0.04106  1.0000
  N   N4        1.0  0.38924  0.13092  0.98872  1.0000
  C   C29       1.0  0.34179  0.39960  0.10153  1.0000
  C   C30       1.0  0.12217  0.15569  0.99815  1.0000
  H   H28       1.0  0.31244  0.14428  0.03043  1.0000
  S   S72       1.0  0.49583  0.46275  0.13945  1.0000
  H   H29       1.0  0.37133  0.10541  0.13349  1.0000
  H   H30       1.0  0.44626  0.18102  0.07888  1.0000
  C   C31       1.0  0.24461  0.45800  0.03472  1.0000
  C   C32       1.0  0.25062  0.44077  0.04087  1.0000
  C   C33       1.0  0.23899  0.43058  0.05054  1.0000
  C   C34       1.0  0.22137  0.43761  0.05406  1.0000
  C   C35       1.0  0.21541  0.45485  0.04800  1.0000
  C   C36       1.0  0.22702  0.46500  0.03831  1.0000
  H   H31       1.0  0.26419  0.43529  0.03809  1.0000
  H   H32       1.0  0.24361  0.41721  0.05519  1.0000
  H   H33       1.0  0.20185  0.46036  0.05071  1.0000
  H   H34       1.0  0.22233  0.47827  0.03349  1.0000
  C   C37       1.0  0.37879  0.37624  0.00420  1.0000
  C   C38       1.0  0.37222  0.39318  0.99735  1.0000
  C   C39       1.0  0.35522  0.40081  0.00365  1.0000
  C   C40       1.0  0.34472  0.39144  0.01660  1.0000
  C   C41       1.0  0.35110  0.37430  0.02283  1.0000
  C   C42       1.0  0.99920  0.21134  0.03944  1.0000
  H   H35       1.0  0.35032  0.41390  0.99839  1.0000
  Fe  Fe40      1.0  0.15272  0.47044  0.06258  1.0000
  S   S73       1.0  0.13112  0.45710  0.06922  1.0000
  H   H36       1.0  0.13975  0.04955  0.06129  1.0000
  H   H37       1.0  0.10796  0.00599  0.07494  1.0000
  H   H38       1.0  0.46332  0.39309  0.09732  1.0000
  H   H39       1.0  0.43053  0.46712  0.10972  1.0000
  C   C43       1.0  0.34073  0.44838  0.08975  1.0000
  C   C44       1.0  0.32738  0.44589  0.08417  1.0000
  C   C45       1.0  0.32469  0.45392  0.06786  1.0000
  C   C46       1.0  0.33500  0.46495  0.05728  1.0000
  C   C47       1.0  0.34798  0.46791  0.06307  1.0000
  C   C48       1.0  0.35098  0.45950  0.07921  1.0000
  H   H40       1.0  0.31897  0.43792  0.09259  1.0000
  H   H41       1.0  0.31437  0.45191  0.06368  1.0000
  H   H42       1.0  0.48776  0.02965  0.12932  1.0000
  H   H43       1.0  0.36106  0.46180  0.08356  1.0000
  C   C49       1.0  0.40046  0.36713  0.08718  1.0000
  C   C50       1.0  0.39007  0.37816  0.09754  1.0000
  C   C51       1.0  0.39726  0.38789  0.10372  1.0000
  C   C52       1.0  0.41499  0.38636  0.09989  1.0000
  C   C53       1.0  0.42549  0.37501  0.08987  1.0000
  C   C54       1.0  0.41823  0.36559  0.08328  1.0000
  H   H44       1.0  0.37642  0.37927  0.10079  1.0000
  H   H45       1.0  0.38907  0.39650  0.11153  1.0000
  H   H46       1.0  0.43922  0.37363  0.08708  1.0000
  H   H47       1.0  0.42637  0.35704  0.07536  1.0000
  C   C55       1.0  0.45931  0.36996  0.04558  1.0000
  H   H48       1.0  0.44645  0.36820  0.04766  1.0000
  H   H49       1.0  0.45189  0.38898  0.06054  1.0000
  C   C56       1.0  0.39016  0.25758  0.03937  1.0000
  C   C57       1.0  0.40769  0.25048  0.03593  1.0000
  C   C58       1.0  0.41956  0.25958  0.03600  1.0000
  C   C59       1.0  0.41400  0.27596  0.03919  1.0000
  C   C60       1.0  0.39650  0.28325  0.04222  1.0000
  C   C61       1.0  0.38461  0.27403  0.04240  1.0000
  H   H50       1.0  0.41210  0.23796  0.03330  1.0000
  H   H51       1.0  0.43310  0.25392  0.03355  1.0000
  C   C62       1.0  0.40443  0.14065  0.11726  1.0000
  C   C63       1.0  0.42191  0.13731  0.10987  1.0000
  C   C64       1.0  0.42794  0.14565  0.09326  1.0000
  C   C65       1.0  0.41650  0.15727  0.08392  1.0000
  C   C66       1.0  0.39905  0.16077  0.09140  1.0000
  C   C67       1.0  0.39306  0.15265  0.10810  1.0000
  H   H52       1.0  0.43086  0.12847  0.11702  1.0000
  H   H53       1.0  0.44149  0.14301  0.08765  1.0000
  H   H54       1.0  0.39010  0.16967  0.08438  1.0000
  H   H55       1.0  0.37953  0.15534  0.11379  1.0000
  C   C68       1.0  0.36026  0.07606  0.11342  1.0000
  C   C69       1.0  0.36402  0.07439  0.12911  1.0000
  C   C70       1.0  0.38091  0.06849  0.13135  1.0000
  C   C71       1.0  0.39420  0.06423  0.11792  1.0000
  C   C72       1.0  0.39047  0.06564  0.10227  1.0000
  C   C73       1.0  0.37355  0.07162  0.10000  1.0000
  H   H56       1.0  0.35379  0.07761  0.13960  1.0000
  H   H57       1.0  0.38352  0.06685  0.14363  1.0000
  H   H58       1.0  0.40071  0.06237  0.09181  1.0000
  H   H59       1.0  0.37086  0.07305  0.08781  1.0000
  C   C74       1.0  0.34911  0.15612  0.04887  1.0000
  C   C75       1.0  0.34691  0.14066  0.05977  1.0000
  C   C76       1.0  0.34634  0.12717  0.05338  1.0000
  C   C77       1.0  0.34691  0.12937  0.03620  1.0000
  C   C78       1.0  0.34935  0.14479  0.02518  1.0000
  C   C79       1.0  0.35081  0.15807  0.03148  1.0000
  H   H60       1.0  0.34546  0.13913  0.07322  1.0000
  H   H61       1.0  0.34522  0.11513  0.06186  1.0000
  H   H62       1.0  0.34974  0.14661  0.01187  1.0000
  H   H63       1.0  0.35232  0.17010  0.02305  1.0000
  C   C80       1.0  0.32383  0.01367  0.02808  1.0000
  C   C81       1.0  0.16173  0.08658  0.98659  1.0000
  C   C82       1.0  0.33009  0.00770  0.05581  1.0000
  C   C83       1.0  0.33434  0.02347  0.05223  1.0000
  C   C84       1.0  0.33325  0.03444  0.03654  1.0000
  C   C85       1.0  0.32815  0.02946  0.02438  1.0000
  H   H64       1.0  0.30448  0.11774  0.03164  1.0000
  H   H65       1.0  0.42882  0.00071  0.12903  1.0000
  H   H66       1.0  0.33662  0.04662  0.03368  1.0000
  H   H67       1.0  0.32743  0.03787  0.01219  1.0000
  C   C86       1.0  0.06207  0.18777  0.12508  1.0000
  C   C87       1.0  0.43792  0.48586  0.11768  1.0000
  H   H68       1.0  0.37105  0.27960  0.04506  1.0000
  S   S74       1.0  0.40037  0.36709  0.99738  1.0000
  C   C88       1.0  0.06323  0.26181  0.04507  1.0000
  C   C89       1.0  0.07766  0.25377  0.05192  1.0000
  C   C90       1.0  0.08851  0.26338  0.05318  1.0000
  C   C91       1.0  0.08494  0.28104  0.04772  1.0000
  C   C92       1.0  0.07019  0.28915  0.04139  1.0000
  C   C93       1.0  0.05941  0.27953  0.04001  1.0000
  H   H69       1.0  0.08074  0.24011  0.05574  1.0000
  H   H70       1.0  0.09992  0.25705  0.05808  1.0000
  H   H71       1.0  0.06733  0.30274  0.03710  1.0000
  H   H72       1.0  0.04823  0.28579  0.03470  1.0000
  C   C94       1.0  0.01767  0.17843  0.12411  1.0000
  C   C95       1.0  0.03268  0.16591  0.12220  1.0000
  C   C96       1.0  0.03219  0.14882  0.12878  1.0000
  H   H73       1.0  0.40975  0.40272  0.06315  1.0000
  H   H74       1.0  0.04478  0.16938  0.11582  1.0000
  H   H75       1.0  0.04393  0.13934  0.12754  1.0000
  C   C97       1.0  0.24020  0.08323  0.04665  1.0000
  C   C98       1.0  0.25807  0.08089  0.04135  1.0000
  C   C99       1.0  0.26779  0.08393  0.05106  1.0000
  C   C100      1.0  0.25967  0.08937  0.06612  1.0000
  C   C101      1.0  0.24175  0.09226  0.07112  1.0000
  C   C102      1.0  0.23202  0.08917  0.06143  1.0000
  H   H76       1.0  0.26447  0.07633  0.02990  1.0000
  H   H77       1.0  0.28155  0.08166  0.04706  1.0000
  H   H78       1.0  0.23539  0.09653  0.08275  1.0000
  H   H79       1.0  0.21825  0.09097  0.06562  1.0000
  C   C103      1.0  0.13367  0.08012  0.09447  1.0000
  C   C104      1.0  0.11873  0.07569  0.10534  1.0000
  C   C105      1.0  0.10815  0.08618  0.11622  1.0000
  C   C106      1.0  0.11240  0.10121  0.11610  1.0000
  C   C107      1.0  0.12700  0.10591  0.10483  1.0000
  C   C108      1.0  0.13761  0.09540  0.09399  1.0000
  H   H80       1.0  0.11557  0.06392  0.10569  1.0000
  H   H81       1.0  0.09697  0.08240  0.12496  1.0000
  H   H82       1.0  0.13031  0.11756  0.10464  1.0000
  H   H83       1.0  0.14911  0.09890  0.08566  1.0000
  C   C109      1.0  0.13762  0.14665  0.04027  1.0000
  C   C110      1.0  0.13268  0.13642  0.05609  1.0000
  C   C111      1.0  0.11782  0.14243  0.06739  1.0000
  C   C112      1.0  0.10760  0.15847  0.06276  1.0000
  C   C113      1.0  0.11232  0.16860  0.04681  1.0000
  C   C114      1.0  0.12748  0.16277  0.03567  1.0000
  H   H84       1.0  0.14048  0.12401  0.05977  1.0000
  H   H85       1.0  0.11432  0.13463  0.07977  1.0000
  H   H86       1.0  0.10457  0.18108  0.04326  1.0000
  H   H87       1.0  0.13141  0.17083  0.02354  1.0000
  H   H88       1.0  0.34599  0.38951  0.11214  1.0000
  C   C115      1.0  0.45980  0.43122  0.10498  1.0000
  H   H89       1.0  0.08596  0.29776  0.08274  1.0000
  H   H90       1.0  0.46796  0.43571  0.12535  1.0000
  C   C116      1.0  0.32947  0.37951  0.06634  1.0000
  H   H91       1.0  0.12257  0.98964  0.06493  1.0000
  C   C117      1.0  0.36814  0.36677  0.01678  1.0000
  H   H92       1.0  0.27577  0.05111  0.08998  1.0000
  H   H93       1.0  0.09145  0.40502  0.17046  1.0000
  C   C118      1.0  0.08942  0.01888  0.12914  1.0000
  C   C119      1.0  0.08800  0.03639  0.12617  1.0000
  C   C120      1.0  0.08048  0.04502  0.13942  1.0000
  C   C121      1.0  0.07447  0.03615  0.15572  1.0000
  H   H94       1.0  0.09272  0.04330  0.11363  1.0000
  H   H95       1.0  0.07968  0.05843  0.13706  1.0000
  C   C122      1.0  0.39924  0.41422  0.06316  1.0000
  Fe  Fe41      1.0  0.39662  0.19516  0.01344  1.0000
  H   H96       1.0  0.14256  0.99884  0.04083  1.0000
  H   H97       1.0  0.25538  0.02584  0.04197  1.0000
  C   C123      1.0  0.07934  0.15652  0.14011  1.0000
  C   C124      1.0  0.40406  0.02073  0.10870  1.0000
  H   H98       1.0  0.40222  0.02963  0.11658  1.0000
  C   C125      1.0  0.36037  0.41247  0.04022  1.0000
  C   C126      1.0  0.46422  0.40250  0.10349  1.0000
  N   N5        1.0  0.45849  0.41936  0.09730  1.0000
  H   H99       1.0  0.15831  0.04537  0.03340  1.0000
  C   C127      1.0  0.01656  0.14406  0.13662  1.0000
  H   H100      1.0  0.10653  0.48128  0.11027  1.0000
  C   C128      1.0  0.32525  0.40208  0.08058  1.0000
  H   H101      1.0  0.37683  0.18066  0.99908  1.0000
  H   H102      1.0  0.37957  0.03171  0.10174  1.0000
  H   H103      1.0  0.06791  0.26932  0.00526  1.0000
  H   H104      1.0  0.38338  0.01089  0.08408  1.0000
  H   H105      1.0  0.10196  0.30274  0.01084  1.0000
  N   N6        1.0  0.33741  0.39258  0.08952  1.0000
  S   S75       1.0  0.06095  0.40090  0.15769  1.0000
  C   C129      1.0  0.34603  0.37687  0.08674  1.0000
  H   H106      1.0  0.34295  0.36677  0.03240  1.0000
  S   S76       1.0  0.37018  0.20953  0.02270  1.0000
  H   H107      1.0  0.22944  0.44361  0.01337  1.0000
  C   C130      1.0  0.07787  0.17972  0.11658  1.0000
  C   C131      1.0  0.42757  0.45146  0.15935  1.0000
  H   H108      1.0  0.12338  0.41730  0.07544  1.0000
  N   N7        1.0  0.08640  0.16442  0.12422  1.0000
  H   H109      1.0  0.46208  0.07721  0.17301  1.0000
  C   C132      1.0  0.11877  0.48406  0.10189  1.0000
  H   H110      1.0  0.11531  0.30175  0.99006  1.0000
  C   C133      1.0  0.47037  0.33833  0.08274  1.0000
  H   H111      1.0  0.32088  0.99096  0.04680  1.0000
  H   H112      1.0  0.33060  0.40852  0.10732  1.0000
  H   H113      1.0  0.40065  0.41144  0.17044  1.0000
  H   H114      1.0  0.08586  0.14414  0.14597  1.0000
  S   S77       1.0  0.33223  0.47487  0.03663  1.0000
  H   H115      1.0  0.33065  0.99928  0.06799  1.0000
  S   S78       1.0  0.38125  0.44607  0.16906  1.0000
  H   H116      1.0  0.14283  0.07368  0.13704  1.0000
  H   H117      1.0  0.29482  0.03360  0.04367  1.0000
  Fe  Fe42      1.0  0.01287  0.40335  0.16237  1.0000
  H   H118      1.0  0.17917  0.48876  0.04037  1.0000
  H   H119      1.0  0.45651  0.35290  0.99208  1.0000
  C   C134      1.0  0.08472  0.28626  0.00150  1.0000
  C   C135      1.0  0.07873  0.40529  0.07737  1.0000
  C   C136      1.0  0.07199  0.41246  0.10463  1.0000
  C   C137      1.0  0.06667  0.40923  0.09170  1.0000
  H   H120      1.0  0.07478  0.40239  0.06739  1.0000
  H   H121      1.0  0.06280  0.41552  0.11585  1.0000
  H   H122      1.0  0.05326  0.40947  0.09295  1.0000
  C   C138      1.0  0.37266  0.39787  0.04430  1.0000
  C   C139      1.0  0.47914  0.38347  0.05094  1.0000
  H   H123      1.0  0.35041  0.41216  0.03435  1.0000
  C   C140      1.0  0.39329  0.01022  0.09055  1.0000
  H   H124      1.0  0.37240  0.38606  0.04154  1.0000
  C   C141      1.0  0.10275  0.15599  0.11501  1.0000
  H   H125      1.0  0.38066  0.12443  0.01550  1.0000
  H   H126      1.0  0.43822  0.36902  0.98662  1.0000
  C   C142      1.0  0.12171  0.99988  0.07135  1.0000
  H   H127      1.0  0.44759  0.42903  0.16282  1.0000
  C   C143      1.0  0.07762  0.31889  0.11413  1.0000
  N   N8        1.0  0.10105  0.40811  0.08884  1.0000
  H   H128      1.0  0.10233  0.04894  0.16799  1.0000
  H   H129      1.0  0.32625  0.40787  0.98579  1.0000
  C   C144      1.0  0.39113  0.02184  0.10046  1.0000
  C   C145      1.0  0.00145  0.15652  0.13825  1.0000
  H   H130      1.0  0.31124  0.40311  0.06198  1.0000
  C   C146      1.0  0.46703  0.27882  0.00646  1.0000
  H   H131      1.0  0.08887  0.12194  0.08882  1.0000
  H   H132      1.0  0.41863  0.44454  0.15859  1.0000
  H   H133      1.0  0.26817  0.48432  0.04612  1.0000
  C   C147      1.0  0.42102  0.99709  0.09728  1.0000
  C   C148      1.0  0.43210  0.00769  0.11574  1.0000
  C   C149      1.0  0.46637  0.32692  0.07589  1.0000
  H   H134      1.0  0.45555  0.44458  0.09985  1.0000
  C   C150      1.0  0.38901  0.21253  0.09237  1.0000
  H   H135      1.0  0.35221  0.40657  0.09500  1.0000
  H   H136      1.0  0.46181  0.27179  0.01884  1.0000
  H   H137      1.0  0.14739  0.01622  0.12668  1.0000
  H   H138      1.0  0.44268  0.29481  0.00320  1.0000
  C   C151      1.0  0.46672  0.42628  0.11942  1.0000
  C   C152      1.0  0.28122  0.13467  0.06407  1.0000
  H   H139      1.0  0.27367  0.14496  0.08652  1.0000
  H   H140      1.0  0.30031  0.04122  0.06777  1.0000
  S   S79       1.0  0.02180  0.42016  0.17326  1.0000
  C   C153      1.0  0.40571  0.47761  0.15531  1.0000
  S   S80       1.0  0.06607  0.04634  0.17287  1.0000
  H   H141      1.0  0.27185  0.12675  0.06877  1.0000
  H   H142      1.0  0.21134  0.46104  0.01244  1.0000
  H   H143      1.0  0.46847  0.44496  0.16390  1.0000
  H   H144      1.0  0.10960  0.16526  0.10534  1.0000
  H   H145      1.0  0.49295  0.26468  0.00613  1.0000
  H   H146      1.0  0.10041  0.14733  0.10843  1.0000
  H   H147      1.0  0.01016  0.21675  0.03757  1.0000
  N   N9        1.0  0.13159  0.01243  0.06068  1.0000
  S   S81       1.0  0.40725  0.19489  0.98590  1.0000
  C   C154      1.0  0.47115  0.39712  0.11794  1.0000
  C   C155      1.0  0.05487  0.17990  0.14135  1.0000
  N   N10       1.0  0.37731  0.11865  0.10770  1.0000
  C   C156      1.0  0.37195  0.13112  0.09476  1.0000
  C   C157      1.0  0.39382  0.10951  0.10560  1.0000
  C   C158      1.0  0.38334  0.13498  0.07932  1.0000
  C   C159      1.0  0.40559  0.11310  0.09037  1.0000
  C   C160      1.0  0.40032  0.12601  0.07721  1.0000
  C   C161      1.0  0.36526  0.11555  0.12398  1.0000
  H   H148      1.0  0.35889  0.13844  0.09649  1.0000
  H   H149      1.0  0.39810  0.09968  0.11587  1.0000
  H   H150      1.0  0.37912  0.14522  0.06928  1.0000
  H   H151      1.0  0.41880  0.10617  0.08901  1.0000
  H   H152      1.0  0.40947  0.12934  0.06557  1.0000
  H   H153      1.0  0.36083  0.12718  0.12919  1.0000
  H   H154      1.0  0.35413  0.11166  0.12238  1.0000
  H   H155      1.0  0.35167  0.43904  0.04020  1.0000
  C   C162      1.0  0.08641  0.30763  0.10357  1.0000
  H   H156      1.0  0.10532  0.40168  0.06498  1.0000
  C   C163      1.0  0.13082  0.02640  0.06644  1.0000
  C   C164      1.0  0.46240  0.38163  0.05296  1.0000
  C   C165      1.0  0.40118  0.13759  0.00848  1.0000
  H   H157      1.0  0.11263  0.16197  0.00789  1.0000
  C   C166      1.0  0.11865  0.03769  0.14734  1.0000
  H   H158      1.0  0.46112  0.43012  0.07111  1.0000
  C   C167      1.0  0.11335  0.04964  0.15750  1.0000
  C   C168      1.0  0.39197  0.43151  0.18413  1.0000
  H   H159      1.0  0.08451  0.37705  0.18425  1.0000
  C   C169      1.0  0.43389  0.47727  0.15957  1.0000
  H   H160      1.0  0.11175  0.02763  0.15027  1.0000
  C   C170      1.0  0.11914  0.40792  0.08698  1.0000
  H   H161      1.0  0.10006  0.32098  0.99398  1.0000
  H   H162      1.0  0.38039  0.40051  0.98748  1.0000
  H   H163      1.0  0.35589  0.47657  0.05498  1.0000
  H   H164      1.0  0.09333  0.41394  0.11332  1.0000
  C   C171      1.0  0.11225  0.10817  0.00014  1.0000
  N   N11       1.0  0.42368  0.20078  0.08005  1.0000
  C   C172      1.0  0.41543  0.19208  0.09489  1.0000
  C   C173      1.0  0.41508  0.21548  0.07150  1.0000
  C   C174      1.0  0.39795  0.19772  0.10119  1.0000
  C   C175      1.0  0.39763  0.22156  0.07750  1.0000
  S   S82       1.0  0.17018  0.06967  0.00160  1.0000
  C   C176      1.0  0.44196  0.19470  0.07344  1.0000
  H   H165      1.0  0.42169  0.22250  0.05989  1.0000
  H   H166      1.0  0.44847  0.41430  0.07876  1.0000
  N   N12       1.0  0.08939  0.30112  0.99250  1.0000
  H   H167      1.0  0.11748  0.48732  0.08852  1.0000
  H   H168      1.0  0.44452  0.19588  0.05954  1.0000
  H   H169      1.0  0.44965  0.20207  0.07632  1.0000
  N   N13       1.0  0.26775  0.03823  0.05254  1.0000
  C   C177      1.0  0.25419  0.04347  0.06480  1.0000
  C   C178      1.0  0.28413  0.03738  0.05354  1.0000
  C   C179      1.0  0.25688  0.04793  0.07857  1.0000
  C   C180      1.0  0.28730  0.04170  0.06715  1.0000
  C   C181      1.0  0.27355  0.04707  0.07970  1.0000
  C   C182      1.0  0.26451  0.03442  0.03785  1.0000
  H   H170      1.0  0.24117  0.04488  0.06359  1.0000
  N   N14       1.0  0.13200  0.03894  0.13363  1.0000
  H   H171      1.0  0.24607  0.05271  0.08791  1.0000
  H   H172      1.0  0.15170  0.05224  0.11945  1.0000
  H   H173      1.0  0.39076  0.23309  0.07055  1.0000
  S   S83       1.0  0.48303  0.39690  0.06156  1.0000
  N   N15       1.0  0.11844  0.13941  0.99889  1.0000
  C   C183      1.0  0.48952  0.36300  0.03299  1.0000
  C   C184      1.0  0.10234  0.30690  0.99702  1.0000
  H   H174      1.0  0.09062  0.27863  0.01192  1.0000
  C   C185      1.0  0.47421  0.08048  0.17140  1.0000
  H   H175      1.0  0.12151  0.41129  0.09791  1.0000
  C   C186      1.0  0.13615  0.06341  0.14023  1.0000
  Fe  Fe43      1.0  0.31830  0.45949  0.98927  1.0000
  C   C187      1.0  0.12209  0.06266  0.15380  1.0000
  S   S84       1.0  0.31714  0.00740  0.01321  1.0000
  H   H176      1.0  0.35584  0.36936  0.09361  1.0000
  C   C188      1.0  0.00206  0.17371  0.13233  1.0000
  H   H177      1.0  0.12657  0.99392  0.08313  1.0000
  H   H178      1.0  0.29516  0.16325  0.07596  1.0000
  H   H179      1.0  0.47567  0.38375  0.12283  1.0000
  H   H180      1.0  0.35309  0.00264  0.00147  1.0000
  C   C189      1.0  0.30380  0.14451  0.04267  1.0000
  H   H181      1.0  0.40103  0.13756  0.02141  1.0000
  H   H182      1.0  0.12653  0.12786  0.02213  1.0000
  H   H183      1.0  0.28344  0.13024  0.02906  1.0000
  C   C190      1.0  0.45627  0.29195  0.99756  1.0000
  Fe  Fe44      1.0  0.06165  0.07483  0.16741  1.0000
  C   C191      1.0  0.14035  0.03849  0.05670  1.0000
  C   C192      1.0  0.14107  0.05127  0.13031  1.0000
  C   C193      1.0  0.36072  0.99010  0.00523  1.0000
  H   H184      1.0  0.37296  0.35354  0.02167  1.0000
  H   H185      1.0  0.47818  0.40502  0.13688  1.0000
  S   S85       1.0  0.05557  0.12301  0.15900  1.0000
  Fe  Fe45      1.0  0.03914  0.10834  0.15461  1.0000
  S   S86       1.0  0.40254  0.48495  0.09334  1.0000
  H   H186      1.0  0.27644  0.02805  0.03012  1.0000
  N   N16       1.0  0.06189  0.12931  0.09022  1.0000
  C   C194      1.0  0.06317  0.13878  0.07407  1.0000
  C   C195      1.0  0.04664  0.12525  0.09933  1.0000
  C   C196      1.0  0.04897  0.14427  0.06655  1.0000
  C   C197      1.0  0.03211  0.13079  0.09231  1.0000
  C   C198      1.0  0.03332  0.14037  0.07580  1.0000
  C   C199      1.0  0.07664  0.12451  0.09817  1.0000
  H   H187      1.0  0.07511  0.14251  0.06707  1.0000
  H   H188      1.0  0.04549  0.11797  0.11224  1.0000
  H   H189      1.0  0.04988  0.15212  0.05387  1.0000
  H   H190      1.0  0.01998  0.12785  0.09979  1.0000
  H   H191      1.0  0.02212  0.14509  0.07023  1.0000
  C   C200      1.0  0.38112  0.18069  0.98573  1.0000
  H   H192      1.0  0.07689  0.13493  0.10380  1.0000
  C   C201      1.0  0.45558  0.45151  0.16247  1.0000
  N   N17       1.0  0.06348  0.31660  0.08869  1.0000
  C   C202      1.0  0.05461  0.32739  0.09923  1.0000
  C   C203      1.0  0.05604  0.31555  0.07520  1.0000
  H   H193      1.0  0.04234  0.33549  0.09737  1.0000
  H   H194      1.0  0.05458  0.33740  0.12032  1.0000
  H   H195      1.0  0.06620  0.31141  0.06456  1.0000
  H   H196      1.0  0.04751  0.30638  0.08014  1.0000
  H   H197      1.0  0.04866  0.32817  0.06987  1.0000
  N   N18       1.0  0.20602  0.43757  0.01312  1.0000
  C   C204      1.0  0.19176  0.44192  0.00642  1.0000
  C   C205      1.0  0.20896  0.42284  0.02490  1.0000
  C   C206      1.0  0.18005  0.43135  0.01143  1.0000
  C   C207      1.0  0.19740  0.41209  0.03034  1.0000
  C   C208      1.0  0.18293  0.41635  0.02346  1.0000
  C   C209      1.0  0.21782  0.44913  0.00795  1.0000
  H   H198      1.0  0.18922  0.45376  0.99737  1.0000
  H   H199      1.0  0.22008  0.41946  0.03046  1.0000
  H   H200      1.0  0.16852  0.43494  0.00642  1.0000
  H   H201      1.0  0.19951  0.40072  0.04010  1.0000
  H   H202      1.0  0.17379  0.40821  0.02761  1.0000
  C   C210      1.0  0.48448  0.27486  0.99934  1.0000
  N   N19       1.0  0.48751  0.02577  0.15526  1.0000
  H   H203      1.0  0.45951  0.47602  0.16187  1.0000
  C   C211      1.0  0.32100  0.39564  0.06897  1.0000
  H   H204      1.0  0.43946  0.43468  0.08379  1.0000
  H   H205      1.0  0.46319  0.01887  0.16347  1.0000
  H   H206      1.0  0.07619  0.11285  0.10826  1.0000
  H   H207      1.0  0.05513  0.19976  0.11893  1.0000
  C   C212      1.0  0.15154  0.02180  0.03534  1.0000
  H   H208      1.0  0.28582  0.11217  0.04635  1.0000
  C   C213      1.0  0.47244  0.40910  0.12590  1.0000
  C   C214      1.0  0.00062  0.19384  0.04477  1.0000
  C   C215      1.0  0.30490  0.15518  0.05233  1.0000
  C   C216      1.0  0.12138  0.12626  0.01225  1.0000
  C   C217      1.0  0.42790  0.48027  0.11026  1.0000
  C   C218      1.0  0.13695  0.02677  0.12265  1.0000
  C   C219      1.0  0.06354  0.16418  0.14895  1.0000
  H   H209      1.0  0.12704  0.39512  0.08589  1.0000
  Fe  Fe46      1.0  0.42188  0.07308  0.17288  1.0000
  S   S87       1.0  0.09953  0.00818  0.11257  1.0000
  C   C220      1.0  0.29414  0.15527  0.06824  1.0000
  H   H210      1.0  0.25890  0.04635  0.02970  1.0000
  H   H211      1.0  0.37539  0.21697  0.09693  1.0000
  C   C221      1.0  0.49200  0.01933  0.13975  1.0000
  H   H212      1.0  0.11043  0.09583  0.00030  1.0000
  H   H213      1.0  0.36589  0.99632  0.02635  1.0000
  C   C222      1.0  0.34224  0.37011  0.07509  1.0000
  H   H214      1.0  0.42138  0.15145  0.99755  1.0000
  H   H215      1.0  0.39136  0.19045  0.11267  1.0000
  H   H216      1.0  0.48997  0.35069  0.08258  1.0000
  S   S88       1.0  0.03067  0.37951  0.17217  1.0000
  C   C223      1.0  0.29143  0.12309  0.03840  1.0000
  C   C224      1.0  0.28213  0.14503  0.07415  1.0000
  N   N20       1.0  0.38600  0.41355  0.05504  1.0000
  C   C225      1.0  0.37391  0.42788  0.05120  1.0000
  C   C226      1.0  0.38544  0.39865  0.05179  1.0000
  C   C227      1.0  0.36102  0.42758  0.04360  1.0000
  H   H217      1.0  0.39209  0.29585  0.04473  1.0000
  C   C228      1.0  0.08335  0.01001  0.14540  1.0000
  H   H218      1.0  0.34917  0.35764  0.07292  1.0000
  C   C229      1.0  0.06149  0.32861  0.11216  1.0000
  H   H219      1.0  0.42222  0.18042  0.10170  1.0000
  H   H220      1.0  0.11788  0.07226  0.16132  1.0000
  S   S89       1.0  0.46962  0.34542  0.02674  1.0000
  C   C230      1.0  0.14178  0.01001  0.04536  1.0000
  S   S90       1.0  0.01581  0.12257  0.14410  1.0000
  H   H221      1.0  0.11132  0.14841  0.12372  1.0000
  C   C231      1.0  0.09599  0.40479  0.07613  1.0000
  S   S91       1.0  0.04901  0.44693  0.13283  1.0000
  H   H222      1.0  0.07359  0.43034  0.15377  1.0000
  C   C232      1.0  0.32467  0.00290  0.04381  1.0000
  C   C233      1.0  0.07596  0.01863  0.15866  1.0000
  C   C234      1.0  0.08934  0.41166  0.10307  1.0000
  C   C235      1.0  0.40827  0.99769  0.08902  1.0000
  C   C236      1.0  0.49265  0.37431  0.04074  1.0000
  C   C237      1.0  0.47883  0.31916  0.06374  1.0000
  H   H223      1.0  0.06351  0.35145  0.99566  1.0000
  H   H224      1.0  0.48584  0.00860  0.14150  1.0000
  H   H225      1.0  0.31421  0.16318  0.04760  1.0000
  H   H226      1.0  0.12115  0.09992  0.02342  1.0000
  H   H227      1.0  0.44490  0.00109  0.10964  1.0000
  H   H228      1.0  0.40193  0.47244  0.14636  1.0000
  C   C238      1.0  0.38957  0.13033  0.00504  1.0000
  H   H229      1.0  0.12592  0.02144  0.12304  1.0000
  H   H230      1.0  0.16176  0.10561  0.99928  1.0000
  H   H231      1.0  0.46081  0.34457  0.09204  1.0000
  C   C239      1.0  0.07200  0.28083  0.99767  1.0000
  H   H232      1.0  0.33145  0.99404  0.09792  1.0000
  C   C240      1.0  0.44396  0.44264  0.16165  1.0000
  H   H233      1.0  0.47759  0.48604  0.11530  1.0000
  H   H234      1.0  0.22210  0.45215  0.99397  1.0000
  H   H235      1.0  0.15970  0.01977  0.02325  1.0000
  H   H236      1.0  0.12282  0.02820  0.07867  1.0000
  C   C241      1.0  0.49414  0.04028  0.17281  1.0000
  H   H237      1.0  0.08443  0.99649  0.14778  1.0000
  Fe  Fe47      1.0  0.04084  0.39667  0.18138  1.0000
  H   H238      1.0  0.07138  0.01171  0.17125  1.0000
  H   H239      1.0  0.43323  0.02059  0.11576  1.0000
  S   S92       1.0  0.07975  0.08698  0.17331  1.0000
  H   H240      1.0  0.13518  0.15371  0.00052  1.0000
  C   C242      1.0  0.47202  0.02474  0.16611  1.0000
  N   N21       1.0  0.42286  0.46861  0.15798  1.0000
  H   H241      1.0  0.35388  0.99339  0.08901  1.0000
  H   H242      1.0  0.05792  0.15783  0.16152  1.0000
  C   C243      1.0  0.45034  0.36652  0.99100  1.0000
  C   C244      1.0  0.46723  0.03145  0.18063  1.0000
  C   C245      1.0  0.49563  0.08444  0.18376  1.0000
  H   H243      1.0  0.49401  0.48398  0.09641  1.0000
  H   H244      1.0  0.00457  0.18498  0.09089  1.0000
  H   H245      1.0  0.37028  0.11583  0.99632  1.0000
  C   C246      1.0  0.40020  0.41516  0.18192  1.0000
  H   H246      1.0  0.34245  0.00537  0.10500  1.0000
  H   H247      1.0  0.11383  0.42429  0.17616  1.0000
  C   C247      1.0  0.34385  0.99352  0.10084  1.0000
  H   H248      1.0  0.04236  0.18578  0.14782  1.0000
  C   C248      1.0  0.41268  0.14524  0.99512  1.0000
  S   S93       1.0  0.03783  0.09097  0.18022  1.0000
  C   C249      1.0  0.10068  0.42534  0.18415  1.0000
  H   H249      1.0  0.09128  0.43258  0.17617  1.0000
  H   H250      1.0  0.12870  0.47220  0.10384  1.0000
  H   H251      1.0  0.39621  0.47617  0.16751  1.0000
  Fe  Fe48      1.0  0.05596  0.10458  0.18381  1.0000
  C   C250      1.0  0.47842  0.03920  0.18399  1.0000
  C   C251      1.0  0.11205  0.13741  0.98637  1.0000
  C   C252      1.0  0.10894  0.12175  0.98676  1.0000
  C   C253      1.0  0.49846  0.03358  0.15834  1.0000
  H   H252      1.0  0.12199  0.16430  0.98554  1.0000
  H   H253      1.0  0.36109  0.16926  0.98500  1.0000
  H   H254      1.0  0.34120  0.99018  0.98535  1.0000
  C   C254      1.0  0.47558  0.37853  0.98491  1.0000
  C   C255      1.0  0.37587  0.12490  0.98521  1.0000
  H   H255      1.0  0.04074  0.07366  0.28193  1.0000
  C   C256      1.0  0.22382  0.99140  0.38349  1.0000
  S   S94       1.0  0.05094  0.11845  0.20474  1.0000
  C   C257      1.0  0.48753  0.11377  0.36256  1.0000
  H   H256      1.0  0.37506  0.38622  0.21900  1.0000
  C   C258      1.0  0.46770  0.38914  0.34218  1.0000
  C   C259      1.0  0.36068  0.41467  0.24434  1.0000
  C   C260      1.0  0.44528  0.20893  0.37494  1.0000
  S   S95       1.0  0.41848  0.05782  0.19982  1.0000
  Fe  Fe49      1.0  0.06876  0.09597  0.33008  1.0000
  S   S96       1.0  0.08780  0.10272  0.30616  1.0000
  S   S97       1.0  0.07754  0.07632  0.35211  1.0000
  Fe  Fe50      1.0  0.03870  0.11983  0.31569  1.0000
  S   S98       1.0  0.05572  0.12859  0.29083  1.0000
  C   C261      1.0  0.11051  0.06392  0.30053  1.0000
  Fe  Fe51      1.0  0.06849  0.10116  0.29292  1.0000
  S   S99       1.0  0.07607  0.08519  0.27333  1.0000
  Fe  Fe52      1.0  0.07322  0.12931  0.30670  1.0000
  S   S100      1.0  0.08718  0.15042  0.30063  1.0000
  S   S101      1.0  0.05036  0.09225  0.31686  1.0000
  S   S102      1.0  0.05523  0.12279  0.33147  1.0000
  C   C262      1.0  0.48239  0.12717  0.37095  1.0000
  N   N22       1.0  0.49740  0.41679  0.23911  1.0000
  C   C263      1.0  0.47587  0.08093  0.25847  1.0000
  S   S103      1.0  0.04345  0.30055  0.37540  1.0000
  H   H257      1.0  0.24065  0.41571  0.37272  1.0000
  C   C264      1.0  0.07000  0.36577  0.36700  1.0000
  H   H258      1.0  0.37076  0.02288  0.37412  1.0000
  C   C265      1.0  0.14892  0.43230  0.31312  1.0000
  Fe  Fe53      1.0  0.11087  0.16240  0.37851  1.0000
  H   H259      1.0  0.34808  0.43914  0.19264  1.0000
  S   S104      1.0  0.30425  0.40114  0.34014  1.0000
  C   C266      1.0  0.45182  0.47010  0.27933  1.0000
  C   C267      1.0  0.37706  0.37312  0.36982  1.0000
  Fe  Fe54      1.0  0.41009  0.39936  0.25177  1.0000
  S   S105      1.0  0.40612  0.42555  0.25574  1.0000
  S   S106      1.0  0.41341  0.39228  0.22685  1.0000
  Fe  Fe55      1.0  0.40953  0.38330  0.28913  1.0000
  S   S107      1.0  0.40564  0.40813  0.29623  1.0000
  S   S108      1.0  0.40974  0.35783  0.30680  1.0000
  Fe  Fe56      1.0  0.38692  0.41746  0.27919  1.0000
  S   S109      1.0  0.36160  0.43501  0.28614  1.0000
  Fe  Fe57      1.0  0.42523  0.41388  0.27224  1.0000
  S   S110      1.0  0.44758  0.42603  0.26778  1.0000
  S   S111      1.0  0.38926  0.39219  0.27388  1.0000
  S   S112      1.0  0.43073  0.38814  0.26654  1.0000
  H   H260      1.0  0.02390  0.13508  0.25638  1.0000
  H   H261      1.0  0.36058  0.41596  0.25687  1.0000
  C   C268      1.0  0.36857  0.39794  0.22314  1.0000
  C   C269      1.0  0.00121  0.34925  0.34478  1.0000
  Fe  Fe58      1.0  0.43288  0.06659  0.31859  1.0000
  S   S113      1.0  0.41337  0.08489  0.30506  1.0000
  S   S114      1.0  0.44606  0.07367  0.33494  1.0000
  Fe  Fe59      1.0  0.42752  0.03667  0.30845  1.0000
  S   S115      1.0  0.40720  0.05259  0.29434  1.0000
  S   S116      1.0  0.43566  0.00842  0.31121  1.0000
  Fe  Fe60      1.0  0.42507  0.07053  0.28428  1.0000
  S   S117      1.0  0.43099  0.08523  0.25738  1.0000
  Fe  Fe61      1.0  0.39749  0.06523  0.31647  1.0000
  S   S118      1.0  0.36990  0.07410  0.32861  1.0000
  S   S119      1.0  0.44618  0.05372  0.29691  1.0000
  S   S120      1.0  0.41625  0.04781  0.33147  1.0000
  H   H262      1.0  0.44113  0.46525  0.26087  1.0000
  C   C270      1.0  0.01596  0.13032  0.26885  1.0000
  C   C271      1.0  0.36460  0.03597  0.37018  1.0000
  S   S121      1.0  0.41557  0.14720  0.34944  1.0000
  H   H263      1.0  0.09381  0.14803  0.35759  1.0000
  C   C272      1.0  0.05815  0.45708  0.34770  1.0000
  N   N23       1.0  0.01620  0.11243  0.27065  1.0000
  S   S122      1.0  0.04596  0.38867  0.20766  1.0000
  C   C273      1.0  0.28912  0.48700  0.37137  1.0000
  Fe  Fe62      1.0  0.07238  0.43811  0.25772  1.0000
  S   S123      1.0  0.07528  0.43859  0.23016  1.0000
  Fe  Fe63      1.0  0.09125  0.43120  0.28587  1.0000
  S   S124      1.0  0.06828  0.44347  0.30270  1.0000
  S   S125      1.0  0.11417  0.41836  0.29735  1.0000
  Fe  Fe64      1.0  0.05402  0.42934  0.29441  1.0000
  S   S126      1.0  0.07737  0.41555  0.27887  1.0000
  C   C274      1.0  0.04784  0.36041  0.33171  1.0000
  C   C275      1.0  0.05348  0.36855  0.31498  1.0000
  C   C276      1.0  0.04976  0.38629  0.31022  1.0000
  H   H264      1.0  0.06084  0.36114  0.30569  1.0000
  H   H265      1.0  0.05404  0.39248  0.29725  1.0000
  C   C277      1.0  0.10696  0.43189  0.34816  1.0000
  C   C278      1.0  0.11398  0.41524  0.34619  1.0000
  C   C279      1.0  0.11622  0.41109  0.33056  1.0000
  C   C280      1.0  0.11099  0.42349  0.31699  1.0000
  C   C281      1.0  0.10345  0.44000  0.31911  1.0000
  C   C282      1.0  0.10151  0.44423  0.33463  1.0000
  H   H266      1.0  0.11753  0.40549  0.35672  1.0000
  H   H267      1.0  0.12189  0.39823  0.32905  1.0000
  H   H268      1.0  0.09971  0.44966  0.30857  1.0000
  C   C283      1.0  0.49270  0.36781  0.34998  1.0000
  C   C284      1.0  0.05126  0.40402  0.21475  1.0000
  C   C285      1.0  0.05366  0.40048  0.23132  1.0000
  C   C286      1.0  0.05996  0.41165  0.23659  1.0000
  C   C287      1.0  0.06401  0.42631  0.22522  1.0000
  C   C288      1.0  0.05446  0.41912  0.20367  1.0000
  H   H269      1.0  0.06235  0.40856  0.24919  1.0000
  C   C289      1.0  0.36252  0.06204  0.34870  1.0000
  C   C290      1.0  0.37065  0.04520  0.35397  1.0000
  C   C291      1.0  0.46609  0.12666  0.34650  1.0000
  C   C292      1.0  0.34843  0.06962  0.35975  1.0000
  H   H270      1.0  0.38140  0.03919  0.34547  1.0000
  H   H271      1.0  0.09960  0.19998  0.31922  1.0000
  H   H272      1.0  0.34209  0.08265  0.35575  1.0000
  C   C293      1.0  0.43706  0.09394  0.33922  1.0000
  C   C294      1.0  0.43621  0.09679  0.35511  1.0000
  C   C295      1.0  0.42929  0.11302  0.35857  1.0000
  C   C296      1.0  0.42362  0.12652  0.34600  1.0000
  C   C297      1.0  0.42468  0.12366  0.33007  1.0000
  C   C298      1.0  0.43130  0.10741  0.32671  1.0000
  H   H273      1.0  0.44073  0.08642  0.36481  1.0000
  H   H274      1.0  0.37584  0.08589  0.35542  1.0000
  H   H275      1.0  0.42046  0.13410  0.32025  1.0000
  H   H276      1.0  0.43231  0.10541  0.31430  1.0000
  H   H277      1.0  0.07601  0.05716  0.32798  1.0000
  C   C299      1.0  0.42631  0.00852  0.26652  1.0000
  C   C300      1.0  0.43014  0.01348  0.27943  1.0000
  C   C301      1.0  0.43138  0.00211  0.29484  1.0000
  C   C302      1.0  0.04009  0.39592  0.32212  1.0000
  S   S127      1.0  0.08859  0.45258  0.26333  1.0000
  H   H278      1.0  0.42523  0.01738  0.25468  1.0000
  H   H279      1.0  0.43223  0.02608  0.27742  1.0000
  H   H280      1.0  0.10499  0.48434  0.30383  1.0000
  C   C303      1.0  0.09929  0.15053  0.34423  1.0000
  C   C304      1.0  0.45324  0.42713  0.28596  1.0000
  C   C305      1.0  0.44175  0.42593  0.30166  1.0000
  C   C306      1.0  0.44645  0.42783  0.31574  1.0000
  C   C307      1.0  0.46276  0.43056  0.31413  1.0000
  C   C308      1.0  0.00420  0.09096  0.26715  1.0000
  C   C309      1.0  0.46941  0.43010  0.28444  1.0000
  H   H281      1.0  0.42913  0.42395  0.30288  1.0000
  H   H282      1.0  0.43750  0.42715  0.32784  1.0000
  N   N24       1.0  0.47538  0.03318  0.34054  1.0000
  C   C310      1.0  0.08505  0.36012  0.33917  1.0000
  H   H283      1.0  0.09562  0.38056  0.22994  1.0000
  N   N25       1.0  0.35389  0.42705  0.21701  1.0000
  C   C311      1.0  0.00385  0.10798  0.26587  1.0000
  H   H284      1.0  0.09627  0.45719  0.33595  1.0000
  S   S128      1.0  0.18526  0.40704  0.37130  1.0000
  C   C312      1.0  0.37400  0.09049  0.37975  1.0000
  C   C313      1.0  0.45909  0.03061  0.34735  1.0000
  H   H285      1.0  0.36593  0.33594  0.35253  1.0000
  H   H286      1.0  0.06469  0.37623  0.37391  1.0000
  C   C314      1.0  0.32033  0.41045  0.32532  1.0000
  C   C315      1.0  0.31895  0.42795  0.32197  1.0000
  C   C316      1.0  0.33164  0.43538  0.30983  1.0000
  C   C317      1.0  0.34600  0.42531  0.30138  1.0000
  C   C318      1.0  0.34756  0.40775  0.30501  1.0000
  C   C319      1.0  0.33461  0.40036  0.31679  1.0000
  H   H287      1.0  0.30786  0.43580  0.32840  1.0000
  H   H288      1.0  0.33031  0.44896  0.30692  1.0000
  H   H289      1.0  0.35856  0.39989  0.29857  1.0000
  H   H290      1.0  0.33571  0.38682  0.31937  1.0000
  H   H291      1.0  0.00989  0.35784  0.34122  1.0000
  H   H292      1.0  0.36210  0.41097  0.19928  1.0000
  Fe  Fe65      1.0  0.41125  0.15231  0.37538  1.0000
  H   H293      1.0  0.03907  0.10379  0.28015  1.0000
  N   N26       1.0  0.47923  0.11355  0.35066  1.0000
  C   C320      1.0  0.42538  0.34591  0.35734  1.0000
  C   C321      1.0  0.42254  0.36273  0.34820  1.0000
  C   C322      1.0  0.41834  0.36660  0.33228  1.0000
  C   C323      1.0  0.41708  0.35362  0.32551  1.0000
  C   C324      1.0  0.42057  0.33683  0.33440  1.0000
  C   C325      1.0  0.42470  0.33299  0.35024  1.0000
  H   H294      1.0  0.42294  0.37281  0.35368  1.0000
  H   H295      1.0  0.41559  0.37960  0.32551  1.0000
  H   H296      1.0  0.41980  0.32674  0.32911  1.0000
  H   H297      1.0  0.45592  0.46939  0.30897  1.0000
  C   C326      1.0  0.09822  0.15112  0.31544  1.0000
  C   C327      1.0  0.11309  0.15761  0.30949  1.0000
  C   C328      1.0  0.12119  0.16027  0.32080  1.0000
  C   C329      1.0  0.09147  0.14726  0.33289  1.0000
  H   H298      1.0  0.11830  0.16071  0.29604  1.0000
  H   H299      1.0  0.07979  0.14255  0.33754  1.0000
  C   C330      1.0  0.09879  0.07452  0.35335  1.0000
  C   C331      1.0  0.10866  0.08560  0.34207  1.0000
  C   C332      1.0  0.12577  0.08364  0.34269  1.0000
  H   H300      1.0  0.02053  0.32707  0.35110  1.0000
  H   H301      1.0  0.10311  0.09589  0.33301  1.0000
  H   H302      1.0  0.13331  0.09228  0.33386  1.0000
  Fe  Fe66      1.0  0.16449  0.05518  0.37908  1.0000
  H   H303      1.0  0.38560  0.13319  0.35484  1.0000
  C   C333      1.0  0.32157  0.02911  0.36650  1.0000
  H   H304      1.0  0.12405  0.46652  0.34127  1.0000
  H   H305      1.0  0.05110  0.38885  0.23993  1.0000
  N   N27       1.0  0.10203  0.05495  0.31504  1.0000
  H   H306      1.0  0.24316  0.02444  0.37513  1.0000
  C   C334      1.0  0.39148  0.43623  0.19901  1.0000
  C   C335      1.0  0.39852  0.42442  0.21201  1.0000
  C   C336      1.0  0.40623  0.40787  0.21010  1.0000
  C   C337      1.0  0.40732  0.40335  0.19491  1.0000
  C   C338      1.0  0.09522  0.38560  0.21671  1.0000
  H   H307      1.0  0.39762  0.42801  0.22364  1.0000
  H   H308      1.0  0.45003  0.15050  0.35147  1.0000
  C   C339      1.0  0.42408  0.06496  0.21500  1.0000
  C   C340      1.0  0.42445  0.05443  0.23104  1.0000
  C   C341      1.0  0.42670  0.06045  0.24413  1.0000
  C   C342      1.0  0.42895  0.07697  0.24110  1.0000
  C   C343      1.0  0.42932  0.08728  0.22486  1.0000
  C   C344      1.0  0.42679  0.08133  0.21186  1.0000
  H   H309      1.0  0.42254  0.04171  0.23344  1.0000
  H   H310      1.0  0.42658  0.05236  0.25655  1.0000
  H   H311      1.0  0.43110  0.10008  0.22242  1.0000
  H   H312      1.0  0.42646  0.08960  0.19959  1.0000
  N   N28       1.0  0.09730  0.40844  0.19230  1.0000
  H   H313      1.0  0.14752  0.06019  0.31251  1.0000
  H   H314      1.0  0.05945  0.35945  0.36836  1.0000
  C   C345      1.0  0.05880  0.10893  0.22328  1.0000
  C   C346      1.0  0.05754  0.11907  0.23449  1.0000
  C   C347      1.0  0.06325  0.11196  0.24963  1.0000
  C   C348      1.0  0.07004  0.09459  0.25378  1.0000
  C   C349      1.0  0.07147  0.08444  0.24250  1.0000
  C   C350      1.0  0.06589  0.09160  0.22723  1.0000
  H   H315      1.0  0.05223  0.13251  0.23138  1.0000
  H   H316      1.0  0.06237  0.11995  0.25805  1.0000
  H   H317      1.0  0.07673  0.07100  0.24563  1.0000
  H   H318      1.0  0.06688  0.08371  0.21864  1.0000
  C   C351      1.0  0.08285  0.48703  0.29390  1.0000
  C   C352      1.0  0.38372  0.05483  0.26139  1.0000
  Fe  Fe67      1.0  0.06412  0.46344  0.27969  1.0000
  H   H319      1.0  0.43534  0.23901  0.34947  1.0000
  C   C353      1.0  0.03816  0.37007  0.34359  1.0000
  C   C354      1.0  0.13299  0.07100  0.35502  1.0000
  H   H320      1.0  0.10442  0.06989  0.28986  1.0000
  N   N29       1.0  0.07730  0.37171  0.34910  1.0000
  C   C355      1.0  0.07636  0.38862  0.34240  1.0000
  H   H321      1.0  0.01788  0.06526  0.27406  1.0000
  C   C356      1.0  0.08352  0.39428  0.32537  1.0000
  C   C357      1.0  0.09245  0.36535  0.32210  1.0000
  C   C358      1.0  0.09177  0.38255  0.31522  1.0000
  H   H322      1.0  0.49057  0.00275  0.31767  1.0000
  H   H323      1.0  0.07003  0.39785  0.35016  1.0000
  H   H324      1.0  0.47397  0.09647  0.33905  1.0000
  C   C359      1.0  0.23866  0.01295  0.38188  1.0000
  H   H325      1.0  0.14590  0.43231  0.30134  1.0000
  H   H326      1.0  0.49243  0.04034  0.35066  1.0000
  C   C360      1.0  0.46528  0.00753  0.33325  1.0000
  H   H327      1.0  0.36510  0.39790  0.33388  1.0000
  H   H328      1.0  0.47272  0.41792  0.23527  1.0000
  H   H329      1.0  0.47854  0.46603  0.30050  1.0000
  H   H330      1.0  0.03358  0.36398  0.35645  1.0000
  S   S129      1.0  0.10541  0.43779  0.36711  1.0000
  H   H331      1.0  0.38529  0.44895  0.20068  1.0000
  S   S130      1.0  0.04760  0.45055  0.27272  1.0000
  C   C361      1.0  0.09887  0.40152  0.20867  1.0000
  H   H332      1.0  0.41829  0.23121  0.36589  1.0000
  N   N30       1.0  0.11223  0.10360  0.37365  1.0000
  H   H333      1.0  0.44705  0.99078  0.22345  1.0000
  C   C362      1.0  0.09010  0.37671  0.20786  1.0000
  S   S131      1.0  0.12453  0.16141  0.35168  1.0000
  N   N31       1.0  0.08211  0.19737  0.34313  1.0000
  C   C363      1.0  0.08782  0.19615  0.32656  1.0000
  C   C364      1.0  0.06770  0.19175  0.35264  1.0000
  C   C365      1.0  0.07883  0.18954  0.31897  1.0000
  C   C366      1.0  0.05857  0.18480  0.34552  1.0000
  C   C367      1.0  0.06418  0.18373  0.32856  1.0000
  C   C368      1.0  0.09186  0.20433  0.35069  1.0000
  H   H334      1.0  0.13340  0.07356  0.28806  1.0000
  H   H335      1.0  0.06328  0.19248  0.36585  1.0000
  H   H336      1.0  0.02658  0.39518  0.34800  1.0000
  C   C369      1.0  0.08461  0.05319  0.31641  1.0000
  H   H337      1.0  0.08271  0.40767  0.32005  1.0000
  C   C370      1.0  0.28990  0.36547  0.37090  1.0000
  H   H338      1.0  0.09416  0.21677  0.34281  1.0000
  C   C371      1.0  0.38230  0.12117  0.36175  1.0000
  H   H339      1.0  0.04734  0.18007  0.35317  1.0000
  H   H340      1.0  0.47484  0.10731  0.22041  1.0000
  H   H341      1.0  0.01031  0.47320  0.32190  1.0000
  H   H342      1.0  0.01330  0.09685  0.31857  1.0000
  H   H343      1.0  0.08636  0.36476  0.21417  1.0000
  S   S132      1.0  0.30850  0.43052  0.36671  1.0000
  C   C372      1.0  0.05589  0.47230  0.33580  1.0000
  H   H344      1.0  0.43098  0.99162  0.19311  1.0000
  C   C373      1.0  0.11422  0.15701  0.33817  1.0000
  H   H345      1.0  0.48666  0.43387  0.29735  1.0000
  C   C374      1.0  0.45729  0.19831  0.38418  1.0000
  S   S133      1.0  0.27695  0.47628  0.36560  1.0000
  H   H346      1.0  0.38897  0.01948  0.23810  1.0000
  C   C375      1.0  0.47422  0.43154  0.29855  1.0000
  N   N32       1.0  0.46352  0.47728  0.28199  1.0000
  H   H347      1.0  0.45908  0.48146  0.23641  1.0000
  H   H348      1.0  0.45109  0.36623  0.36391  1.0000
  C   C376      1.0  0.48535  0.07567  0.27110  1.0000
  H   H349      1.0  0.45475  0.03104  0.18897  1.0000
  C   C377      1.0  0.21618  0.41198  0.37216  1.0000
  H   H350      1.0  0.12177  0.11796  0.34938  1.0000
  H   H351      1.0  0.45606  0.10690  0.23745  1.0000
  N   N33       1.0  0.14478  0.44586  0.33607  1.0000
  H   H352      1.0  0.46141  0.99742  0.33051  1.0000
  H   H353      1.0  0.08529  0.34676  0.34439  1.0000
  C   C378      1.0  0.02316  0.46669  0.31595  1.0000
  H   H354      1.0  0.17117  0.40726  0.34263  1.0000
  C   C379      1.0  0.48122  0.04619  0.34472  1.0000
  C   C380      1.0  0.12697  0.06598  0.29938  1.0000
  C   C381      1.0  0.32086  0.01580  0.35997  1.0000
  C   C382      1.0  0.35352  0.42850  0.23292  1.0000
  H   H355      1.0  0.39095  0.08267  0.23897  1.0000
  C   C383      1.0  0.49223  0.10170  0.24353  1.0000
  C   C384      1.0  0.16292  0.41815  0.33634  1.0000
  H   H356      1.0  0.02760  0.47468  0.30339  1.0000
  H   H357      1.0  0.47471  0.04475  0.19502  1.0000
  H   H358      1.0  0.00270  0.13807  0.26992  1.0000
  S   S134      1.0  0.40196  0.30714  0.38431  1.0000
  C   C385      1.0  0.46611  0.47489  0.29911  1.0000
  C   C386      1.0  0.38269  0.07648  0.23528  1.0000
  H   H359      1.0  0.09134  0.11865  0.36250  1.0000
  H   H360      1.0  0.02210  0.45472  0.31345  1.0000
  H   H361      1.0  0.31179  0.46750  0.34249  1.0000
  H   H362      1.0  0.35034  0.47311  0.35192  1.0000
  H   H363      1.0  0.38476  0.03491  0.28390  1.0000
  H   H364      1.0  0.38258  0.06468  0.26797  1.0000
  H   H365      1.0  0.47813  0.43156  0.27231  1.0000
  N   N34       1.0  0.37714  0.35625  0.35089  1.0000
  C   C387      1.0  0.03709  0.44857  0.33881  1.0000
  C   C388      1.0  0.04866  0.44515  0.34928  1.0000
  H   H366      1.0  0.37436  0.38856  0.24782  1.0000
  H   H367      1.0  0.29809  0.36666  0.35833  1.0000
  C   C389      1.0  0.46885  0.14046  0.36696  1.0000
  H   H368      1.0  0.33204  0.06665  0.38454  1.0000
  H   H369      1.0  0.06728  0.45451  0.35568  1.0000
  C   C390      1.0  0.37977  0.35736  0.36586  1.0000
  N   N35       1.0  0.44230  0.22613  0.37284  1.0000
  H   H370      1.0  0.26788  0.39824  0.35741  1.0000
  C   C391      1.0  0.00719  0.33195  0.35033  1.0000
  H   H371      1.0  0.44085  0.01578  0.34904  1.0000
  H   H372      1.0  0.09924  0.43286  0.19368  1.0000
  H   H373      1.0  0.12866  0.05007  0.37596  1.0000
  H   H374      1.0  0.06379  0.44165  0.20015  1.0000
  Fe  Fe68      1.0  0.04896  0.32650  0.36530  1.0000
  S   S135      1.0  0.26825  0.43398  0.36528  1.0000
  H   H375      1.0  0.15826  0.43208  0.35560  1.0000
  C   C392      1.0  0.49501  0.40686  0.25505  1.0000
  H   H376      1.0  0.33262  0.44611  0.21039  1.0000
  H   H377      1.0  0.47164  0.07794  0.19807  1.0000
  S   S136      1.0  0.15406  0.07006  0.35605  1.0000
  C   C393      1.0  0.47974  0.08069  0.18562  1.0000
  H   H378      1.0  0.16474  0.40713  0.31544  1.0000
  C   C394      1.0  0.46000  0.48060  0.24925  1.0000
  C   C395      1.0  0.15551  0.43224  0.34368  1.0000
  H   H379      1.0  0.09850  0.05303  0.37433  1.0000
  H   H380      1.0  0.13784  0.10571  0.36074  1.0000
  H   H381      1.0  0.41329  0.39054  0.19340  1.0000
  C   C396      1.0  0.42957  0.23700  0.36320  1.0000
  C   C397      1.0  0.00220  0.10435  0.31369  1.0000
  C   C398      1.0  0.02927  0.10028  0.27639  1.0000
  C   C399      1.0  0.31084  0.00424  0.36973  1.0000
  H   H382      1.0  0.32952  0.03806  0.35915  1.0000
  H   H383      1.0  0.02984  0.43918  0.34001  1.0000
  S   S137      1.0  0.14144  0.39724  0.37618  1.0000
  N   N36       1.0  0.03520  0.46338  0.32694  1.0000
  C   C400      1.0  0.10980  0.04736  0.32840  1.0000
  H   H384      1.0  0.37411  0.10986  0.33063  1.0000
  H   H385      1.0  0.42748  0.31996  0.35693  1.0000
  H   H386      1.0  0.48941  0.45473  0.25412  1.0000
  C   C401      1.0  0.13697  0.46045  0.34401  1.0000
  C   C402      1.0  0.04412  0.47534  0.32562  1.0000
  H   H387      1.0  0.21911  0.41331  0.35859  1.0000
  H   H388      1.0  0.06329  0.48164  0.33434  1.0000
  H   H389      1.0  0.05034  0.43329  0.35848  1.0000
  C   C403      1.0  0.48953  0.34176  0.37034  1.0000
  H   H390      1.0  0.08359  0.18821  0.30593  1.0000
  H   H391      1.0  0.13497  0.45647  0.35801  1.0000
  H   H392      1.0  0.27322  0.38100  0.34686  1.0000
  C   C404      1.0  0.47347  0.48612  0.26863  1.0000
  H   H393      1.0  0.42861  0.11510  0.37085  1.0000
  H   H394      1.0  0.49388  0.10347  0.32940  1.0000
  C   C405      1.0  0.48653  0.02351  0.32980  1.0000
  H   H395      1.0  0.38700  0.07756  0.22136  1.0000
  H   H396      1.0  0.36918  0.08344  0.23811  1.0000
  C   C406      1.0  0.38493  0.03806  0.27048  1.0000
  H   H397      1.0  0.32816  0.01433  0.34742  1.0000
  H   H398      1.0  0.08498  0.20631  0.36356  1.0000
  H   H399      1.0  0.48232  0.40483  0.26174  1.0000
  C   C407      1.0  0.01750  0.07850  0.27297  1.0000
  H   H400      1.0  0.13238  0.04311  0.33830  1.0000
  H   H401      1.0  0.47110  0.05300  0.35372  1.0000
  H   H402      1.0  0.38780  0.01222  0.26891  1.0000
  S   S138      1.0  0.03528  0.41812  0.31656  1.0000
  S   S139      1.0  0.01060  0.13218  0.31800  1.0000
  C   C408      1.0  0.37205  0.37059  0.33944  1.0000
  H   H403      1.0  0.13341  0.45707  0.31465  1.0000
  H   H404      1.0  0.35313  0.45234  0.20314  1.0000
  H   H405      1.0  0.46605  0.48716  0.30173  1.0000
  C   C409      1.0  0.45380  0.01775  0.34379  1.0000
  H   H406      1.0  0.44900  0.24683  0.37778  1.0000
  C   C410      1.0  0.36128  0.41201  0.21205  1.0000
  C   C411      1.0  0.08901  0.38364  0.19105  1.0000
  C   C412      1.0  0.26631  0.38519  0.35883  1.0000
  H   H407      1.0  0.48247  0.06558  0.28194  1.0000
  H   H408      1.0  0.42457  0.24949  0.36686  1.0000
  C   C413      1.0  0.46059  0.14022  0.35469  1.0000
  S   S140      1.0  0.18936  0.03611  0.37638  1.0000
  H   H409      1.0  0.33690  0.35911  0.37429  1.0000
  H   H410      1.0  0.45973  0.12670  0.33682  1.0000
  N   N37       1.0  0.47532  0.37260  0.35154  1.0000
  C   C414      1.0  0.12315  0.05991  0.36645  1.0000
  C   C415      1.0  0.31224  0.03061  0.38279  1.0000
  C   C416      1.0  0.12455  0.11346  0.36224  1.0000
  H   H411      1.0  0.05756  0.17794  0.32292  1.0000
  C   C417      1.0  0.15942  0.41813  0.32106  1.0000
  H   H412      1.0  0.39656  0.10764  0.32955  1.0000
  S   S141      1.0  0.42899  0.34110  0.37790  1.0000
  C   C418      1.0  0.48502  0.09970  0.34160  1.0000
  H   H413      1.0  0.34787  0.44045  0.23681  1.0000
  C   C419      1.0  0.03020  0.08317  0.27754  1.0000
  H   H414      1.0  0.32905  0.45767  0.35302  1.0000
  H   H415      1.0  0.44413  0.46282  0.28986  1.0000
  H   H416      1.0  0.02106  0.13209  0.27902  1.0000
  H   H417      1.0  0.12403  0.12458  0.36722  1.0000
  H   H418      1.0  0.47696  0.39393  0.33073  1.0000
  H   H419      1.0  0.38294  0.33971  0.33391  1.0000
  H   H420      1.0  0.46674  0.08841  0.22874  1.0000
  H   H421      1.0  0.49499  0.11201  0.23289  1.0000
  H   H422      1.0  0.10440  0.19550  0.35168  1.0000
  H   H423      1.0  0.45004  0.03859  0.35546  1.0000
  H   H424      1.0  0.09841  0.35615  0.31423  1.0000
  C   C420      1.0  0.34271  0.06055  0.37608  1.0000
  C   C421      1.0  0.38347  0.11415  0.33490  1.0000
  H   H425      1.0  0.31026  0.99380  0.36478  1.0000
  H   H426      1.0  0.46352  0.39854  0.35036  1.0000
  C   C422      1.0  0.37854  0.33962  0.34766  1.0000
  N   N38       1.0  0.38054  0.11009  0.35338  1.0000
  C   C423      1.0  0.13491  0.05843  0.31303  1.0000
  C   C424      1.0  0.37676  0.09481  0.36211  1.0000
  C   C425      1.0  0.46876  0.09944  0.23225  1.0000
  C   C426      1.0  0.14179  0.44621  0.32077  1.0000
  S   S142      1.0  0.05331  0.33820  0.33748  1.0000
  C   C427      1.0  0.06086  0.43021  0.20891  1.0000
  Fe  Fe69      1.0  0.29327  0.41536  0.36100  1.0000
  H   H427      1.0  0.37015  0.36971  0.32749  1.0000
  H   H428      1.0  0.14522  0.46987  0.33933  1.0000
  C   C428      1.0  0.22963  0.00615  0.37459  1.0000
  H   H429      1.0  0.13275  0.16520  0.31602  1.0000
  H   H430      1.0  0.48481  0.05572  0.33305  1.0000
  N   N39       1.0  0.38424  0.05876  0.24441  1.0000
  C   C429      1.0  0.38583  0.04633  0.23608  1.0000
  C   C430      1.0  0.36925  0.38657  0.34296  1.0000
  C   C431      1.0  0.38719  0.02942  0.24476  1.0000
  H   H431      1.0  0.08571  0.47397  0.29294  1.0000
  C   C432      1.0  0.38660  0.02532  0.26208  1.0000
  H   H432      1.0  0.47666  0.43769  0.23616  1.0000
  H   H433      1.0  0.38650  0.04938  0.22256  1.0000
  N   N40       1.0  0.47941  0.09375  0.24488  1.0000
  H   H434      1.0  0.45647  0.38839  0.33787  1.0000
  C   C433      1.0  0.46489  0.36239  0.36246  1.0000
  C   C434      1.0  0.34650  0.44186  0.20526  1.0000
  Fe  Fe70      1.0  0.12209  0.41948  0.38430  1.0000
  H   H435      1.0  0.25561  0.06037  0.38410  1.0000
  C   C435      1.0  0.36827  0.39931  0.23935  1.0000
  C   C436      1.0  0.03417  0.38778  0.33877  1.0000
  C   C437      1.0  0.12639  0.04885  0.32755  1.0000
  C   C438      1.0  0.48256  0.42573  0.23161  1.0000
  S   S143      1.0  0.46893  0.43311  0.33136  1.0000
  H   H436      1.0  0.07916  0.06125  0.30544  1.0000
  N   N41       1.0  0.32869  0.48344  0.34050  1.0000
  H   H437      1.0  0.08459  0.03983  0.31706  1.0000
  H   H438      1.0  0.10297  0.04049  0.34001  1.0000
  H   H439      1.0  0.38211  0.12799  0.32970  1.0000
  C   C439      1.0  0.37994  0.11714  0.37937  1.0000
  C   C440      1.0  0.22839  0.41334  0.38013  1.0000
  S   S144      1.0  0.06998  0.32116  0.37919  1.0000
  C   C441      1.0  0.10608  0.06163  0.36554  1.0000
  C   C442      1.0  0.09544  0.10828  0.37240  1.0000
  H   H440      1.0  0.48903  0.12752  0.38027  1.0000
  H   H441      1.0  0.33325  0.46185  0.33017  1.0000
  Fe  Fe71      1.0  0.28303  0.44783  0.37363  1.0000
  H   H442      1.0  0.09751  0.38685  0.30203  1.0000
  H   H443      1.0  0.05252  0.42197  0.19091  1.0000
  H   H444      1.0  0.36920  0.40007  0.36138  1.0000
  S   S145      1.0  0.42218  0.17231  0.37920  1.0000
  H   H445      1.0  0.38803  0.32980  0.35410  1.0000
  H   H446      1.0  0.46347  0.33877  0.38060  1.0000
  H   H447      1.0  0.22703  0.01233  0.36217  1.0000
  C   C443      1.0  0.44998  0.47152  0.26294  1.0000
  H   H448      1.0  0.10217  0.40866  0.21585  1.0000
  C   C444      1.0  0.42353  0.99225  0.26903  1.0000
  C   C445      1.0  0.35068  0.04366  0.38132  1.0000
  C   C446      1.0  0.48168  0.01051  0.32605  1.0000
  H   H449      1.0  0.43811  0.20335  0.36972  1.0000
  H   H450      1.0  0.46557  0.07479  0.25965  1.0000
  H   H451      1.0  0.46495  0.15100  0.37326  1.0000
  H   H452      1.0  0.25250  0.38541  0.36054  1.0000
  C   C447      1.0  0.30261  0.47813  0.37940  1.0000
  C   C448      1.0  0.45138  0.23320  0.37937  1.0000
  N   N42       1.0  0.27316  0.37403  0.37327  1.0000
  H   H453      1.0  0.38368  0.34600  0.37499  1.0000
  H   H454      1.0  0.37880  0.37384  0.38189  1.0000
  C   C449      1.0  0.37165  0.38780  0.35832  1.0000
  C   C450      1.0  0.32559  0.46681  0.34153  1.0000
  H   H455      1.0  0.48625  0.42893  0.21759  1.0000
  C   C451      1.0  0.47183  0.34682  0.37198  1.0000
  H   H456      1.0  0.49507  0.32978  0.37775  1.0000
  H   H457      1.0  0.07011  0.10307  0.38246  1.0000
  H   H458      1.0  0.32473  0.38800  0.37959  1.0000
  C   C452      1.0  0.34226  0.48447  0.34615  1.0000
  H   H459      1.0  0.42113  0.99396  0.21466  1.0000
  H   H460      1.0  0.30525  0.46444  0.38277  1.0000
  H   H461      1.0  0.08002  0.35662  0.37327  1.0000
  C   C453      1.0  0.49848  0.08365  0.26977  1.0000
  H   H462      1.0  0.49186  0.08803  0.34908  1.0000
  H   H463      1.0  0.00063  0.30759  0.35930  1.0000
  H   H464      1.0  0.31017  0.34876  0.38281  1.0000
  C   C454      1.0  0.20016  0.40896  0.38165  1.0000
  Fe  Fe72      1.0  0.49763  0.42870  0.32594  1.0000
  H   H465      1.0  0.04235  0.48723  0.31646  1.0000
  H   H466      1.0  0.04612  0.24036  0.38405  1.0000
  C   C455      1.0  0.31297  0.48698  0.38273  1.0000
  C   C456      1.0  0.08335  0.09949  0.38366  1.0000
  S   S146      1.0  0.49772  0.46702  0.21833  1.0000
  S   S147      1.0  0.02812  0.33793  0.38474  1.0000
  H   H467      1.0  0.49830  0.10364  0.36552  1.0000
  C   C457      1.0  0.47175  0.48807  0.25209  1.0000
  C   C458      1.0  0.29688  0.35549  0.38469  1.0000
  H   H468      1.0  0.36750  0.33477  0.52995  1.0000
  C   C459      1.0  0.08476  0.23724  0.40294  1.0000
  H   H469      1.0  0.40612  0.15591  0.48951  1.0000
  H   H470      1.0  0.36106  0.31503  0.51631  1.0000
  Fe  Fe73      1.0  0.09431  0.20429  0.54124  1.0000
  S   S148      1.0  0.11762  0.21379  0.53981  1.0000
  Fe  Fe74      1.0  0.09878  0.21136  0.50298  1.0000
  S   S149      1.0  0.12245  0.22097  0.49844  1.0000
  S   S150      1.0  0.08754  0.21346  0.48090  1.0000
  Fe  Fe75      1.0  0.12950  0.19906  0.51922  1.0000
  S   S151      1.0  0.15554  0.18233  0.51345  1.0000
  Fe  Fe76      1.0  0.10824  0.23489  0.51913  1.0000
  S   S152      1.0  0.10612  0.26317  0.51193  1.0000
  S   S153      1.0  0.10683  0.18812  0.52208  1.0000
  S   S154      1.0  0.08398  0.22659  0.52231  1.0000
  N   N43       1.0  0.48627  0.28925  0.55564  1.0000
  H   H471      1.0  0.36346  0.01198  0.50582  1.0000
  H   H472      1.0  0.23543  0.04313  0.47547  1.0000
  Fe  Fe77      1.0  0.09194  0.14396  0.41113  1.0000
  Fe  Fe78      1.0  0.02452  0.31142  0.39637  1.0000
  S   S155      1.0  0.08356  0.11965  0.42483  1.0000
  Fe  Fe79      1.0  0.11388  0.16657  0.41261  1.0000
  S   S156      1.0  0.13087  0.16751  0.42902  1.0000
  H   H473      1.0  0.15117  0.48207  0.43824  1.0000
  C   C460      1.0  0.36708  0.32537  0.50862  1.0000
  S   S157      1.0  0.08646  0.16527  0.42435  1.0000
  C   C461      1.0  0.34806  0.01067  0.45775  1.0000
  Fe  Fe80      1.0  0.17674  0.02086  0.40048  1.0000
  C   C462      1.0  0.16800  0.13676  0.55564  1.0000
  S   S158      1.0  0.08341  0.16066  0.38786  1.0000
  Fe  Fe81      1.0  0.16146  0.05117  0.41645  1.0000
  C   C463      1.0  0.15815  0.12313  0.50718  1.0000
  S   S159      1.0  0.14484  0.05846  0.44038  1.0000
  S   S160      1.0  0.35470  0.32891  0.39334  1.0000
  H   H474      1.0  0.23278  0.44613  0.41051  1.0000
  C   C464      1.0  0.13646  0.09714  0.46039  1.0000
  H   H475      1.0  0.22974  0.43938  0.56248  1.0000
  S   S161      1.0  0.15115  0.03890  0.40194  1.0000
  S   S162      1.0  0.18594  0.03168  0.41709  1.0000
  Fe  Fe82      1.0  0.40841  0.28514  0.40539  1.0000
  S   S163      1.0  0.42339  0.29848  0.41413  1.0000
  C   C465      1.0  0.17364  0.12452  0.49571  1.0000
  H   H476      1.0  0.45949  0.18465  0.38602  1.0000
  S   S164      1.0  0.39099  0.33101  0.41275  1.0000
  Fe  Fe83      1.0  0.42669  0.20389  0.54134  1.0000
  H   H477      1.0  0.17493  0.04667  0.53246  1.0000
  Fe  Fe84      1.0  0.39836  0.30686  0.43113  1.0000
  S   S165      1.0  0.39687  0.30314  0.45893  1.0000
  H   H478      1.0  0.25579  0.03146  0.51913  1.0000
  S   S166      1.0  0.38370  0.29240  0.42349  1.0000
  C   C466      1.0  0.16749  0.03388  0.51752  1.0000
  H   H479      1.0  0.31305  0.04085  0.38785  1.0000
  H   H480      1.0  0.48995  0.24928  0.49447  1.0000
  C   C467      1.0  0.48652  0.21943  0.52625  1.0000
  S   S167      1.0  0.33265  0.46275  0.54715  1.0000
  H   H481      1.0  0.35510  0.99753  0.45695  1.0000
  Fe  Fe85      1.0  0.32301  0.44637  0.53642  1.0000
  S   S168      1.0  0.34079  0.43128  0.51767  1.0000
  S   S169      1.0  0.30887  0.43385  0.56124  1.0000
  Fe  Fe86      1.0  0.43165  0.34065  0.50827  1.0000
  S   S170      1.0  0.41272  0.32537  0.52500  1.0000
  S   S171      1.0  0.43752  0.34430  0.47993  1.0000
  Fe  Fe87      1.0  0.43982  0.34858  0.53820  1.0000
  S   S172      1.0  0.42191  0.33331  0.55706  1.0000
  S   S173      1.0  0.45517  0.36348  0.54466  1.0000
  Fe  Fe88      1.0  0.43270  0.31425  0.54054  1.0000
  S   S174      1.0  0.44371  0.28651  0.54955  1.0000
  Fe  Fe89      1.0  0.40396  0.34612  0.53940  1.0000
  S   S175      1.0  0.37584  0.35632  0.54885  1.0000
  S   S176      1.0  0.45214  0.32859  0.52298  1.0000
  S   S177      1.0  0.42135  0.36240  0.52140  1.0000
  H   H482      1.0  0.48835  0.21679  0.56244  1.0000
  C   C468      1.0  0.48326  0.14811  0.51439  1.0000
  S   S178      1.0  0.46239  0.20127  0.44524  1.0000
  C   C469      1.0  0.16494  0.04968  0.48927  1.0000
  C   C470      1.0  0.40488  0.25751  0.46439  1.0000
  S   S179      1.0  0.44428  0.18798  0.52342  1.0000
  H   H483      1.0  0.21507  0.44209  0.53947  1.0000
  H   H484      1.0  0.47739  0.38597  0.51803  1.0000
  Fe  Fe90      1.0  0.45795  0.17572  0.54462  1.0000
  C   C471      1.0  0.22230  0.00034  0.48482  1.0000
  Fe  Fe91      1.0  0.42757  0.16920  0.53614  1.0000
  S   S180      1.0  0.42167  0.15421  0.52069  1.0000
  H   H485      1.0  0.33037  0.13265  0.46666  1.0000
  Fe  Fe92      1.0  0.31331  0.09821  0.55195  1.0000
  S   S181      1.0  0.33116  0.07364  0.54774  1.0000
  Fe  Fe93      1.0  0.34247  0.11538  0.54843  1.0000
  S   S182      1.0  0.36278  0.09250  0.54359  1.0000
  S   S183      1.0  0.34717  0.14009  0.54951  1.0000
  Fe  Fe94      1.0  0.34683  0.09002  0.52717  1.0000
  S   S184      1.0  0.35683  0.08719  0.50025  1.0000
  Fe  Fe95      1.0  0.34547  0.07830  0.56471  1.0000
  S   S185      1.0  0.32801  0.11426  0.53017  1.0000
  C   C472      1.0  0.49117  0.16792  0.48909  1.0000
  S   S186      1.0  0.40209  0.16342  0.41936  1.0000
  C   C473      1.0  0.49755  0.19118  0.57503  1.0000
  Fe  Fe96      1.0  0.39288  0.14424  0.41205  1.0000
  S   S187      1.0  0.37880  0.12570  0.43172  1.0000
  H   H486      1.0  0.45524  0.25045  0.55387  1.0000
  H   H487      1.0  0.13468  0.44813  0.55631  1.0000
  Fe  Fe97      1.0  0.28628  0.05848  0.43600  1.0000
  S   S188      1.0  0.30659  0.03551  0.44249  1.0000
  S   S189      1.0  0.25934  0.05405  0.44287  1.0000
  Fe  Fe98      1.0  0.31142  0.08201  0.42632  1.0000
  S   S190      1.0  0.33333  0.06076  0.43240  1.0000
  S   S191      1.0  0.31553  0.10873  0.41651  1.0000
  Fe  Fe99      1.0  0.32350  0.04718  0.41891  1.0000
  S   S192      1.0  0.10831  0.18508  0.38891  1.0000
  Fe  Fe100     1.0  0.31418  0.05156  0.45526  1.0000
  S   S193      1.0  0.31840  0.04181  0.48176  1.0000
  S   S194      1.0  0.30253  0.06895  0.41121  1.0000
  S   S195      1.0  0.29293  0.07389  0.45036  1.0000
  H   H488      1.0  0.34185  0.37262  0.42628  1.0000
  Fe  Fe101     1.0  0.19713  0.45236  0.50716  1.0000
  S   S196      1.0  0.22395  0.45607  0.50329  1.0000
  Fe  Fe102     1.0  0.16893  0.43214  0.51943  1.0000
  S   S197      1.0  0.15084  0.45235  0.50554  1.0000
  S   S198      1.0  0.16095  0.40809  0.53531  1.0000
  Fe  Fe103     1.0  0.17382  0.45399  0.48423  1.0000
  S   S199      1.0  0.17501  0.45589  0.45672  1.0000
  Fe  Fe104     1.0  0.15986  0.46999  0.51504  1.0000
  S   S200      1.0  0.19149  0.43251  0.49744  1.0000
  S   S201      1.0  0.17640  0.44978  0.53073  1.0000
  S   S202      1.0  0.07196  0.35185  0.53590  1.0000
  S   S203      1.0  0.06614  0.38476  0.55257  1.0000
  Fe  Fe105     1.0  0.05069  0.36654  0.55265  1.0000
  S   S204      1.0  0.02409  0.37633  0.54738  1.0000
  Fe  Fe106     1.0  0.08807  0.36850  0.53809  1.0000
  S   S205      1.0  0.10541  0.38214  0.51608  1.0000
  N   N44       1.0  0.35613  0.01783  0.46682  1.0000
  C   C474      1.0  0.36374  0.01740  0.49251  1.0000
  Fe  Fe107     1.0  0.13206  0.41126  0.41837  1.0000
  S   S206      1.0  0.15201  0.38826  0.41285  1.0000
  S   S207      1.0  0.12606  0.41674  0.44431  1.0000
  Fe  Fe108     1.0  0.30811  0.48156  0.54391  1.0000
  C   C475      1.0  0.37107  0.03841  0.46736  1.0000
  H   H489      1.0  0.06425  0.23792  0.44786  1.0000
  H   H490      1.0  0.36881  0.98972  0.54605  1.0000
  C   C476      1.0  0.37113  0.03135  0.48439  1.0000
  S   S208      1.0  0.11167  0.40487  0.40995  1.0000
  N   N45       1.0  0.17049  0.99837  0.57448  1.0000
  C   C477      1.0  0.46596  0.28724  0.50221  1.0000
  S   S209      1.0  0.05178  0.35180  0.41009  1.0000
  C   C478      1.0  0.11601  0.14469  0.55359  1.0000
  H   H491      1.0  0.20704  0.01112  0.55221  1.0000
  C   C479      1.0  0.46625  0.20542  0.39125  1.0000
  C   C480      1.0  0.09223  0.29519  0.55174  1.0000
  C   C481      1.0  0.47434  0.27028  0.50549  1.0000
  H   H492      1.0  0.47412  0.26328  0.51843  1.0000
  C   C482      1.0  0.09339  0.37024  0.40518  1.0000
  C   C483      1.0  0.07661  0.36887  0.40647  1.0000
  C   C484      1.0  0.07293  0.35303  0.40860  1.0000
  C   C485      1.0  0.10277  0.33986  0.40883  1.0000
  H   H493      1.0  0.13821  0.08311  0.46406  1.0000
  H   H494      1.0  0.17897  0.11684  0.40236  1.0000
  H   H495      1.0  0.08310  0.23637  0.55908  1.0000
  C   C486      1.0  0.00778  0.33222  0.56141  1.0000
  C   C487      1.0  0.40908  0.24405  0.40346  1.0000
  C   C488      1.0  0.13918  0.42848  0.44718  1.0000
  C   C489      1.0  0.15223  0.43403  0.43402  1.0000
  C   C490      1.0  0.16307  0.44265  0.43696  1.0000
  C   C491      1.0  0.16111  0.44542  0.45313  1.0000
  C   C492      1.0  0.14811  0.43980  0.46624  1.0000
  C   C493      1.0  0.13709  0.43148  0.46324  1.0000
  H   H496      1.0  0.15408  0.43157  0.42163  1.0000
  H   H497      1.0  0.17317  0.44690  0.42676  1.0000
  H   H498      1.0  0.14645  0.44184  0.47871  1.0000
  H   H499      1.0  0.12704  0.42719  0.47344  1.0000
  C   C494      1.0  0.14500  0.40146  0.53011  1.0000
  C   C495      1.0  0.13728  0.41077  0.51660  1.0000
  C   C496      1.0  0.12488  0.40493  0.51258  1.0000
  C   C497      1.0  0.12000  0.38986  0.52212  1.0000
  C   C498      1.0  0.12758  0.38065  0.53574  1.0000
  C   C499      1.0  0.14011  0.38638  0.53964  1.0000
  H   H500      1.0  0.14107  0.42223  0.50899  1.0000
  H   H501      1.0  0.11907  0.41208  0.50203  1.0000
  H   H502      1.0  0.12416  0.36885  0.54299  1.0000
  H   H503      1.0  0.14612  0.37901  0.55002  1.0000
  C   C500      1.0  0.26684  0.03696  0.51824  1.0000
  C   C501      1.0  0.08610  0.33854  0.40943  1.0000
  C   C502      1.0  0.49547  0.38773  0.57911  1.0000
  S   S210      1.0  0.05994  0.20517  0.39615  1.0000
  H   H504      1.0  0.36933  0.13045  0.46845  1.0000
  C   C503      1.0  0.01178  0.36111  0.55116  1.0000
  C   C504      1.0  0.01820  0.34401  0.55749  1.0000
  H   H505      1.0  0.46672  0.36524  0.46142  1.0000
  H   H506      1.0  0.03113  0.33992  0.55954  1.0000
  C   C505      1.0  0.47544  0.29788  0.45491  1.0000
  C   C506      1.0  0.36178  0.12096  0.42655  1.0000
  C   C507      1.0  0.35260  0.13241  0.41495  1.0000
  C   C508      1.0  0.33867  0.12840  0.41159  1.0000
  C   C509      1.0  0.33395  0.11289  0.41971  1.0000
  C   C510      1.0  0.34333  0.10140  0.43109  1.0000
  C   C511      1.0  0.35715  0.10544  0.43454  1.0000
  H   H507      1.0  0.35593  0.14453  0.40889  1.0000
  H   H508      1.0  0.20472  0.04226  0.48205  1.0000
  H   H509      1.0  0.33964  0.08963  0.43764  1.0000
  H   H510      1.0  0.36434  0.09650  0.44337  1.0000
  S   S211      1.0  0.19459  0.07103  0.57998  1.0000
  C   C512      1.0  0.24937  0.05745  0.39731  1.0000
  C   C513      1.0  0.06905  0.23949  0.56406  1.0000
  C   C514      1.0  0.34662  0.07413  0.49519  1.0000
  C   C515      1.0  0.34133  0.06036  0.50723  1.0000
  C   C516      1.0  0.33262  0.05043  0.50310  1.0000
  C   C517      1.0  0.32901  0.05438  0.48700  1.0000
  C   C518      1.0  0.33419  0.06821  0.47506  1.0000
  C   C519      1.0  0.34323  0.07789  0.47905  1.0000
  H   H511      1.0  0.34431  0.05710  0.51958  1.0000
  H   H512      1.0  0.32902  0.03952  0.51227  1.0000
  H   H513      1.0  0.33117  0.07145  0.46277  1.0000
  H   H514      1.0  0.34709  0.08867  0.46983  1.0000
  C   C520      1.0  0.40080  0.15060  0.52791  1.0000
  C   C521      1.0  0.39716  0.13616  0.52560  1.0000
  C   C522      1.0  0.38058  0.13300  0.53174  1.0000
  C   C523      1.0  0.36762  0.14431  0.54014  1.0000
  C   C524      1.0  0.37116  0.15900  0.54191  1.0000
  C   C525      1.0  0.38772  0.16211  0.53587  1.0000
  H   H515      1.0  0.40726  0.12724  0.51940  1.0000
  H   H516      1.0  0.37790  0.12173  0.53017  1.0000
  H   H517      1.0  0.36112  0.16793  0.54817  1.0000
  H   H518      1.0  0.39024  0.17355  0.53716  1.0000
  C   C526      1.0  0.45988  0.18628  0.43566  1.0000
  C   C527      1.0  0.47386  0.17396  0.43009  1.0000
  H   H519      1.0  0.48642  0.17345  0.43174  1.0000
  C   C528      1.0  0.45538  0.16281  0.41995  1.0000
  C   C529      1.0  0.44142  0.17515  0.42550  1.0000
  C   C530      1.0  0.44363  0.18675  0.43351  1.0000
  H   H520      1.0  0.25741  0.01494  0.54675  1.0000
  H   H521      1.0  0.38321  0.14036  0.49455  1.0000
  H   H522      1.0  0.42892  0.17583  0.42360  1.0000
  H   H523      1.0  0.43277  0.19628  0.43776  1.0000
  H   H524      1.0  0.42904  0.13926  0.44281  1.0000
  H   H525      1.0  0.37415  0.11797  0.48852  1.0000
  H   H526      1.0  0.13286  0.13652  0.51704  1.0000
  H   H527      1.0  0.46832  0.20390  0.53104  1.0000
  C   C531      1.0  0.43645  0.27138  0.54392  1.0000
  C   C532      1.0  0.44454  0.25423  0.54770  1.0000
  C   C533      1.0  0.43879  0.24191  0.54359  1.0000
  C   C534      1.0  0.42487  0.24668  0.53573  1.0000
  C   C535      1.0  0.41695  0.26385  0.53177  1.0000
  C   C536      1.0  0.42274  0.27616  0.53580  1.0000
  C   C537      1.0  0.23861  0.47096  0.40350  1.0000
  H   H528      1.0  0.44513  0.22875  0.54647  1.0000
  C   C538      1.0  0.35620  0.01079  0.48349  1.0000
  H   H529      1.0  0.41632  0.28927  0.53297  1.0000
  C   C539      1.0  0.24933  0.45240  0.54629  1.0000
  C   C540      1.0  0.25550  0.46079  0.52986  1.0000
  C   C541      1.0  0.24721  0.46231  0.51690  1.0000
  C   C542      1.0  0.23267  0.45552  0.52029  1.0000
  H   H530      1.0  0.26670  0.46601  0.52708  1.0000
  H   H531      1.0  0.01264  0.24390  0.41000  1.0000
  C   C543      1.0  0.35043  0.41047  0.52643  1.0000
  C   C544      1.0  0.36742  0.40369  0.51934  1.0000
  C   C545      1.0  0.37540  0.38717  0.52619  1.0000
  C   C546      1.0  0.36632  0.37718  0.53998  1.0000
  C   C547      1.0  0.34919  0.38383  0.54681  1.0000
  C   C548      1.0  0.34128  0.40046  0.54013  1.0000
  H   H532      1.0  0.37451  0.41135  0.50866  1.0000
  H   H533      1.0  0.38852  0.38223  0.52071  1.0000
  C   C549      1.0  0.49332  0.37078  0.48286  1.0000
  H   H534      1.0  0.32807  0.40540  0.54551  1.0000
  C   C550      1.0  0.45391  0.38030  0.56884  1.0000
  H   H535      1.0  0.05430  0.21550  0.44131  1.0000
  S   S212      1.0  0.26378  0.99368  0.51932  1.0000
  C   C551      1.0  0.06138  0.25423  0.38982  1.0000
  C   C552      1.0  0.28675  0.35466  0.40099  1.0000
  S   S213      1.0  0.34302  0.03181  0.40144  1.0000
  C   C553      1.0  0.12387  0.13048  0.56417  1.0000
  C   C554      1.0  0.37565  0.10174  0.38839  1.0000
  C   C555      1.0  0.16266  0.09131  0.43875  1.0000
  C   C556      1.0  0.48813  0.36741  0.46988  1.0000
  C   C557      1.0  0.48620  0.27116  0.55975  1.0000
  C   C558      1.0  0.35183  0.45975  0.58390  1.0000
  S   S214      1.0  0.11974  0.14420  0.40089  1.0000
  S   S215      1.0  0.32611  0.10149  0.57081  1.0000
  S   S216      1.0  0.25992  0.44954  0.56266  1.0000
  H   H536      1.0  0.40590  0.12386  0.44831  1.0000
  H   H537      1.0  0.39647  0.25326  0.50436  1.0000
  C   C559      1.0  0.10414  0.41027  0.56402  1.0000
  H   H538      1.0  0.36861  0.31921  0.48489  1.0000
  Fe  Fe109     1.0  0.28641  0.45507  0.55638  1.0000
  C   C560      1.0  0.40748  0.21527  0.40432  1.0000
  H   H539      1.0  0.37646  0.04947  0.46105  1.0000
  C   C561      1.0  0.26975  0.36360  0.40331  1.0000
  Fe  Fe110     1.0  0.21322  0.06578  0.55611  1.0000
  C   C562      1.0  0.29398  0.02012  0.40985  1.0000
  C   C563      1.0  0.22620  0.44749  0.53679  1.0000
  C   C564      1.0  0.23457  0.44589  0.54976  1.0000
  H   H540      1.0  0.45134  0.16201  0.49265  1.0000
  H   H541      1.0  0.26950  0.00598  0.48230  1.0000
  C   C565      1.0  0.14786  0.00012  0.44257  1.0000
  C   C566      1.0  0.41058  0.31299  0.46351  1.0000
  C   C567      1.0  0.41688  0.32644  0.45179  1.0000
  C   C568      1.0  0.42581  0.33568  0.45665  1.0000
  C   C569      1.0  0.42849  0.33138  0.47315  1.0000
  C   C570      1.0  0.42326  0.31718  0.48437  1.0000
  C   C571      1.0  0.41409  0.30817  0.47968  1.0000
  H   H542      1.0  0.41430  0.33013  0.43922  1.0000
  H   H543      1.0  0.43012  0.34648  0.44778  1.0000
  H   H544      1.0  0.42627  0.31305  0.49669  1.0000
  H   H545      1.0  0.40945  0.29764  0.48872  1.0000
  C   C572      1.0  0.09817  0.14895  0.55624  1.0000
  C   C573      1.0  0.34783  0.35334  0.41184  1.0000
  C   C574      1.0  0.34083  0.36971  0.41490  1.0000
  H   H546      1.0  0.49041  0.36482  0.51970  1.0000
  H   H547      1.0  0.35407  0.34366  0.42096  1.0000
  H   H548      1.0  0.48848  0.37843  0.57945  1.0000
  C   C575      1.0  0.23296  0.05391  0.40181  1.0000
  C   C576      1.0  0.22486  0.05033  0.41886  1.0000
  C   C577      1.0  0.23310  0.05039  0.43134  1.0000
  C   C578      1.0  0.24947  0.05403  0.42685  1.0000
  C   C579      1.0  0.25759  0.05758  0.40979  1.0000
  C   C580      1.0  0.21192  0.12162  0.58056  1.0000
  H   H549      1.0  0.21220  0.04763  0.42243  1.0000
  H   H550      1.0  0.22670  0.04775  0.44449  1.0000
  H   H551      1.0  0.27004  0.06073  0.40618  1.0000
  H   H552      1.0  0.29959  0.03597  0.51584  1.0000
  C   C581      1.0  0.17389  0.09625  0.42349  1.0000
  H   H553      1.0  0.26410  0.02859  0.47684  1.0000
  H   H554      1.0  0.36347  0.03699  0.44548  1.0000
  H   H555      1.0  0.34777  0.01811  0.44466  1.0000
  C   C582      1.0  0.17367  0.06205  0.50758  1.0000
  C   C583      1.0  0.46655  0.29614  0.48545  1.0000
  C   C584      1.0  0.30178  0.00607  0.38600  1.0000
  Fe  Fe111     1.0  0.30203  0.41571  0.39321  1.0000
  H   H556      1.0  0.23393  0.09056  0.54895  1.0000
  C   C585      1.0  0.14492  0.13745  0.50812  1.0000
  C   C586      1.0  0.10073  0.10287  0.42934  1.0000
  C   C587      1.0  0.11683  0.10201  0.41841  1.0000
  C   C588      1.0  0.13033  0.08826  0.42166  1.0000
  C   C589      1.0  0.12787  0.07544  0.43608  1.0000
  C   C590      1.0  0.11188  0.07638  0.44725  1.0000
  C   C591      1.0  0.09825  0.08996  0.44375  1.0000
  H   H557      1.0  0.11864  0.11143  0.40690  1.0000
  H   H558      1.0  0.14265  0.08769  0.41305  1.0000
  H   H559      1.0  0.10995  0.06649  0.45848  1.0000
  H   H560      1.0  0.08580  0.09054  0.45224  1.0000
  H   H561      1.0  0.40757  0.25342  0.43950  1.0000
  H   H562      1.0  0.48523  0.30572  0.45126  1.0000
  C   C592      1.0  0.37962  0.12203  0.47481  1.0000
  C   C593      1.0  0.09724  0.27750  0.55642  1.0000
  S   S217      1.0  0.14038  0.42835  0.39351  1.0000
  H   H563      1.0  0.24912  0.46780  0.39314  1.0000
  Fe  Fe112     1.0  0.26472  0.41935  0.39210  1.0000
  H   H564      1.0  0.18611  0.12573  0.53579  1.0000
  H   H565      1.0  0.25154  0.11054  0.54747  1.0000
  C   C594      1.0  0.10157  0.27520  0.52738  1.0000
  C   C595      1.0  0.10188  0.26751  0.54427  1.0000
  H   H566      1.0  0.32454  0.11580  0.49590  1.0000
  C   C596      1.0  0.09231  0.30288  0.53477  1.0000
  C   C597      1.0  0.09700  0.29290  0.52262  1.0000
  H   H567      1.0  0.10572  0.25390  0.54797  1.0000
  H   H568      1.0  0.08853  0.31648  0.53104  1.0000
  H   H569      1.0  0.09687  0.29891  0.50953  1.0000
  C   C598      1.0  0.10004  0.20074  0.46661  1.0000
  C   C599      1.0  0.11591  0.19035  0.46898  1.0000
  C   C600      1.0  0.12555  0.18026  0.45730  1.0000
  C   C601      1.0  0.11932  0.18060  0.44329  1.0000
  C   C602      1.0  0.10368  0.19127  0.44082  1.0000
  C   C603      1.0  0.09407  0.20128  0.45243  1.0000
  H   H570      1.0  0.12060  0.19001  0.47987  1.0000
  H   H571      1.0  0.13764  0.17200  0.45921  1.0000
  H   H572      1.0  0.09894  0.19174  0.42996  1.0000
  H   H573      1.0  0.08190  0.20930  0.45051  1.0000
  C   C604      1.0  0.16045  0.16513  0.52991  1.0000
  C   C605      1.0  0.17307  0.15099  0.52611  1.0000
  N   N46       1.0  0.39350  0.13082  0.47196  1.0000
  H   H574      1.0  0.18008  0.15105  0.51325  1.0000
  H   H575      1.0  0.20160  0.48156  0.44085  1.0000
  H   H576      1.0  0.14214  0.17617  0.54970  1.0000
  H   H577      1.0  0.07748  0.41831  0.56307  1.0000
  H   H578      1.0  0.26777  0.01684  0.46081  1.0000
  C   C606      1.0  0.14249  0.99718  0.47708  1.0000
  C   C607      1.0  0.17657  0.13668  0.53888  1.0000
  H   H579      1.0  0.30264  0.01237  0.41843  1.0000
  C   C608      1.0  0.41916  0.14855  0.46583  1.0000
  H   H580      1.0  0.14055  0.99590  0.49059  1.0000
  S   S218      1.0  0.09657  0.35111  0.56103  1.0000
  H   H581      1.0  0.38427  0.11039  0.46957  1.0000
  N   N47       1.0  0.10416  0.25750  0.45616  1.0000
  C   C609      1.0  0.10074  0.27176  0.44396  1.0000
  C   C610      1.0  0.11112  0.24210  0.45190  1.0000
  C   C611      1.0  0.10400  0.27073  0.42703  1.0000
  C   C612      1.0  0.11441  0.24058  0.43512  1.0000
  C   C613      1.0  0.11089  0.25504  0.42262  1.0000
  C   C614      1.0  0.10097  0.25867  0.47384  1.0000
  H   H582      1.0  0.09544  0.28403  0.44725  1.0000
  H   H583      1.0  0.11409  0.23086  0.46154  1.0000
  H   H584      1.0  0.10103  0.28197  0.41735  1.0000
  H   H585      1.0  0.11957  0.22826  0.43187  1.0000
  H   H586      1.0  0.11334  0.25413  0.40951  1.0000
  Fe  Fe113     1.0  0.04891  0.33129  0.39929  1.0000
  H   H587      1.0  0.18822  0.47978  0.55116  1.0000
  C   C615      1.0  0.19864  0.00264  0.55966  1.0000
  H   H588      1.0  0.01275  0.31903  0.56646  1.0000
  H   H589      1.0  0.49251  0.26467  0.57054  1.0000
  C   C616      1.0  0.24710  0.08582  0.55011  1.0000
  N   N48       1.0  0.06283  0.25790  0.56142  1.0000
  H   H590      1.0  0.05116  0.26820  0.43788  1.0000
  H   H591      1.0  0.10951  0.17971  0.57081  1.0000
  S   S219      1.0  0.45291  0.14827  0.40977  1.0000
  N   N49       1.0  0.41015  0.25159  0.47939  1.0000
  C   C617      1.0  0.13339  0.48599  0.54676  1.0000
  S   S220      1.0  0.32243  0.40233  0.40800  1.0000
  H   H592      1.0  0.28262  0.41510  0.55010  1.0000
  H   H593      1.0  0.13077  0.08635  0.38680  1.0000
  C   C618      1.0  0.14535  0.47806  0.55692  1.0000
  H   H594      1.0  0.46167  0.32646  0.56442  1.0000
  C   C619      1.0  0.47158  0.16215  0.42235  1.0000
  N   N50       1.0  0.29393  0.43116  0.50815  1.0000
  C   C620      1.0  0.28010  0.42987  0.50308  1.0000
  C   C621      1.0  0.29505  0.42562  0.52474  1.0000
  H   H595      1.0  0.37059  0.07850  0.38661  1.0000
  C   C622      1.0  0.28201  0.41882  0.53683  1.0000
  H   H596      1.0  0.48596  0.13994  0.52620  1.0000
  C   C623      1.0  0.30782  0.43831  0.49587  1.0000
  H   H597      1.0  0.27902  0.43444  0.48999  1.0000
  H   H598      1.0  0.30600  0.42667  0.52873  1.0000
  C   C624      1.0  0.16371  0.03505  0.50197  1.0000
  H   H599      1.0  0.42914  0.15553  0.46337  1.0000
  S   S221      1.0  0.12709  0.35696  0.40740  1.0000
  C   C625      1.0  0.05944  0.26587  0.57451  1.0000
  H   H600      1.0  0.32364  0.48009  0.38862  1.0000
  N   N51       1.0  0.30768  0.10341  0.49107  1.0000
  C   C626      1.0  0.31831  0.11453  0.48670  1.0000
  C   C627      1.0  0.30005  0.10162  0.47934  1.0000
  C   C628      1.0  0.32166  0.12410  0.47020  1.0000
  C   C629      1.0  0.30308  0.11106  0.46273  1.0000
  C   C630      1.0  0.31382  0.12246  0.45823  1.0000
  C   C631      1.0  0.30382  0.09395  0.50858  1.0000
  H   H601      1.0  0.29172  0.09274  0.48274  1.0000
  H   H602      1.0  0.29725  0.10951  0.45331  1.0000
  H   H603      1.0  0.31621  0.12990  0.44541  1.0000
  H   H604      1.0  0.31466  0.09161  0.51484  1.0000
  H   H605      1.0  0.29229  0.10121  0.51592  1.0000
  H   H606      1.0  0.30162  0.08133  0.50914  1.0000
  S   S222      1.0  0.48634  0.16963  0.54158  1.0000
  H   H607      1.0  0.15008  0.00145  0.42904  1.0000
  H   H608      1.0  0.16643  0.02266  0.52740  1.0000
  Fe  Fe114     1.0  0.07859  0.33574  0.56033  1.0000
  S   S223      1.0  0.28478  0.10548  0.55355  1.0000
  C   C632      1.0  0.33207  0.38216  0.40352  1.0000
  S   S224      1.0  0.29996  0.46629  0.53052  1.0000
  S   S225      1.0  0.29298  0.47164  0.56955  1.0000
  H   H609      1.0  0.49347  0.38238  0.39880  1.0000
  H   H610      1.0  0.38159  0.35789  0.51225  1.0000
  S   S226      1.0  0.07532  0.19584  0.56485  1.0000
  H   H611      1.0  0.14006  0.02705  0.44093  1.0000
  H   H612      1.0  0.07922  0.07916  0.40529  1.0000
  C   C633      1.0  0.39398  0.25026  0.39743  1.0000
  C   C634      1.0  0.39269  0.22152  0.39776  1.0000
  C   C635      1.0  0.41559  0.22652  0.40726  1.0000
  Fe  Fe115     1.0  0.19650  0.04858  0.39310  1.0000
  H   H613      1.0  0.45911  0.29345  0.51260  1.0000
  S   S227      1.0  0.31080  0.99497  0.50018  1.0000
  Fe  Fe116     1.0  0.42729  0.15395  0.40305  1.0000
  H   H614      1.0  0.13089  0.44007  0.57897  1.0000
  Fe  Fe117     1.0  0.48933  0.20457  0.44057  1.0000
  C   C636      1.0  0.06138  0.26711  0.54555  1.0000
  H   H615      1.0  0.46031  0.30943  0.48297  1.0000
  H   H616      1.0  0.34203  0.37614  0.55740  1.0000
  C   C637      1.0  0.11742  0.09020  0.38593  1.0000
  H   H617      1.0  0.14567  0.00427  0.56948  1.0000
  H   H618      1.0  0.06635  0.23313  0.57764  1.0000
  H   H619      1.0  0.33137  0.13745  0.40289  1.0000
  N   N52       1.0  0.16271  0.15427  0.48641  1.0000
  S   S228      1.0  0.24134  0.05410  0.55487  1.0000
  H   H620      1.0  0.38834  0.43749  0.56371  1.0000
  C   C638      1.0  0.47553  0.16975  0.48485  1.0000
  C   C639      1.0  0.14743  0.15302  0.49759  1.0000
  C   C640      1.0  0.29819  0.00589  0.55210  1.0000
  H   H621      1.0  0.10982  0.07070  0.40733  1.0000
  H   H622      1.0  0.29221  0.34737  0.41180  1.0000
  Fe  Fe118     1.0  0.17791  0.05813  0.57322  1.0000
  C   C641      1.0  0.48493  0.20564  0.57149  1.0000
  C   C642      1.0  0.21603  0.46248  0.42674  1.0000
  S   S229      1.0  0.18094  0.47399  0.49223  1.0000
  S   S230      1.0  0.44184  0.19311  0.56160  1.0000
  H   H623      1.0  0.41280  0.20182  0.40688  1.0000
  H   H624      1.0  0.16922  0.17010  0.46221  1.0000
  N   N53       1.0  0.15733  0.38664  0.47755  1.0000
  C   C643      1.0  0.16516  0.39423  0.46187  1.0000
  C   C644      1.0  0.16268  0.38649  0.49159  1.0000
  C   C645      1.0  0.17851  0.40220  0.45999  1.0000
  C   C646      1.0  0.17584  0.39454  0.49020  1.0000
  C   C647      1.0  0.18372  0.40252  0.47428  1.0000
  C   C648      1.0  0.14227  0.37987  0.47938  1.0000
  H   H625      1.0  0.16072  0.39462  0.45075  1.0000
  H   H626      1.0  0.15650  0.38047  0.50404  1.0000
  H   H627      1.0  0.18434  0.40862  0.44758  1.0000
  H   H628      1.0  0.17960  0.39488  0.50148  1.0000
  H   H629      1.0  0.19369  0.40914  0.47300  1.0000
  H   H630      1.0  0.13072  0.39036  0.47951  1.0000
  H   H631      1.0  0.14374  0.37378  0.46876  1.0000
  H   H632      1.0  0.14005  0.37029  0.49137  1.0000
  N   N54       1.0  0.14815  0.10247  0.44441  1.0000
  C   C649      1.0  0.42197  0.23675  0.48197  1.0000
  H   H633      1.0  0.41389  0.26421  0.49623  1.0000
  C   C650      1.0  0.37070  0.33638  0.51627  1.0000
  C   C651      1.0  0.23955  0.00116  0.48145  1.0000
  H   H634      1.0  0.47539  0.19736  0.39867  1.0000
  H   H635      1.0  0.14920  0.01852  0.58019  1.0000
  C   C652      1.0  0.46463  0.37531  0.49854  1.0000
  H   H636      1.0  0.33457  0.01042  0.46449  1.0000
  C   C653      1.0  0.15078  0.99324  0.39890  1.0000
  H   H637      1.0  0.12368  0.15261  0.54378  1.0000
  S   S231      1.0  0.04318  0.30590  0.41305  1.0000
  C   C654      1.0  0.40622  0.14882  0.48044  1.0000
  N   N55       1.0  0.30256  0.01913  0.39234  1.0000
  C   C655      1.0  0.41912  0.13940  0.45430  1.0000
  H   H638      1.0  0.16202  0.05059  0.47724  1.0000
  C   C656      1.0  0.37124  0.32774  0.49104  1.0000
  C   C657      1.0  0.08866  0.42204  0.56394  1.0000
  C   C658      1.0  0.36355  0.03138  0.45868  1.0000
  H   H639      1.0  0.14957  0.48352  0.46762  1.0000
  H   H640      1.0  0.06488  0.26087  0.53500  1.0000
  C   C659      1.0  0.36716  0.46365  0.58406  1.0000
  H   H641      1.0  0.13336  0.12780  0.44006  1.0000
  C   C660      1.0  0.08025  0.22249  0.40252  1.0000
  Fe  Fe119     1.0  0.13221  0.38309  0.40239  1.0000
  C   C661      1.0  0.39334  0.13991  0.48326  1.0000
  S   S232      1.0  0.08459  0.30710  0.56757  1.0000
  Fe  Fe120     1.0  0.06233  0.29623  0.39146  1.0000
  C   C662      1.0  0.37909  0.39298  0.57261  1.0000
  H   H642      1.0  0.49445  0.17085  0.38830  1.0000
  C   C663      1.0  0.14226  0.01469  0.44921  1.0000
  H   H643      1.0  0.25386  0.11717  0.58015  1.0000
  C   C664      1.0  0.13971  0.01321  0.46656  1.0000
  S   S233      1.0  0.16412  0.08162  0.55818  1.0000
  H   H644      1.0  0.13872  0.10166  0.47064  1.0000
  C   C665      1.0  0.23181  0.03102  0.47836  1.0000
  N   N56       1.0  0.39646  0.41111  0.57379  1.0000
  H   H645      1.0  0.19625  0.01469  0.48790  1.0000
  H   H646      1.0  0.13581  0.02448  0.47182  1.0000
  Fe  Fe121     1.0  0.15905  0.40488  0.38730  1.0000
  H   H647      1.0  0.25568  0.42247  0.51085  1.0000
  H   H648      1.0  0.10497  0.39733  0.56337  1.0000
  N   N57       1.0  0.38306  0.35150  0.48899  1.0000
  C   C666      1.0  0.37913  0.34104  0.48135  1.0000
  C   C667      1.0  0.39144  0.36536  0.47881  1.0000
  H   H649      1.0  0.38238  0.34269  0.46769  1.0000
  H   H650      1.0  0.40196  0.36585  0.48435  1.0000
  H   H651      1.0  0.39736  0.36359  0.46569  1.0000
  H   H652      1.0  0.38198  0.37761  0.47832  1.0000
  H   H653      1.0  0.39540  0.26918  0.46232  1.0000
  H   H654      1.0  0.12291  0.10225  0.45914  1.0000
  H   H655      1.0  0.14920  0.46809  0.58238  1.0000
  H   H656      1.0  0.47729  0.23113  0.52359  1.0000
  H   H657      1.0  0.46275  0.30630  0.45362  1.0000
  S   S234      1.0  0.18196  0.99249  0.40490  1.0000
  C   C668      1.0  0.05598  0.28474  0.54256  1.0000
  N   N58       1.0  0.08813  0.37614  0.46127  1.0000
  C   C669      1.0  0.09561  0.38883  0.46107  1.0000
  C   C670      1.0  0.07618  0.37071  0.47508  1.0000
  C   C671      1.0  0.09148  0.39617  0.47511  1.0000
  C   C672      1.0  0.07171  0.37780  0.48934  1.0000
  C   C673      1.0  0.07943  0.39061  0.48930  1.0000
  C   C674      1.0  0.09210  0.36911  0.44617  1.0000
  H   H658      1.0  0.10483  0.39338  0.45000  1.0000
  H   H659      1.0  0.07000  0.36087  0.47514  1.0000
  H   H660      1.0  0.09763  0.40609  0.47499  1.0000
  H   H661      1.0  0.06236  0.37339  0.50039  1.0000
  H   H662      1.0  0.07620  0.39611  0.50034  1.0000
  H   H663      1.0  0.08304  0.37643  0.43790  1.0000
  H   H664      1.0  0.10539  0.36958  0.43884  1.0000
  H   H665      1.0  0.09119  0.35560  0.44950  1.0000
  H   H666      1.0  0.43853  0.21586  0.47127  1.0000
  N   N59       1.0  0.11744  0.43154  0.56594  1.0000
  H   H667      1.0  0.14444  0.42682  0.56467  1.0000
  C   C675      1.0  0.08291  0.17856  0.58021  1.0000
  S   S235      1.0  0.15770  0.01845  0.49773  1.0000
  C   C676      1.0  0.05405  0.28349  0.57195  1.0000
  C   C677      1.0  0.07529  0.25319  0.39667  1.0000
  C   C678      1.0  0.13988  0.47401  0.57455  1.0000
  C   C679      1.0  0.37871  0.34948  0.50619  1.0000
  S   S236      1.0  0.42116  0.25783  0.40453  1.0000
  C   C680      1.0  0.40604  0.13066  0.45752  1.0000
  N   N60       1.0  0.11425  0.12110  0.57728  1.0000
  C   C681      1.0  0.27077  0.01556  0.54416  1.0000
  Fe  Fe122     1.0  0.37862  0.31590  0.40333  1.0000
  N   N61       1.0  0.02834  0.25007  0.42293  1.0000
  C   C682      1.0  0.03365  0.26246  0.42655  1.0000
  C   C683      1.0  0.03547  0.23336  0.42833  1.0000
  C   C684      1.0  0.04664  0.25830  0.43553  1.0000
  C   C685      1.0  0.04840  0.22874  0.43746  1.0000
  C   C686      1.0  0.05403  0.24132  0.44103  1.0000
  C   C687      1.0  0.46330  0.22295  0.38887  1.0000
  H   H668      1.0  0.02799  0.27567  0.42220  1.0000
  H   H669      1.0  0.03164  0.22349  0.42511  1.0000
  H   H670      1.0  0.09548  0.23619  0.40833  1.0000
  C   C688      1.0  0.28101  0.00509  0.55532  1.0000
  N   N62       1.0  0.47490  0.28822  0.47235  1.0000
  N   N63       1.0  0.48160  0.37469  0.49696  1.0000
  C   C689      1.0  0.21196  0.47856  0.43029  1.0000
  H   H671      1.0  0.49304  0.26532  0.54871  1.0000
  C   C690      1.0  0.21220  0.48506  0.55078  1.0000
  C   C691      1.0  0.42400  0.23364  0.45377  1.0000
  H   H672      1.0  0.42599  0.23198  0.49396  1.0000
  C   C692      1.0  0.21443  0.03063  0.48189  1.0000
  C   C693      1.0  0.15202  0.00510  0.57916  1.0000
  S   S237      1.0  0.17269  0.06912  0.39376  1.0000
  S   S238      1.0  0.22294  0.05414  0.38582  1.0000
  H   H673      1.0  0.37653  0.03692  0.49139  1.0000
  H   H674      1.0  0.39419  0.27311  0.48908  1.0000
  H   H675      1.0  0.36155  0.14198  0.57583  1.0000
  C   C694      1.0  0.15583  0.15116  0.55956  1.0000
  H   H676      1.0  0.37432  0.24388  0.38957  1.0000
  H   H677      1.0  0.09611  0.38253  0.40324  1.0000
  C   C695      1.0  0.18111  0.00899  0.56498  1.0000
  H   H678      1.0  0.13050  0.40602  0.56512  1.0000
  C   C696      1.0  0.41172  0.24863  0.45139  1.0000
  C   C697      1.0  0.40325  0.26106  0.49290  1.0000
  H   H679      1.0  0.09256  0.27091  0.47626  1.0000
  C   C698      1.0  0.46365  0.16052  0.49564  1.0000
  S   S239      1.0  0.38302  0.20792  0.39262  1.0000
  C   C699      1.0  0.15178  0.16521  0.54665  1.0000
  H   H680      1.0  0.15393  0.18094  0.47761  1.0000
  S   S240      1.0  0.19761  0.05075  0.55074  1.0000
  C   C700      1.0  0.06629  0.22356  0.39579  1.0000
  C   C701      1.0  0.47087  0.36806  0.47134  1.0000
  C   C702      1.0  0.45900  0.37217  0.48570  1.0000
  H   H681      1.0  0.26186  0.04969  0.52128  1.0000
  C   C703      1.0  0.26691  0.42295  0.51481  1.0000
  H   H682      1.0  0.47873  0.28940  0.44586  1.0000
  H   H683      1.0  0.12581  0.99287  0.39620  1.0000
  C   C704      1.0  0.24169  0.00502  0.39797  1.0000
  N   N64       1.0  0.49488  0.15714  0.50366  1.0000
  C   C705      1.0  0.10039  0.17310  0.58018  1.0000
  H   H684      1.0  0.49020  0.26538  0.46508  1.0000
  H   H685      1.0  0.37017  0.47568  0.57686  1.0000
  H   H686      1.0  0.38887  0.26376  0.39445  1.0000
  S   S241      1.0  0.00098  0.30034  0.40615  1.0000
  C   C706      1.0  0.17039  0.11284  0.41424  1.0000
  H   H687      1.0  0.10124  0.45581  0.56755  1.0000
  C   C707      1.0  0.33083  0.37831  0.38879  1.0000
  H   H688      1.0  0.26186  0.36343  0.41595  1.0000
  H   H689      1.0  0.25224  0.46855  0.50414  1.0000
  C   C708      1.0  0.11850  0.41525  0.56509  1.0000
  H   H690      1.0  0.06649  0.38013  0.40564  1.0000
  H   H691      1.0  0.35013  0.00018  0.49001  1.0000
  C   C709      1.0  0.23581  0.99020  0.40645  1.0000
  H   H692      1.0  0.44554  0.37269  0.48693  1.0000
  C   C710      1.0  0.25709  0.09711  0.54933  1.0000
  C   C711      1.0  0.17236  0.04745  0.52036  1.0000
  S   S242      1.0  0.18002  0.07912  0.51055  1.0000
  S   S243      1.0  0.20245  0.09012  0.53964  1.0000
  C   C712      1.0  0.27396  0.09111  0.55155  1.0000
  C   C713      1.0  0.16996  0.06312  0.49205  1.0000
  H   H693      1.0  0.29422  0.99690  0.39356  1.0000
  C   C714      1.0  0.22944  0.45863  0.41328  1.0000
  H   H694      1.0  0.09734  0.27152  0.56952  1.0000
  H   H695      1.0  0.17095  0.07436  0.48215  1.0000
  H   H696      1.0  0.22747  0.00225  0.52167  1.0000
  C   C715      1.0  0.01509  0.25498  0.41301  1.0000
  H   H697      1.0  0.48242  0.15263  0.41805  1.0000
  H   H698      1.0  0.30640  0.99772  0.56048  1.0000
  C   C716      1.0  0.47251  0.30040  0.56254  1.0000
  H   H699      1.0  0.09179  0.16028  0.54862  1.0000
  S   S244      1.0  0.44315  0.15530  0.55566  1.0000
  H   H700      1.0  0.31032  0.44863  0.50016  1.0000
  H   H701      1.0  0.37665  0.38040  0.57490  1.0000
  H   H702      1.0  0.11327  0.25741  0.47738  1.0000
  C   C717      1.0  0.29430  0.02734  0.52693  1.0000
  H   H703      1.0  0.37363  0.09854  0.40206  1.0000
  S   S245      1.0  0.41873  0.13317  0.39786  1.0000
  C   C718      1.0  0.16555  0.17069  0.47578  1.0000
  H   H704      1.0  0.15882  0.47532  0.55123  1.0000
  C   C719      1.0  0.10566  0.08119  0.39749  1.0000
  C   C720      1.0  0.44865  0.36740  0.56525  1.0000
  Fe  Fe123     1.0  0.07355  0.36635  0.57551  1.0000
  C   C721      1.0  0.05226  0.29295  0.55587  1.0000
  Fe  Fe124     1.0  0.18524  0.07543  0.53624  1.0000
  H   H705      1.0  0.47259  0.17836  0.47335  1.0000
  H   H706      1.0  0.42958  0.22679  0.44365  1.0000
  C   C722      1.0  0.10643  0.35571  0.40684  1.0000
  H   H707      1.0  0.14770  0.00666  0.39844  1.0000
  C   C723      1.0  0.08753  0.43846  0.56543  1.0000
  H   H708      1.0  0.35844  0.11060  0.58056  1.0000
  C   C724      1.0  0.05692  0.23946  0.38933  1.0000
  H   H709      1.0  0.25745  0.41264  0.54111  1.0000
  Fe  Fe125     1.0  0.08120  0.18218  0.39981  1.0000
  C   C725      1.0  0.26226  0.01693  0.47440  1.0000
  C   C726      1.0  0.26789  0.41744  0.53179  1.0000
  C   C727      1.0  0.08849  0.13891  0.56924  1.0000
  C   C728      1.0  0.28119  0.07378  0.55356  1.0000
  H   H710      1.0  0.29418  0.06905  0.55535  1.0000
  S   S246      1.0  0.40880  0.18592  0.55273  1.0000
  C   C729      1.0  0.42908  0.22756  0.46921  1.0000
  S   S247      1.0  0.38460  0.16198  0.38913  1.0000
  N   N65       1.0  0.27759  0.02619  0.52997  1.0000
  H   H711      1.0  0.40604  0.26762  0.52593  1.0000
  C   C730      1.0  0.48742  0.37719  0.51087  1.0000
  S   S248      1.0  0.41714  0.23163  0.53051  1.0000
  H   H712      1.0  0.31812  0.01805  0.53542  1.0000
  H   H713      1.0  0.46999  0.22858  0.39458  1.0000
  H   H714      1.0  0.49745  0.36416  0.45881  1.0000
  C   C731      1.0  0.25408  0.06845  0.55270  1.0000
  Fe  Fe126     1.0  0.18237  0.09419  0.56302  1.0000
  H   H715      1.0  0.05529  0.29205  0.52989  1.0000
  Fe  Fe127     1.0  0.39620  0.18039  0.39507  1.0000
  C   C732      1.0  0.22472  0.41145  0.39768  1.0000
  C   C733      1.0  0.46751  0.14962  0.51052  1.0000
  H   H716      1.0  0.05203  0.28989  0.58214  1.0000
  H   H717      1.0  0.14921  0.15130  0.57254  1.0000
  C   C734      1.0  0.34618  0.34938  0.39734  1.0000
  H   H718      1.0  0.27669  0.04901  0.55608  1.0000
  C   C735      1.0  0.43856  0.35763  0.57818  1.0000
  S   S249      1.0  0.05613  0.34945  0.57705  1.0000
  C   C736      1.0  0.48140  0.20398  0.53061  1.0000
  H   H719      1.0  0.09700  0.48781  0.57745  1.0000
  H   H720      1.0  0.34297  0.46884  0.57678  1.0000
  H   H721      1.0  0.27428  0.03816  0.50496  1.0000
  H   H722      1.0  0.08736  0.21028  0.40776  1.0000
  C   C737      1.0  0.38581  0.23900  0.39459  1.0000
  H   H723      1.0  0.01914  0.26373  0.40086  1.0000
  H   H724      1.0  0.04873  0.30667  0.55363  1.0000
  Fe  Fe128     1.0  0.42588  0.17349  0.57131  1.0000
  H   H725      1.0  0.16545  0.07836  0.44586  1.0000
  H   H726      1.0  0.20888  0.45296  0.43446  1.0000
  C   C738      1.0  0.14475  0.11883  0.43552  1.0000
  Fe  Fe129     1.0  0.31690  0.45151  0.57177  1.0000
  H   H727      1.0  0.43469  0.34747  0.57574  1.0000
  C   C739      1.0  0.30482  0.01725  0.53795  1.0000
  Fe  Fe130     1.0  0.41463  0.32122  0.39472  1.0000
  H   H728      1.0  0.18516  0.08722  0.41885  1.0000
  H   H729      1.0  0.07461  0.14233  0.57168  1.0000
  H   H730      1.0  0.11284  0.32859  0.40998  1.0000
  H   H731      1.0  0.25003  0.38052  0.39120  1.0000
  S   S250      1.0  0.49635  0.21678  0.45759  1.0000
  H   H732      1.0  0.08334  0.32629  0.41098  1.0000
  H   H733      1.0  0.18402  0.11344  0.49499  1.0000
  C   C740      1.0  0.08850  0.08596  0.39638  1.0000
  S   S251      1.0  0.27783  0.43444  0.40089  1.0000
  S   S252      1.0  0.24012  0.41212  0.40813  1.0000
  H   H734      1.0  0.45821  0.14263  0.51915  1.0000
  C   C741      1.0  0.13261  0.43685  0.56656  1.0000
  H   H735      1.0  0.36254  0.43416  0.55682  1.0000
  C   C742      1.0  0.19744  0.48767  0.54465  1.0000
  H   H736      1.0  0.31979  0.42836  0.49468  1.0000
  H   H737      1.0  0.13768  0.12714  0.56212  1.0000
  S   S253      1.0  0.17172  0.11874  0.57174  1.0000
  H   H738      1.0  0.20585  0.40698  0.42075  1.0000
  H   H739      1.0  0.15648  0.11098  0.51537  1.0000
  C   C743      1.0  0.19638  0.40734  0.39919  1.0000
  C   C744      1.0  0.10216  0.44303  0.56641  1.0000
  C   C745      1.0  0.15584  0.12427  0.42035  1.0000
  H   H740      1.0  0.13724  0.16417  0.49870  1.0000
  H   H741      1.0  0.17581  0.17435  0.47928  1.0000
  H   H742      1.0  0.06270  0.23393  0.55751  1.0000
  C   C746      1.0  0.27125  0.06246  0.55406  1.0000
  C   C747      1.0  0.20968  0.01518  0.48514  1.0000
  H   H743      1.0  0.42721  0.22163  0.41204  1.0000
  C   C748      1.0  0.39347  0.39524  0.57665  1.0000
  C   C749      1.0  0.17570  0.14027  0.48533  1.0000
  H   H744      1.0  0.30479  0.44369  0.48316  1.0000
  H   H745      1.0  0.18786  0.14130  0.47659  1.0000
  H   H746      1.0  0.18404  0.40505  0.40659  1.0000
  H   H747      1.0  0.27567  0.99635  0.56631  1.0000
  H   H748      1.0  0.07535  0.44750  0.56605  1.0000
  C   C750      1.0  0.38585  0.42492  0.56625  1.0000
  C   C751      1.0  0.20870  0.40848  0.40718  1.0000
  S   S254      1.0  0.08080  0.27151  0.39804  1.0000
  H   H749      1.0  0.15307  0.13729  0.41339  1.0000
  H   H750      1.0  0.09454  0.24847  0.48233  1.0000
  H   H751      1.0  0.00293  0.26171  0.42005  1.0000
  H   H752      1.0  0.29057  0.03335  0.41159  1.0000
  H   H753      1.0  0.21444  0.47525  0.56186  1.0000
  N   N66       1.0  0.24409  0.01636  0.47842  1.0000
  H   H754      1.0  0.45791  0.21673  0.57665  1.0000
  H   H755      1.0  0.46179  0.38787  0.55892  1.0000
  C   C752      1.0  0.22756  0.12609  0.57803  1.0000
  C   C753      1.0  0.37127  0.42314  0.56225  1.0000
  H   H756      1.0  0.45535  0.37816  0.50980  1.0000
  C   C754      1.0  0.48331  0.27161  0.47545  1.0000
  H   H757      1.0  0.12584  0.09503  0.58315  1.0000
  Fe  Fe131     1.0  0.15907  0.99361  0.51644  1.0000
  S   S255      1.0  0.34349  0.98895  0.52904  1.0000
  H   H758      1.0  0.37791  0.11263  0.56487  1.0000
  C   C755      1.0  0.46786  0.20561  0.57948  1.0000
  C   C756      1.0  0.49308  0.18879  0.53468  1.0000
  C   C757      1.0  0.37254  0.10886  0.57860  1.0000
  H   H759      1.0  0.42320  0.40925  0.56903  1.0000
  H   H760      1.0  0.46128  0.29602  0.57070  1.0000
  C   C758      1.0  0.36779  0.40710  0.56567  1.0000
  S   S256      1.0  0.28837  0.39948  0.38710  1.0000
  H   H761      1.0  0.24926  0.98952  0.48159  1.0000
  C   C759      1.0  0.11046  0.48517  0.57189  1.0000
  H   H762      1.0  0.28190  0.01544  0.41366  1.0000
  H   H763      1.0  0.47295  0.26902  0.56327  1.0000
  N   N67       1.0  0.23441  0.48677  0.40691  1.0000
  H   H764      1.0  0.24853  0.01032  0.40383  1.0000
  H   H765      1.0  0.35631  0.40567  0.56299  1.0000
  C   C760      1.0  0.48700  0.32338  0.54855  1.0000
  H   H766      1.0  0.37798  0.09519  0.58278  1.0000
  C   C761      1.0  0.26312  0.37326  0.38923  1.0000
  H   H767      1.0  0.40215  0.38425  0.58222  1.0000
  C   C762      1.0  0.41144  0.41316  0.57840  1.0000
  C   C763      1.0  0.09679  0.12492  0.57967  1.0000
  H   H768      1.0  0.00196  0.38019  0.58121  1.0000
  H   H769      1.0  0.17604  0.02249  0.56152  1.0000
  H   H770      1.0  0.48722  0.33672  0.54570  1.0000
  H   H771      1.0  0.20083  0.13109  0.57720  1.0000
  H   H772      1.0  0.41039  0.42649  0.57893  1.0000
  C   C764      1.0  0.47264  0.31762  0.55906  1.0000
  C   C765      1.0  0.48316  0.26241  0.49205  1.0000
  C   C766      1.0  0.12242  0.47752  0.58211  1.0000
  C   C767      1.0  0.36999  0.13637  0.58460  1.0000
  H   H773      1.0  0.22880  0.13910  0.57262  1.0000
  C   C768      1.0  0.24166  0.11363  0.58239  1.0000
  S   S257      1.0  0.35826  0.05792  0.58383  1.0000
  C   C769      1.0  0.33777  0.36194  0.38577  1.0000
  H   H774      1.0  0.38138  0.12593  0.38597  1.0000
  H   H775      1.0  0.05402  0.26636  0.38492  1.0000
  H   H776      1.0  0.04592  0.09982  0.73292  1.0000
  H   H777      1.0  0.47630  0.47836  0.73663  1.0000
  C   C770      1.0  0.46581  0.11606  0.65781  1.0000
  H   H778      1.0  0.08441  0.11251  0.68862  1.0000
  H   H779      1.0  0.05852  0.13723  0.75202  1.0000
  S   S258      1.0  0.44197  0.08594  0.74804  1.0000
  C   C771      1.0  0.07999  0.05243  0.69321  1.0000
  Fe  Fe132     1.0  0.42784  0.43553  0.75358  1.0000
  S   S259      1.0  0.44558  0.44132  0.76620  1.0000
  S   S260      1.0  0.44059  0.42193  0.73211  1.0000
  Fe  Fe133     1.0  0.08802  0.47481  0.61640  1.0000
  H   H780      1.0  0.40888  0.02473  0.70185  1.0000
  H   H781      1.0  0.09129  0.01782  0.66259  1.0000
  H   H782      1.0  0.22384  0.07957  0.59636  1.0000
  C   C772      1.0  0.06891  0.39604  0.59818  1.0000
  S   S261      1.0  0.41183  0.46189  0.74998  1.0000
  H   H783      1.0  0.35618  0.47693  0.62010  1.0000
  H   H784      1.0  0.02285  0.41881  0.62959  1.0000
  C   C773      1.0  0.33939  0.44234  0.64008  1.0000
  N   N68       1.0  0.08490  0.99723  0.63621  1.0000
  H   H785      1.0  0.05646  0.20245  0.76472  1.0000
  C   C774      1.0  0.39102  0.12224  0.60758  1.0000
  H   H786      1.0  0.47750  0.15028  0.60065  1.0000
  S   S262      1.0  0.41857  0.99255  0.59640  1.0000
  N   N69       1.0  0.07784  0.05304  0.72211  1.0000
  H   H787      1.0  0.03548  0.14512  0.77635  1.0000
  H   H788      1.0  0.04863  0.39886  0.58563  1.0000
  S   S263      1.0  0.06710  0.48581  0.60201  1.0000
  H   H789      1.0  0.39910  0.11650  0.61671  1.0000
  C   C775      1.0  0.08525  0.01042  0.64265  1.0000
  C   C776      1.0  0.37052  0.02794  0.64881  1.0000
  C   C777      1.0  0.22496  0.09266  0.59135  1.0000
  H   H790      1.0  0.13478  0.10882  0.58997  1.0000
  Fe  Fe134     1.0  0.06340  0.10182  0.66966  1.0000
  S   S264      1.0  0.05446  0.08426  0.65973  1.0000
  S   S265      1.0  0.05240  0.10106  0.69750  1.0000
  Fe  Fe135     1.0  0.08351  0.11571  0.63489  1.0000
  S   S266      1.0  0.07602  0.09931  0.62236  1.0000
  S   S267      1.0  0.10206  0.13208  0.61898  1.0000
  Fe  Fe136     1.0  0.04979  0.10632  0.63834  1.0000
  H   H791      1.0  0.43563  0.10756  0.68861  1.0000
  Fe  Fe137     1.0  0.08146  0.07888  0.64480  1.0000
  S   S268      1.0  0.09480  0.05190  0.64359  1.0000
  S   S269      1.0  0.05684  0.12446  0.64918  1.0000
  S   S270      1.0  0.09087  0.09459  0.65649  1.0000
  H   H792      1.0  0.38783  0.14771  0.61046  1.0000
  C   C778      1.0  0.10609  0.15904  0.59240  1.0000
  S   S271      1.0  0.48787  0.45457  0.67629  1.0000
  Fe  Fe138     1.0  0.44852  0.42984  0.62063  1.0000
  S   S272      1.0  0.44194  0.40813  0.64169  1.0000
  S   S273      1.0  0.47527  0.43371  0.61491  1.0000
  Fe  Fe139     1.0  0.41361  0.43944  0.61162  1.0000
  S   S274      1.0  0.40433  0.41862  0.63211  1.0000
  C   C779      1.0  0.47430  0.44129  0.71909  1.0000
  Fe  Fe140     1.0  0.41706  0.42635  0.64827  1.0000
  S   S275      1.0  0.40179  0.43150  0.67367  1.0000
  Fe  Fe141     1.0  0.43012  0.40285  0.62315  1.0000
  S   S276      1.0  0.43248  0.37695  0.61896  1.0000
  S   S277      1.0  0.42448  0.44852  0.62831  1.0000
  S   S278      1.0  0.43862  0.42320  0.60160  1.0000
  C   C780      1.0  0.49345  0.09750  0.65920  1.0000
  H   H793      1.0  0.07495  0.03012  0.68926  1.0000
  H   H794      1.0  0.47333  0.05573  0.63185  1.0000
  Fe  Fe142     1.0  0.43153  0.07691  0.65025  1.0000
  S   S279      1.0  0.40538  0.08637  0.66509  1.0000
  S   S280      1.0  0.45107  0.09286  0.63668  1.0000
  Fe  Fe143     1.0  0.42532  0.04172  0.65591  1.0000
  S   S281      1.0  0.39856  0.04841  0.67065  1.0000
  S   S282      1.0  0.43618  0.01456  0.65439  1.0000
  Fe  Fe144     1.0  0.39665  0.07241  0.65084  1.0000
  S   S283      1.0  0.37320  0.08517  0.64015  1.0000
  Fe  Fe145     1.0  0.40994  0.06147  0.68346  1.0000
  S   S284      1.0  0.40244  0.05668  0.71197  1.0000
  S   S285      1.0  0.42254  0.06459  0.63477  1.0000
  S   S286      1.0  0.43699  0.05317  0.66993  1.0000
  C   C781      1.0  0.35772  0.03618  0.63975  1.0000
  N   N70       1.0  0.00278  0.13064  0.67135  1.0000
  C   C782      1.0  0.35445  0.46519  0.62908  1.0000
  H   H795      1.0  0.48457  0.41541  0.68424  1.0000
  C   C783      1.0  0.38098  0.00782  0.63072  1.0000
  H   H796      1.0  0.46857  0.41419  0.66381  1.0000
  Fe  Fe146     1.0  0.06333  0.46604  0.64978  1.0000
  C   C784      1.0  0.12278  0.10651  0.58841  1.0000
  S   S287      1.0  0.05888  0.45246  0.67718  1.0000
  C   C785      1.0  0.07120  0.16992  0.59248  1.0000
  H   H797      1.0  0.43298  0.11950  0.66782  1.0000
  Fe  Fe147     1.0  0.05645  0.46316  0.61695  1.0000
  S   S288      1.0  0.16556  0.03755  0.59135  1.0000
  H   H798      1.0  0.38698  0.46811  0.62657  1.0000
  S   S289      1.0  0.07832  0.45119  0.62996  1.0000
  C   C786      1.0  0.01651  0.12174  0.68044  1.0000
  H   H799      1.0  0.48738  0.06726  0.78230  1.0000
  H   H800      1.0  0.03606  0.42866  0.58828  1.0000
  N   N71       1.0  0.47608  0.17681  0.59413  1.0000
  H   H801      1.0  0.45869  0.03438  0.63021  1.0000
  H   H802      1.0  0.39196  0.09864  0.60186  1.0000
  C   C787      1.0  0.05795  0.14828  0.75660  1.0000
  H   H803      1.0  0.43419  0.09720  0.67295  1.0000
  H   H804      1.0  0.47833  0.39063  0.64865  1.0000
  H   H805      1.0  0.36184  0.02084  0.59772  1.0000
  C   C788      1.0  0.07634  0.40402  0.60606  1.0000
  C   C789      1.0  0.06937  0.42093  0.60739  1.0000
  S   S290      1.0  0.02658  0.11514  0.62665  1.0000
  S   S291      1.0  0.03133  0.45881  0.77301  1.0000
  H   H806      1.0  0.08754  0.39712  0.61109  1.0000
  H   H807      1.0  0.07516  0.42695  0.61349  1.0000
  H   H808      1.0  0.46311  0.11487  0.60517  1.0000
  H   H809      1.0  0.08915  0.11750  0.59001  1.0000
  H   H810      1.0  0.38721  0.04834  0.59963  1.0000
  H   H811      1.0  0.48276  0.48193  0.76675  1.0000
  C   C790      1.0  0.08084  0.06061  0.70529  1.0000
  H   H812      1.0  0.07560  0.42150  0.66088  1.0000
  H   H813      1.0  0.32951  0.43628  0.63980  1.0000
  Fe  Fe148     1.0  0.43138  0.08407  0.77600  1.0000
  C   C791      1.0  0.05725  0.46374  0.69259  1.0000
  C   C792      1.0  0.05119  0.45684  0.70968  1.0000
  C   C793      1.0  0.04938  0.46574  0.72221  1.0000
  H   H814      1.0  0.45065  0.47082  0.69599  1.0000
  C   C794      1.0  0.25503  0.08410  0.59335  1.0000
  H   H815      1.0  0.04769  0.44466  0.71324  1.0000
  H   H816      1.0  0.04440  0.46046  0.73529  1.0000
  C   C795      1.0  0.36961  0.07747  0.62431  1.0000
  C   C796      1.0  0.35455  0.08484  0.61830  1.0000
  C   C797      1.0  0.35120  0.07906  0.60566  1.0000
  C   C798      1.0  0.36294  0.06593  0.59887  1.0000
  C   C799      1.0  0.37813  0.05860  0.60477  1.0000
  C   C800      1.0  0.38148  0.06438  0.61748  1.0000
  H   H817      1.0  0.34535  0.09498  0.62355  1.0000
  C   C801      1.0  0.38689  0.11218  0.59914  1.0000
  H   H818      1.0  0.49520  0.42676  0.73115  1.0000
  H   H819      1.0  0.39314  0.05861  0.62207  1.0000
  C   C802      1.0  0.42636  0.14526  0.60958  1.0000
  C   C803      1.0  0.41793  0.13751  0.62544  1.0000
  C   C804      1.0  0.42539  0.12136  0.63363  1.0000
  C   C805      1.0  0.44165  0.11310  0.62634  1.0000
  C   C806      1.0  0.45048  0.12115  0.61083  1.0000
  C   C807      1.0  0.47163  0.16162  0.60627  1.0000
  H   H820      1.0  0.40544  0.14388  0.63132  1.0000
  H   H821      1.0  0.41858  0.11547  0.64570  1.0000
  N   N72       1.0  0.39324  0.02579  0.76169  1.0000
  H   H822      1.0  0.37323  0.47780  0.64370  1.0000
  H   H823      1.0  0.14332  0.06956  0.59894  1.0000
  C   C808      1.0  0.42165  0.01581  0.61194  1.0000
  C   C809      1.0  0.42492  0.02086  0.62510  1.0000
  C   C810      1.0  0.43030  0.00868  0.63873  1.0000
  C   C811      1.0  0.05671  0.19095  0.77506  1.0000
  H   H824      1.0  0.42371  0.03412  0.62442  1.0000
  C   C812      1.0  0.48091  0.08722  0.76115  1.0000
  N   N73       1.0  0.45795  0.10393  0.66921  1.0000
  C   C813      1.0  0.48366  0.11301  0.65262  1.0000
  C   C814      1.0  0.00662  0.14050  0.65553  1.0000
  H   H825      1.0  0.06131  0.25869  0.58693  1.0000
  C   C815      1.0  0.35914  0.43280  0.60283  1.0000
  H   H826      1.0  0.38325  0.42752  0.60993  1.0000
  H   H827      1.0  0.35603  0.42086  0.61017  1.0000
  C   C816      1.0  0.48460  0.44932  0.65882  1.0000
  C   C817      1.0  0.46787  0.45050  0.65753  1.0000
  C   C818      1.0  0.46497  0.44586  0.64396  1.0000
  C   C819      1.0  0.47877  0.44027  0.63150  1.0000
  H   H828      1.0  0.41771  0.02523  0.60127  1.0000
  C   C820      1.0  0.48505  0.39100  0.65787  1.0000
  H   H829      1.0  0.45712  0.45483  0.66710  1.0000
  H   H830      1.0  0.45204  0.44655  0.64324  1.0000
  H   H831      1.0  0.38752  0.45767  0.64811  1.0000
  C   C821      1.0  0.41885  0.02040  0.77920  1.0000
  C   C822      1.0  0.07882  0.00050  0.62059  1.0000
  H   H832      1.0  0.08250  0.05840  0.67986  1.0000
  C   C823      1.0  0.06379  0.02939  0.78130  1.0000
  H   H833      1.0  0.46022  0.01408  0.61132  1.0000
  H   H834      1.0  0.45297  0.39347  0.58787  1.0000
  S   S292      1.0  0.07505  0.48877  0.63747  1.0000
  H   H835      1.0  0.07090  0.03167  0.74070  1.0000
  S   S293      1.0  0.04483  0.45051  0.60376  1.0000
  C   C824      1.0  0.37408  0.14684  0.59259  1.0000
  C   C825      1.0  0.14599  0.04251  0.60569  1.0000
  C   C826      1.0  0.13758  0.05919  0.60685  1.0000
  C   C827      1.0  0.12181  0.06234  0.61849  1.0000
  C   C828      1.0  0.11454  0.04880  0.62892  1.0000
  C   C829      1.0  0.12313  0.03223  0.62774  1.0000
  C   C830      1.0  0.13871  0.02910  0.61620  1.0000
  H   H836      1.0  0.07007  0.99203  0.62195  1.0000
  H   H837      1.0  0.11536  0.07516  0.61952  1.0000
  H   H838      1.0  0.11784  0.02169  0.63585  1.0000
  H   H839      1.0  0.14523  0.01620  0.61552  1.0000
  S   S294      1.0  0.05254  0.01953  0.77340  1.0000
  C   C831      1.0  0.47219  0.00783  0.61593  1.0000
  H   H840      1.0  0.38468  0.02757  0.73928  1.0000
  Fe  Fe149     1.0  0.42834  0.46708  0.76423  1.0000
  C   C832      1.0  0.07693  0.15570  0.60451  1.0000
  C   C833      1.0  0.09440  0.15024  0.60451  1.0000
  C   C834      1.0  0.38214  0.01355  0.64441  1.0000
  H   H841      1.0  0.08104  0.02345  0.63634  1.0000
  H   H842      1.0  0.08450  0.05284  0.74491  1.0000
  H   H843      1.0  0.06785  0.14896  0.61377  1.0000
  H   H844      1.0  0.33275  0.46381  0.62039  1.0000
  H   H845      1.0  0.47355  0.38071  0.60748  1.0000
  H   H846      1.0  0.45963  0.00374  0.71081  1.0000
  C   C835      1.0  0.45048  0.45903  0.70595  1.0000
  H   H847      1.0  0.33933  0.08456  0.60143  1.0000
  C   C836      1.0  0.05378  0.48153  0.71770  1.0000
  C   C837      1.0  0.38464  0.13969  0.60416  1.0000
  H   H848      1.0  0.01151  0.11776  0.69424  1.0000
  H   H849      1.0  0.48987  0.12265  0.64362  1.0000
  H   H850      1.0  0.45316  0.44849  0.69937  1.0000
  H   H851      1.0  0.43756  0.45954  0.71437  1.0000
  C   C838      1.0  0.00745  0.10856  0.63803  1.0000
  C   C839      1.0  0.43380  0.36064  0.59458  1.0000
  C   C840      1.0  0.04499  0.15277  0.77014  1.0000
  C   C841      1.0  0.46992  0.46243  0.78313  1.0000
  C   C842      1.0  0.49260  0.10753  0.77455  1.0000
  H   H852      1.0  0.45950  0.46596  0.77658  1.0000
  H   H853      1.0  0.42616  0.35285  0.60456  1.0000
  H   H854      1.0  0.08384  0.07308  0.70110  1.0000
  C   C843      1.0  0.48041  0.04550  0.62543  1.0000
  H   H855      1.0  0.48565  0.12720  0.75365  1.0000
  C   C844      1.0  0.06029  0.48821  0.70065  1.0000
  C   C845      1.0  0.04391  0.40243  0.64032  1.0000
  C   C846      1.0  0.42004  0.01443  0.70214  1.0000
  H   H856      1.0  0.06551  0.38971  0.65156  1.0000
  H   H857      1.0  0.02554  0.12996  0.67888  1.0000
  H   H858      1.0  0.07153  0.01372  0.61734  1.0000
  C   C847      1.0  0.42970  0.42498  0.71586  1.0000
  C   C848      1.0  0.41248  0.43325  0.71735  1.0000
  C   C849      1.0  0.40408  0.43524  0.70429  1.0000
  C   C850      1.0  0.41289  0.42925  0.68957  1.0000
  C   C851      1.0  0.43022  0.42132  0.68792  1.0000
  C   C852      1.0  0.43856  0.41907  0.70109  1.0000
  H   H859      1.0  0.40554  0.43781  0.72869  1.0000
  H   H860      1.0  0.39067  0.44136  0.70567  1.0000
  H   H861      1.0  0.43706  0.41660  0.67667  1.0000
  H   H862      1.0  0.45186  0.41264  0.69991  1.0000
  H   H863      1.0  0.06910  0.01676  0.71989  1.0000
  H   H864      1.0  0.49285  0.07312  0.67599  1.0000
  Fe  Fe150     1.0  0.39612  0.45296  0.77568  1.0000
  H   H865      1.0  0.04503  0.39232  0.63408  1.0000
  H   H866      1.0  0.06225  0.10552  0.75064  1.0000
  H   H867      1.0  0.36913  0.16041  0.58979  1.0000
  C   C853      1.0  0.49783  0.04420  0.61820  1.0000
  C   C854      1.0  0.49812  0.01922  0.60917  1.0000
  C   C855      1.0  0.43082  0.07793  0.73810  1.0000
  C   C856      1.0  0.41634  0.07150  0.74721  1.0000
  C   C857      1.0  0.40754  0.06525  0.73901  1.0000
  C   C858      1.0  0.41328  0.06526  0.72174  1.0000
  C   C859      1.0  0.42778  0.07165  0.71261  1.0000
  C   C860      1.0  0.43654  0.07799  0.72080  1.0000
  H   H868      1.0  0.41182  0.07148  0.76054  1.0000
  H   H869      1.0  0.39616  0.06062  0.74605  1.0000
  H   H870      1.0  0.43225  0.07162  0.69931  1.0000
  H   H871      1.0  0.44777  0.08294  0.71382  1.0000
  C   C861      1.0  0.08245  0.11255  0.72969  1.0000
  C   C862      1.0  0.08860  0.11451  0.71216  1.0000
  C   C863      1.0  0.07952  0.11099  0.70213  1.0000
  C   C864      1.0  0.06408  0.10576  0.70958  1.0000
  C   C865      1.0  0.05786  0.10389  0.72710  1.0000
  C   C866      1.0  0.06710  0.10710  0.73716  1.0000
  H   H872      1.0  0.10046  0.11875  0.70630  1.0000
  H   H873      1.0  0.45959  0.11629  0.74168  1.0000
  H   H874      1.0  0.49144  0.37658  0.61740  1.0000
  C   C867      1.0  0.05819  0.04678  0.78070  1.0000
  C   C868      1.0  0.07577  0.03656  0.69846  1.0000
  C   C869      1.0  0.05475  0.42981  0.60111  1.0000
  H   H875      1.0  0.37152  0.03281  0.65912  1.0000
  C   C870      1.0  0.46389  0.46975  0.72216  1.0000
  C   C871      1.0  0.34770  0.44441  0.59350  1.0000
  H   H876      1.0  0.06004  0.41629  0.67995  1.0000
  H   H877      1.0  0.46125  0.07895  0.68449  1.0000
  Fe  Fe151     1.0  0.04432  0.48070  0.76048  1.0000
  C   C872      1.0  0.47594  0.46786  0.73170  1.0000
  C   C873      1.0  0.44887  0.38353  0.58523  1.0000
  C   C874      1.0  0.46363  0.19102  0.59092  1.0000
  H   H878      1.0  0.43430  0.02762  0.71009  1.0000
  C   C875      1.0  0.47964  0.40431  0.66629  1.0000
  C   C876      1.0  0.04464  0.16693  0.77602  1.0000
  C   C877      1.0  0.07049  0.15782  0.74925  1.0000
  C   C878      1.0  0.06988  0.17178  0.75558  1.0000
  H   H879      1.0  0.04794  0.05403  0.77434  1.0000
  S   S295      1.0  0.09398  0.11757  0.74175  1.0000
  C   C879      1.0  0.36359  0.44233  0.65072  1.0000
  C   C880      1.0  0.47218  0.03343  0.62443  1.0000
  H   H880      1.0  0.01783  0.09254  0.65917  1.0000
  C   C881      1.0  0.09700  0.99072  0.66557  1.0000
  H   H881      1.0  0.39004  0.99666  0.62735  1.0000
  H   H882      1.0  0.05767  0.17410  0.59255  1.0000
  C   C882      1.0  0.47352  0.11093  0.73799  1.0000
  C   C883      1.0  0.37894  0.46565  0.63955  1.0000
  C   C884      1.0  0.34119  0.45786  0.62918  1.0000
  H   H883      1.0  0.38158  0.00621  0.59960  1.0000
  H   H884      1.0  0.43638  0.01907  0.75520  1.0000
  H   H885      1.0  0.08986  0.99821  0.60991  1.0000
  C   C885      1.0  0.42307  0.02086  0.76188  1.0000
  N   N74       1.0  0.36887  0.01639  0.62145  1.0000
  H   H886      1.0  0.34948  0.42235  0.65939  1.0000
  Fe  Fe152     1.0  0.06522  0.99379  0.76798  1.0000
  S   S296      1.0  0.07761  0.37477  0.59713  1.0000
  C   C886      1.0  0.48615  0.11399  0.75981  1.0000
  C   C887      1.0  0.43880  0.37366  0.59816  1.0000
  C   C888      1.0  0.46746  0.08862  0.67560  1.0000
  S   S297      1.0  0.39719  0.45767  0.59426  1.0000
  N   N75       1.0  0.24026  0.09713  0.58879  1.0000
  C   C889      1.0  0.37957  0.02935  0.75248  1.0000
  C   C890      1.0  0.48647  0.43892  0.72864  1.0000
  N   N76       1.0  0.48105  0.02053  0.61636  1.0000
  H   H887      1.0  0.47369  0.43081  0.71427  1.0000
  H   H888      1.0  0.26718  0.08869  0.58811  1.0000
  C   C891      1.0  0.35065  0.43449  0.65094  1.0000
  H   H889      1.0  0.47590  0.07932  0.75627  1.0000
  H   H890      1.0  0.37059  0.02070  0.75890  1.0000
  C   C892      1.0  0.44274  0.13710  0.60232  1.0000
  N   N77       1.0  0.05454  0.41406  0.65754  1.0000
  S   S298      1.0  0.04049  0.47606  0.63788  1.0000
  C   C893      1.0  0.04236  0.42865  0.65511  1.0000
  H   H891      1.0  0.45029  0.19106  0.59697  1.0000
  C   C894      1.0  0.03068  0.43051  0.64519  1.0000
  C   C895      1.0  0.03144  0.41727  0.63782  1.0000
  C   C896      1.0  0.06686  0.41271  0.66767  1.0000
  C   C897      1.0  0.41002  0.02371  0.75325  1.0000
  H   H892      1.0  0.04178  0.43905  0.66069  1.0000
  H   H893      1.0  0.07985  0.17895  0.74999  1.0000
  C   C898      1.0  0.09111  0.00733  0.65751  1.0000
  H   H894      1.0  0.08084  0.15412  0.73896  1.0000
  H   H895      1.0  0.39216  0.00700  0.65135  1.0000
  C   C899      1.0  0.49287  0.17678  0.58643  1.0000
  H   H896      1.0  0.11961  0.15485  0.59237  1.0000
  Fe  Fe153     1.0  0.08720  0.11075  0.77029  1.0000
  S   S299      1.0  0.11612  0.47231  0.60428  1.0000
  C   C900      1.0  0.48302  0.47137  0.77757  1.0000
  C   C901      1.0  0.43927  0.10726  0.67496  1.0000
  H   H897      1.0  0.41336  0.02443  0.73975  1.0000
  C   C902      1.0  0.07837  0.06181  0.73475  1.0000
  H   H898      1.0  0.40950  0.99853  0.69335  1.0000
  C   C903      1.0  0.05554  0.40109  0.65014  1.0000
  N   N78       1.0  0.46331  0.45662  0.71585  1.0000
  H   H899      1.0  0.06515  0.06770  0.74053  1.0000
  C   C904      1.0  0.48732  0.45233  0.73491  1.0000
  C   C905      1.0  0.42320  0.99864  0.61268  1.0000
  H   H900      1.0  0.36167  0.99983  0.61088  1.0000
  C   C906      1.0  0.07249  0.02906  0.71565  1.0000
  N   N79       1.0  0.05699  0.17623  0.76874  1.0000
  H   H901      1.0  0.45493  0.48179  0.71990  1.0000
  C   C907      1.0  0.42031  0.99964  0.69752  1.0000
  H   H902      1.0  0.02147  0.44234  0.64275  1.0000
  H   H903      1.0  0.48005  0.12098  0.72932  1.0000
  C   C908      1.0  0.48735  0.08033  0.77586  1.0000
  C   C909      1.0  0.49550  0.43936  0.63263  1.0000
  H   H904      1.0  0.37228  0.43613  0.65923  1.0000
  C   C910      1.0  0.05448  0.40500  0.59162  1.0000
  C   C911      1.0  0.38900  0.02519  0.77869  1.0000
  H   H905      1.0  0.48014  0.99930  0.60738  1.0000
  C   C912      1.0  0.07355  0.03755  0.72737  1.0000
  H   H906      1.0  0.45831  0.12815  0.65258  1.0000
  H   H907      1.0  0.46901  0.99992  0.62884  1.0000
  C   C913      1.0  0.37452  0.43663  0.60284  1.0000
  C   C914      1.0  0.21056  0.10484  0.58739  1.0000
  H   H908      1.0  0.25327  0.08020  0.60730  1.0000
  H   H909      1.0  0.07470  0.39968  0.67042  1.0000
  C   C915      1.0  0.36838  0.01049  0.60676  1.0000
  H   H910      1.0  0.01971  0.14172  0.64972  1.0000
  H   H911      1.0  0.34733  0.03689  0.61878  1.0000
  H   H912      1.0  0.41266  0.40531  0.59118  1.0000
  C   C916      1.0  0.06184  0.47944  0.68810  1.0000
  C   C917      1.0  0.00649  0.09783  0.65404  1.0000
  N   N80       1.0  0.36540  0.45744  0.63979  1.0000
  H   H913      1.0  0.02382  0.11027  0.67552  1.0000
  S   S300      1.0  0.06544  0.47047  0.77483  1.0000
  H   H914      1.0  0.44947  0.14309  0.59022  1.0000
  C   C918      1.0  0.48533  0.08520  0.67075  1.0000
  H   H915      1.0  0.37242  0.04267  0.75189  1.0000
  H   H916      1.0  0.08584  0.07192  0.72906  1.0000
  C   C919      1.0  0.43428  0.01598  0.70687  1.0000
  H   H917      1.0  0.25655  0.07288  0.58806  1.0000
  C   C920      1.0  0.37845  0.45218  0.59370  1.0000
  S   S301      1.0  0.41605  0.16512  0.59934  1.0000
  H   H918      1.0  0.34881  0.04756  0.64287  1.0000
  C   C921      1.0  0.35700  0.03012  0.62609  1.0000
  S   S302      1.0  0.41062  0.42596  0.77811  1.0000
  N   N81       1.0  0.37652  0.11931  0.58778  1.0000
  H   H919      1.0  0.11458  0.10422  0.60131  1.0000
  N   N82       1.0  0.48067  0.10378  0.75316  1.0000
  C   C922      1.0  0.48328  0.38640  0.60943  1.0000
  H   H920      1.0  0.45755  0.16244  0.60984  1.0000
  C   C923      1.0  0.49335  0.09056  0.78248  1.0000
  S   S303      1.0  0.32788  0.43995  0.59500  1.0000
  H   H921      1.0  0.47637  0.15985  0.61791  1.0000
  H   H922      1.0  0.49678  0.45064  0.74225  1.0000
  C   C924      1.0  0.04739  0.42184  0.59314  1.0000
  H   H923      1.0  0.47519  0.10107  0.73081  1.0000
  S   S304      1.0  0.36729  0.45913  0.78128  1.0000
  H   H924      1.0  0.06680  0.48472  0.67502  1.0000
  H   H925      1.0  0.06822  0.18868  0.78032  1.0000
  C   C925      1.0  0.49843  0.44368  0.64640  1.0000
  C   C926      1.0  0.43180  0.99153  0.63949  1.0000
  S   S305      1.0  0.08995  0.98920  0.74910  1.0000
  N   N83       1.0  0.49407  0.39321  0.59341  1.0000
  C   C927      1.0  0.48856  0.40490  0.67786  1.0000
  H   H926      1.0  0.47623  0.39669  0.61629  1.0000
  C   C928      1.0  0.44855  0.00250  0.70717  1.0000
  H   H927      1.0  0.14632  0.99784  0.59161  1.0000
  H   H928      1.0  0.19840  0.10132  0.58954  1.0000
  H   H929      1.0  0.49798  0.18698  0.62366  1.0000
  H   H930      1.0  0.49697  0.11560  0.77983  1.0000
  S   S306      1.0  0.10552  0.09098  0.78442  1.0000
  C   C929      1.0  0.06441  0.41805  0.85686  1.0000
  H   H931      1.0  0.41322  0.03760  0.85191  1.0000
  C   C930      1.0  0.04683  0.30555  0.86821  1.0000
  Fe  Fe154     1.0  0.03742  0.21644  0.87547  1.0000
  S   S307      1.0  0.05014  0.22964  0.85027  1.0000
  S   S308      1.0  0.05286  0.20255  0.89527  1.0000
  Fe  Fe155     1.0  0.02724  0.25078  0.85295  1.0000
  H   H932      1.0  0.06168  0.37526  0.84591  1.0000
  Fe  Fe156     1.0  0.03479  0.21806  0.84019  1.0000
  S   S309      1.0  0.05040  0.20491  0.81918  1.0000
  S   S310      1.0  0.02315  0.20358  0.86539  1.0000
  H   H933      1.0  0.49837  0.08540  0.79387  1.0000
  S   S311      1.0  0.43353  0.42025  0.81554  1.0000
  S   S312      1.0  0.08442  0.05459  0.81076  1.0000
  Fe  Fe157     1.0  0.06304  0.11909  0.80260  1.0000
  H   H934      1.0  0.01837  0.41697  0.84874  1.0000
  S   S313      1.0  0.03876  0.13577  0.81394  1.0000
  H   H935      1.0  0.44574  0.32470  0.88240  1.0000
  C   C931      1.0  0.07692  0.02003  0.78967  1.0000
  S   S314      1.0  0.12290  0.11318  0.80941  1.0000
  C   C932      1.0  0.06525  0.05474  0.78893  1.0000
  S   S315      1.0  0.07886  0.09940  0.81938  1.0000
  Fe  Fe158     1.0  0.14200  0.15127  0.88728  1.0000
  S   S316      1.0  0.12256  0.13880  0.90704  1.0000
  S   S317      1.0  0.13286  0.17679  0.87152  1.0000
  Fe  Fe159     1.0  0.17045  0.11958  0.89198  1.0000
  S   S318      1.0  0.15277  0.10463  0.91178  1.0000
  S   S319      1.0  0.19749  0.10577  0.88337  1.0000
  Fe  Fe160     1.0  0.13415  0.11666  0.89465  1.0000
  S   S320      1.0  0.11594  0.10537  0.88776  1.0000
  Fe  Fe161     1.0  0.14324  0.12845  0.92178  1.0000
  S   S321      1.0  0.15261  0.12968  0.87407  1.0000
  S   S322      1.0  0.16204  0.14277  0.90290  1.0000
  H   H936      1.0  0.31412  0.03142  0.89410  1.0000
  S   S323      1.0  0.41880  0.08045  0.82471  1.0000
  S   S324      1.0  0.40350  0.12982  0.80921  1.0000
  C   C933      1.0  0.49633  0.46679  0.78615  1.0000
  Fe  Fe162     1.0  0.41017  0.06817  0.80891  1.0000
  S   S325      1.0  0.39343  0.04922  0.82114  1.0000
  H   H937      1.0  0.39205  0.42306  0.84346  1.0000
  C   C934      1.0  0.28755  0.18132  0.89009  1.0000
  H   H938      1.0  0.25020  0.07391  0.85494  1.0000
  Fe  Fe163     1.0  0.39182  0.16295  0.88851  1.0000
  S   S326      1.0  0.38116  0.18809  0.87331  1.0000
  S   S327      1.0  0.41095  0.14184  0.87756  1.0000
  Fe  Fe164     1.0  0.37293  0.17280  0.92225  1.0000
  S   S328      1.0  0.36047  0.19864  0.90970  1.0000
  S   S329      1.0  0.36720  0.16530  0.95080  1.0000
  Fe  Fe165     1.0  0.35641  0.18502  0.89195  1.0000
  S   S330      1.0  0.33142  0.19115  0.88366  1.0000
  Fe  Fe166     1.0  0.38630  0.19918  0.89245  1.0000
  S   S331      1.0  0.40194  0.21918  0.88610  1.0000
  S   S332      1.0  0.36673  0.15908  0.90593  1.0000
  S   S333      1.0  0.39908  0.17409  0.90618  1.0000
  Fe  Fe167     1.0  0.32054  0.08383  0.88288  1.0000
  S   S334      1.0  0.32131  0.09332  0.85523  1.0000
  S   S335      1.0  0.34362  0.06443  0.88941  1.0000
  Fe  Fe168     1.0  0.28343  0.10261  0.89237  1.0000
  S   S336      1.0  0.28187  0.11305  0.86525  1.0000
  S   S337      1.0  0.25921  0.11179  0.91029  1.0000
  Fe  Fe169     1.0  0.29555  0.08690  0.86170  1.0000
  S   S338      1.0  0.29010  0.07151  0.84636  1.0000
  Fe  Fe170     1.0  0.30775  0.11812  0.86240  1.0000
  S   S339      1.0  0.31367  0.14325  0.84757  1.0000
  S   S340      1.0  0.29544  0.07607  0.88911  1.0000
  S   S341      1.0  0.30864  0.10912  0.88977  1.0000
  S   S342      1.0  0.27633  0.00209  0.89401  1.0000
  H   H939      1.0  0.04988  0.31792  0.86501  1.0000
  H   H940      1.0  0.37383  0.37109  0.96029  1.0000
  H   H941      1.0  0.32913  0.42525  0.93232  1.0000
  H   H942      1.0  0.04529  0.19358  0.78533  1.0000
  S   S343      1.0  0.46324  0.36965  0.92754  1.0000
  S   S344      1.0  0.08506  0.12991  0.78524  1.0000
  Fe  Fe171     1.0  0.38417  0.31276  0.89470  1.0000
  S   S345      1.0  0.38460  0.32212  0.91712  1.0000
  S   S346      1.0  0.36828  0.29339  0.89870  1.0000
  C   C935      1.0  0.07770  0.04528  0.79808  1.0000
  S   S347      1.0  0.40619  0.34975  0.89031  1.0000
  Fe  Fe172     1.0  0.41195  0.32280  0.90446  1.0000
  S   S348      1.0  0.43351  0.31225  0.91830  1.0000
  Fe  Fe173     1.0  0.37869  0.34818  0.90103  1.0000
  S   S349      1.0  0.35938  0.36926  0.91202  1.0000
  S   S350      1.0  0.41207  0.31155  0.88307  1.0000
  S   S351      1.0  0.37591  0.33889  0.87956  1.0000
  Fe  Fe174     1.0  0.28551  0.45864  0.89515  1.0000
  S   S352      1.0  0.27291  0.44455  0.88467  1.0000
  S   S353      1.0  0.27711  0.45751  0.92305  1.0000
  Fe  Fe175     1.0  0.30503  0.47350  0.86049  1.0000
  S   S354      1.0  0.29355  0.46121  0.84708  1.0000
  H   H943      1.0  0.44950  0.01122  0.81567  1.0000
  Fe  Fe176     1.0  0.26878  0.46868  0.86521  1.0000
  H   H944      1.0  0.24520  0.46000  0.91256  1.0000
  Fe  Fe177     1.0  0.29875  0.43845  0.86775  1.0000
  S   S355      1.0  0.31319  0.41370  0.86083  1.0000
  H   H945      1.0  0.22022  0.46086  0.90115  1.0000
  S   S356      1.0  0.31177  0.45024  0.88010  1.0000
  C   C936      1.0  0.48857  0.07730  0.83008  1.0000
  C   C937      1.0  0.43986  0.03619  0.85057  1.0000
  Fe  Fe178     1.0  0.16416  0.44571  0.86723  1.0000
  S   S357      1.0  0.14597  0.45011  0.89153  1.0000
  S   S358      1.0  0.19216  0.43433  0.86672  1.0000
  Fe  Fe179     1.0  0.13529  0.45544  0.84804  1.0000
  S   S359      1.0  0.11497  0.46077  0.87076  1.0000
  S   S360      1.0  0.12970  0.45787  0.82267  1.0000
  C   C938      1.0  0.43059  0.17593  0.84931  1.0000
  H   H946      1.0  0.04914  0.44313  0.85019  1.0000
  Fe  Fe180     1.0  0.12943  0.43697  0.88475  1.0000
  S   S361      1.0  0.11610  0.41756  0.90414  1.0000
  S   S362      1.0  0.44179  0.09803  0.78868  1.0000
  S   S363      1.0  0.14866  0.43061  0.86168  1.0000
  C   C939      1.0  0.15237  0.11674  0.97649  1.0000
  C   C940      1.0  0.46629  0.37575  0.86611  1.0000
  H   H947      1.0  0.34266  0.99574  0.82164  1.0000
  C   C941      1.0  0.29690  0.46526  0.95827  1.0000
  H   H948      1.0  0.45148  0.35725  0.84344  1.0000
  Fe  Fe181     1.0  0.08343  0.35219  0.88590  1.0000
  S   S364      1.0  0.06162  0.37116  0.89699  1.0000
  S   S365      1.0  0.10773  0.36111  0.87252  1.0000
  Fe  Fe182     1.0  0.06197  0.32578  0.89381  1.0000
  S   S366      1.0  0.06192  0.29848  0.89549  1.0000
  Fe  Fe183     1.0  0.04674  0.36334  0.88299  1.0000
  Fe  Fe184     1.0  0.05553  0.34906  0.91777  1.0000
  S   S367      1.0  0.06893  0.34552  0.87062  1.0000
  S   S368      1.0  0.07887  0.33065  0.90802  1.0000
  C   C942      1.0  0.05423  0.41249  0.81742  1.0000
  C   C943      1.0  0.03827  0.41987  0.82620  1.0000
  C   C944      1.0  0.03079  0.41123  0.84210  1.0000
  C   C945      1.0  0.03921  0.39515  0.84933  1.0000
  C   C946      1.0  0.05515  0.38772  0.84056  1.0000
  C   C947      1.0  0.06259  0.39634  0.82460  1.0000
  H   H949      1.0  0.03136  0.43197  0.82057  1.0000
  C   C948      1.0  0.46066  0.38343  0.96309  1.0000
  H   H950      1.0  0.07488  0.39048  0.81784  1.0000
  S   S369      1.0  0.01303  0.24085  0.83993  1.0000
  C   C949      1.0  0.42678  0.18674  0.86049  1.0000
  H   H951      1.0  0.30155  0.13167  0.91625  1.0000
  C   C950      1.0  0.10954  0.46939  0.81876  1.0000
  H   H952      1.0  0.02731  0.02830  0.83153  1.0000
  C   C951      1.0  0.31958  0.01292  0.87887  1.0000
  H   H953      1.0  0.09259  0.44258  0.80174  1.0000
  H   H954      1.0  0.00703  0.38210  0.84770  1.0000
  H   H955      1.0  0.43737  0.15293  0.83167  1.0000
  C   C952      1.0  0.10645  0.47200  0.80262  1.0000
  C   C953      1.0  0.45577  0.35875  0.85392  1.0000
  H   H956      1.0  0.47602  0.33348  0.93196  1.0000
  N   N84       1.0  0.19430  0.09703  0.94545  1.0000
  C   C954      1.0  0.11282  0.40243  0.89519  1.0000
  C   C955      1.0  0.11689  0.40398  0.87767  1.0000
  C   C956      1.0  0.11561  0.39110  0.87075  1.0000
  C   C957      1.0  0.10945  0.37704  0.88128  1.0000
  C   C958      1.0  0.10483  0.37572  0.89877  1.0000
  C   C959      1.0  0.10684  0.38823  0.90574  1.0000
  H   H957      1.0  0.12107  0.41505  0.86942  1.0000
  H   H958      1.0  0.11919  0.39214  0.85721  1.0000
  H   H959      1.0  0.10025  0.36475  0.90693  1.0000
  H   H960      1.0  0.10409  0.38668  0.91932  1.0000
  C   C960      1.0  0.24751  0.08096  0.84237  1.0000
  C   C961      1.0  0.03653  0.28446  0.86098  1.0000
  C   C962      1.0  0.18896  0.39662  0.86057  1.0000
  C   C963      1.0  0.22894  0.46840  0.86091  1.0000
  C   C964      1.0  0.21192  0.47566  0.85949  1.0000
  C   C965      1.0  0.20039  0.46536  0.86150  1.0000
  C   C966      1.0  0.20596  0.44774  0.86469  1.0000
  C   C967      1.0  0.22297  0.44051  0.86612  1.0000
  C   C968      1.0  0.23440  0.45080  0.86431  1.0000
  Fe  Fe185     1.0  0.00244  0.22728  0.86611  1.0000
  H   H961      1.0  0.18731  0.47102  0.86034  1.0000
  H   H962      1.0  0.22736  0.42690  0.86853  1.0000
  H   H963      1.0  0.24753  0.44510  0.86526  1.0000
  C   C969      1.0  0.29140  0.46110  0.93297  1.0000
  C   C970      1.0  0.28574  0.46283  0.94978  1.0000
  C   C971      1.0  0.49626  0.45335  0.80029  1.0000
  C   C972      1.0  0.31390  0.46561  0.95011  1.0000
  C   C973      1.0  0.31955  0.46419  0.93317  1.0000
  C   C974      1.0  0.30828  0.46199  0.92457  1.0000
  C   C975      1.0  0.07648  0.35535  0.94701  1.0000
  C   C976      1.0  0.23374  0.13328  0.84314  1.0000
  H   H964      1.0  0.33270  0.46452  0.92680  1.0000
  H   H965      1.0  0.31268  0.46077  0.91155  1.0000
  C   C977      1.0  0.34768  0.38307  0.89732  1.0000
  C   C978      1.0  0.35259  0.38209  0.88030  1.0000
  C   C979      1.0  0.34211  0.39175  0.86903  1.0000
  C   C980      1.0  0.32690  0.40278  0.87467  1.0000
  C   C981      1.0  0.32239  0.40445  0.89150  1.0000
  C   C982      1.0  0.33272  0.39450  0.90285  1.0000
  H   H966      1.0  0.36444  0.37383  0.87578  1.0000
  H   H967      1.0  0.34581  0.39064  0.85595  1.0000
  H   H968      1.0  0.31058  0.41289  0.89594  1.0000
  H   H969      1.0  0.32876  0.39527  0.91601  1.0000
  C   C983      1.0  0.35626  0.46629  0.79988  1.0000
  C   C984      1.0  0.04948  0.99683  0.82174  1.0000
  H   H970      1.0  0.43226  0.48359  0.79061  1.0000
  H   H971      1.0  0.04515  0.03796  0.81948  1.0000
  C   C985      1.0  0.35571  0.47363  0.82604  1.0000
  C   C986      1.0  0.36488  0.46718  0.81164  1.0000
  H   H972      1.0  0.37485  0.37823  0.93802  1.0000
  H   H973      1.0  0.19964  0.11764  0.97898  1.0000
  C   C987      1.0  0.32920  0.47756  0.81736  1.0000
  H   H974      1.0  0.37857  0.46294  0.80972  1.0000
  H   H975      1.0  0.45983  0.12232  0.82285  1.0000
  C   C988      1.0  0.22584  0.10687  0.84617  1.0000
  C   C989      1.0  0.45418  0.35334  0.92696  1.0000
  C   C990      1.0  0.43779  0.35717  0.92367  1.0000
  C   C991      1.0  0.43103  0.34442  0.92171  1.0000
  C   C992      1.0  0.44068  0.32784  0.92300  1.0000
  C   C993      1.0  0.45677  0.32386  0.92705  1.0000
  C   C994      1.0  0.46353  0.33661  0.92901  1.0000
  H   H976      1.0  0.43044  0.37007  0.92228  1.0000
  H   H977      1.0  0.41838  0.34746  0.91917  1.0000
  H   H978      1.0  0.46424  0.31102  0.92815  1.0000
  Fe  Fe186     1.0  0.13343  0.47343  0.87506  1.0000
  H   H979      1.0  0.43729  0.04358  0.86006  1.0000
  H   H980      1.0  0.33916  0.43480  0.80563  1.0000
  H   H981      1.0  0.47788  0.43671  0.83228  1.0000
  C   C995      1.0  0.28422  0.05264  0.85899  1.0000
  C   C996      1.0  0.27659  0.05165  0.87610  1.0000
  C   C997      1.0  0.27377  0.03616  0.88663  1.0000
  C   C998      1.0  0.27802  0.02163  0.88000  1.0000
  C   C999      1.0  0.28448  0.02281  0.86261  1.0000
  C   C1000     1.0  0.28765  0.03833  0.85211  1.0000
  H   H982      1.0  0.27275  0.06282  0.88128  1.0000
  H   H983      1.0  0.26844  0.03540  0.90000  1.0000
  H   H984      1.0  0.28761  0.01166  0.85737  1.0000
  H   H985      1.0  0.29325  0.03907  0.83879  1.0000
  C   C1001     1.0  0.39235  0.23990  0.88922  1.0000
  C   C1002     1.0  0.40285  0.25103  0.88765  1.0000
  C   C1003     1.0  0.39566  0.26749  0.89048  1.0000
  C   C1004     1.0  0.37788  0.27289  0.89493  1.0000
  C   C1005     1.0  0.36738  0.26173  0.89654  1.0000
  C   C1006     1.0  0.37456  0.24532  0.89361  1.0000
  H   H986      1.0  0.41662  0.24694  0.88419  1.0000
  H   H987      1.0  0.40386  0.27598  0.88919  1.0000
  H   H988      1.0  0.35361  0.26585  0.89994  1.0000
  H   H989      1.0  0.36634  0.23692  0.89468  1.0000
  C   C1007     1.0  0.37779  0.17425  0.96045  1.0000
  H   H990      1.0  0.10470  0.12004  0.97635  1.0000
  C   C1008     1.0  0.06076  0.35138  0.95600  1.0000
  Fe  Fe187     1.0  0.49141  0.36051  0.92646  1.0000
  C   C1009     1.0  0.40117  0.18696  0.95916  1.0000
  C   C1010     1.0  0.39222  0.18069  0.95119  1.0000
  H   H991      1.0  0.06423  0.39329  0.97390  1.0000
  C   C1011     1.0  0.42994  0.02358  0.83355  1.0000
  H   H992      1.0  0.41241  0.19182  0.95192  1.0000
  H   H993      1.0  0.39664  0.18071  0.93790  1.0000
  C   C1012     1.0  0.32861  0.17699  0.87319  1.0000
  C   C1013     1.0  0.32940  0.15983  0.88089  1.0000
  C   C1014     1.0  0.32474  0.14928  0.87324  1.0000
  C   C1015     1.0  0.31965  0.15579  0.85774  1.0000
  C   C1016     1.0  0.31937  0.17280  0.84992  1.0000
  C   C1017     1.0  0.32356  0.18340  0.85772  1.0000
  H   H994      1.0  0.33313  0.15485  0.89294  1.0000
  H   H995      1.0  0.32546  0.13609  0.87917  1.0000
  H   H996      1.0  0.31552  0.17792  0.83792  1.0000
  H   H997      1.0  0.32276  0.19667  0.85182  1.0000
  H   H998      1.0  0.45135  0.09856  0.81791  1.0000
  C   C1018     1.0  0.38012  0.05357  0.84027  1.0000
  C   C1019     1.0  0.37365  0.07027  0.84224  1.0000
  C   C1020     1.0  0.36249  0.07362  0.85739  1.0000
  C   C1021     1.0  0.35827  0.06029  0.87077  1.0000
  C   C1022     1.0  0.36514  0.04357  0.86893  1.0000
  C   C1023     1.0  0.37578  0.04023  0.85359  1.0000
  H   H999      1.0  0.37688  0.08058  0.83190  1.0000
  H   H1000     1.0  0.35711  0.08652  0.85878  1.0000
  H   H1001     1.0  0.36185  0.03323  0.87923  1.0000
  H   H1002     1.0  0.38076  0.02729  0.85211  1.0000
  C   C1024     1.0  0.40728  0.13376  0.82723  1.0000
  C   C1025     1.0  0.39960  0.14941  0.83175  1.0000
  C   C1026     1.0  0.40079  0.15214  0.84710  1.0000
  C   C1027     1.0  0.40990  0.13927  0.85786  1.0000
  C   C1028     1.0  0.41831  0.12396  0.85291  1.0000
  C   C1029     1.0  0.41694  0.12118  0.83768  1.0000
  H   H1003     1.0  0.39222  0.15925  0.82364  1.0000
  H   H1004     1.0  0.39441  0.16405  0.85071  1.0000
  H   H1005     1.0  0.42563  0.11406  0.86103  1.0000
  H   H1006     1.0  0.42313  0.10919  0.83421  1.0000
  S   S370      1.0  0.03827  0.34301  0.90491  1.0000
  C   C1030     1.0  0.21420  0.10765  0.89138  1.0000
  C   C1031     1.0  0.21173  0.11922  0.90148  1.0000
  C   C1032     1.0  0.22544  0.12023  0.90770  1.0000
  C   C1033     1.0  0.24173  0.11000  0.90341  1.0000
  C   C1034     1.0  0.24414  0.09857  0.89321  1.0000
  C   C1035     1.0  0.23039  0.09726  0.88740  1.0000
  H   H1007     1.0  0.19936  0.12749  0.90432  1.0000
  H   H1008     1.0  0.22355  0.12919  0.91548  1.0000
  H   H1009     1.0  0.25659  0.09051  0.89000  1.0000
  H   H1010     1.0  0.23233  0.08808  0.87986  1.0000
  C   C1036     1.0  0.37552  0.22626  0.96553  1.0000
  C   C1037     1.0  0.12037  0.11238  0.83103  1.0000
  C   C1038     1.0  0.13484  0.11089  0.83725  1.0000
  C   C1039     1.0  0.13353  0.10884  0.85463  1.0000
  C   C1040     1.0  0.11767  0.10861  0.86587  1.0000
  C   C1041     1.0  0.10312  0.11049  0.85962  1.0000
  C   C1042     1.0  0.10445  0.11242  0.84223  1.0000
  H   H1011     1.0  0.14719  0.11086  0.82865  1.0000
  H   H1012     1.0  0.14491  0.10690  0.85936  1.0000
  H   H1013     1.0  0.09080  0.11038  0.86825  1.0000
  H   H1014     1.0  0.09316  0.11395  0.83753  1.0000
  H   H1015     1.0  0.07900  0.18468  0.91375  1.0000
  C   C1043     1.0  0.05052  0.29408  0.88295  1.0000
  C   C1044     1.0  0.04659  0.27806  0.88696  1.0000
  C   C1045     1.0  0.03965  0.27325  0.87601  1.0000
  H   H1016     1.0  0.04936  0.26918  0.89838  1.0000
  H   H1017     1.0  0.03717  0.26069  0.87902  1.0000
  C   C1046     1.0  0.07514  0.19570  0.88844  1.0000
  C   C1047     1.0  0.08506  0.18705  0.90046  1.0000
  C   C1048     1.0  0.10282  0.18137  0.89536  1.0000
  C   C1049     1.0  0.11077  0.18444  0.87821  1.0000
  C   C1050     1.0  0.10093  0.19341  0.86622  1.0000
  C   C1051     1.0  0.08314  0.19876  0.87130  1.0000
  H   H1018     1.0  0.11039  0.17487  0.90475  1.0000
  H   H1019     1.0  0.10701  0.19582  0.85293  1.0000
  H   H1020     1.0  0.07568  0.20495  0.86186  1.0000
  C   C1052     1.0  0.04707  0.18479  0.82061  1.0000
  C   C1053     1.0  0.03059  0.18153  0.82533  1.0000
  C   C1054     1.0  0.02812  0.16609  0.82400  1.0000
  C   C1055     1.0  0.04215  0.15377  0.81831  1.0000
  C   C1056     1.0  0.05867  0.15669  0.81468  1.0000
  C   C1057     1.0  0.06110  0.17226  0.81552  1.0000
  H   H1021     1.0  0.01969  0.19120  0.82925  1.0000
  H   H1022     1.0  0.20482  0.07348  0.96030  1.0000
  Fe  Fe188     1.0  0.04817  0.48560  0.79347  1.0000
  H   H1023     1.0  0.28440  0.14265  0.93054  1.0000
  C   C1058     1.0  0.45125  0.33043  0.86913  1.0000
  H   H1024     1.0  0.43942  0.31973  0.98130  1.0000
  H   H1025     1.0  0.16009  0.07077  0.97105  1.0000
  Fe  Fe189     1.0  0.44475  0.07393  0.80822  1.0000
  H   H1026     1.0  0.08228  0.39397  0.85975  1.0000
  H   H1027     1.0  0.27264  0.46235  0.95626  1.0000
  C   C1059     1.0  0.49323  0.09079  0.83330  1.0000
  C   C1060     1.0  0.33784  0.47876  0.82894  1.0000
  S   S371      1.0  0.24301  0.48159  0.85869  1.0000
  C   C1061     1.0  0.47021  0.44909  0.79734  1.0000
  S   S372      1.0  0.02907  0.38425  0.86882  1.0000
  S   S373      1.0  0.03531  0.46463  0.80904  1.0000
  N   N85       1.0  0.12815  0.06943  0.83121  1.0000
  C   C1062     1.0  0.12994  0.07079  0.84643  1.0000
  C   C1063     1.0  0.11365  0.06555  0.82996  1.0000
  C   C1064     1.0  0.11667  0.06905  0.86076  1.0000
  C   C1065     1.0  0.10016  0.06363  0.84405  1.0000
  C   C1066     1.0  0.10164  0.06558  0.85949  1.0000
  C   C1067     1.0  0.14211  0.07143  0.81628  1.0000
  H   H1028     1.0  0.14146  0.07378  0.84747  1.0000
  H   H1029     1.0  0.11233  0.06418  0.81796  1.0000
  H   H1030     1.0  0.11787  0.07086  0.87265  1.0000
  H   H1031     1.0  0.08855  0.06093  0.84283  1.0000
  H   H1032     1.0  0.08422  0.41906  0.95740  1.0000
  H   H1033     1.0  0.44960  0.13718  0.84541  1.0000
  H   H1034     1.0  0.09112  0.06453  0.87042  1.0000
  S   S374      1.0  0.32822  0.46723  0.96123  1.0000
  N   N86       1.0  0.31877  0.35713  0.88109  1.0000
  C   C1068     1.0  0.32660  0.34193  0.87664  1.0000
  C   C1069     1.0  0.31991  0.35991  0.89598  1.0000
  C   C1070     1.0  0.33549  0.32888  0.88744  1.0000
  C   C1071     1.0  0.32897  0.34725  0.90693  1.0000
  C   C1072     1.0  0.33667  0.33159  0.90267  1.0000
  C   C1073     1.0  0.30980  0.37069  0.86939  1.0000
  H   H1035     1.0  0.32611  0.33984  0.86465  1.0000
  H   H1036     1.0  0.31403  0.37206  0.89936  1.0000
  H   H1037     1.0  0.34178  0.31685  0.88386  1.0000
  H   H1038     1.0  0.33033  0.34968  0.91846  1.0000
  H   H1039     1.0  0.34390  0.32169  0.91095  1.0000
  H   H1040     1.0  0.30165  0.36575  0.86423  1.0000
  H   H1041     1.0  0.30134  0.38098  0.87569  1.0000
  H   H1042     1.0  0.31926  0.37642  0.85878  1.0000
  N   N87       1.0  0.17582  0.39179  0.87550  1.0000
  C   C1074     1.0  0.17313  0.39827  0.88949  1.0000
  C   C1075     1.0  0.16572  0.38156  0.87507  1.0000
  C   C1076     1.0  0.16039  0.39414  0.90370  1.0000
  C   C1077     1.0  0.15304  0.37695  0.88916  1.0000
  C   C1078     1.0  0.15046  0.38325  0.90358  1.0000
  H   H1043     1.0  0.49552  0.40122  0.94851  1.0000
  H   H1044     1.0  0.06960  0.14711  0.81089  1.0000
  C   C1079     1.0  0.46710  0.36267  0.88042  1.0000
  H   H1045     1.0  0.15797  0.39965  0.91460  1.0000
  H   H1046     1.0  0.16732  0.37698  0.86375  1.0000
  H   H1047     1.0  0.14034  0.38019  0.91444  1.0000
  H   H1048     1.0  0.49668  0.06477  0.83192  1.0000
  H   H1049     1.0  0.48741  0.22717  0.91692  1.0000
  H   H1050     1.0  0.49827  0.38882  0.97823  1.0000
  C   C1080     1.0  0.45129  0.31452  0.97269  1.0000
  H   H1051     1.0  0.45759  0.32524  0.96562  1.0000
  H   H1052     1.0  0.23022  0.14650  0.84389  1.0000
  H   H1053     1.0  0.09456  0.39682  0.96126  1.0000
  C   C1081     1.0  0.37633  0.22152  0.93401  1.0000
  H   H1054     1.0  0.23718  0.07643  0.84002  1.0000
  C   C1082     1.0  0.05623  0.34974  0.97358  1.0000
  C   C1083     1.0  0.42753  0.40057  0.82298  1.0000
  C   C1084     1.0  0.07305  0.99427  0.84061  1.0000
  C   C1085     1.0  0.15797  0.08361  0.97254  1.0000
  C   C1086     1.0  0.42797  0.39091  0.81168  1.0000
  S   S375      1.0  0.46854  0.06375  0.81864  1.0000
  C   C1087     1.0  0.47780  0.01568  0.82150  1.0000
  N   N88       1.0  0.08272  0.24711  0.88086  1.0000
  C   C1088     1.0  0.07775  0.24537  0.86734  1.0000
  C   C1089     1.0  0.08802  0.26139  0.88017  1.0000
  C   C1090     1.0  0.07745  0.25834  0.85283  1.0000
  C   C1091     1.0  0.08803  0.27455  0.86580  1.0000
  C   C1092     1.0  0.08254  0.27306  0.85213  1.0000
  C   C1093     1.0  0.08255  0.23337  0.89597  1.0000
  H   H1055     1.0  0.07352  0.23407  0.86798  1.0000
  H   H1056     1.0  0.09161  0.26304  0.89098  1.0000
  H   H1057     1.0  0.07274  0.25724  0.84244  1.0000
  H   H1058     1.0  0.09140  0.28620  0.86568  1.0000
  H   H1059     1.0  0.08172  0.28349  0.84125  1.0000
  H   H1060     1.0  0.08343  0.23756  0.90707  1.0000
  H   H1061     1.0  0.07039  0.22883  0.89942  1.0000
  H   H1062     1.0  0.09342  0.22258  0.89350  1.0000
  N   N89       1.0  0.33153  0.03771  0.85218  1.0000
  C   C1094     1.0  0.32527  0.04097  0.86803  1.0000
  C   C1095     1.0  0.33168  0.02241  0.84931  1.0000
  S   S376      1.0  0.06374  0.10156  0.78630  1.0000
  H   H1063     1.0  0.31543  0.48175  0.81939  1.0000
  N   N90       1.0  0.28518  0.15281  0.90428  1.0000
  C   C1096     1.0  0.33718  0.05096  0.83794  1.0000
  C   C1097     1.0  0.42639  0.03287  0.84597  1.0000
  H   H1064     1.0  0.33612  0.02002  0.83664  1.0000
  H   H1065     1.0  0.20007  0.39847  0.86428  1.0000
  C   C1098     1.0  0.32581  0.00974  0.86262  1.0000
  H   H1066     1.0  0.34051  0.06076  0.84230  1.0000
  H   H1067     1.0  0.34887  0.04560  0.82925  1.0000
  H   H1068     1.0  0.32675  0.05723  0.83094  1.0000
  H   H1069     1.0  0.21592  0.09965  0.84966  1.0000
  H   H1070     1.0  0.42193  0.40187  0.84920  1.0000
  C   C1099     1.0  0.09885  0.43152  0.81037  1.0000
  C   C1100     1.0  0.01263  0.38113  0.83430  1.0000
  H   H1071     1.0  0.46713  0.03299  0.84605  1.0000
  H   H1072     1.0  0.10322  0.42092  0.80363  1.0000
  H   H1073     1.0  0.42123  0.15160  0.96806  1.0000
  H   H1074     1.0  0.07388  0.17470  0.81189  1.0000
  H   H1075     1.0  0.11006  0.43464  0.81270  1.0000
  H   H1076     1.0  0.13698  0.07697  0.80458  1.0000
  H   H1077     1.0  0.15087  0.05901  0.81520  1.0000
  H   H1078     1.0  0.36244  0.47443  0.83504  1.0000
  H   H1079     1.0  0.26861  0.10204  0.83525  1.0000
  S   S377      1.0  0.43665  0.05931  0.79430  1.0000
  H   H1080     1.0  0.45036  0.38158  0.95861  1.0000
  H   H1081     1.0  0.03543  0.02816  0.80933  1.0000
  H   H1082     1.0  0.04050  0.99776  0.81410  1.0000
  H   H1083     1.0  0.33164  0.47084  0.79374  1.0000
  C   C1101     1.0  0.40171  0.02257  0.78769  1.0000
  H   H1084     1.0  0.25921  0.07785  0.83256  1.0000
  S   S378      1.0  0.15283  0.46995  0.85116  1.0000
  S   S379      1.0  0.40410  0.09197  0.78950  1.0000
  N   N91       1.0  0.46005  0.02166  0.82992  1.0000
  H   H1085     1.0  0.37714  0.21923  0.92174  1.0000
  C   C1102     1.0  0.08281  0.35672  0.97312  1.0000
  H   H1086     1.0  0.29145  0.19283  0.88950  1.0000
  C   C1103     1.0  0.48298  0.10711  0.83058  1.0000
  S   S380      1.0  0.01544  0.23859  0.87909  1.0000
  C   C1104     1.0  0.23695  0.47201  0.90832  1.0000
  C   C1105     1.0  0.06089  0.43416  0.84659  1.0000
  H   H1087     1.0  0.29469  0.16875  0.91375  1.0000
  H   H1088     1.0  0.32562  0.99774  0.86028  1.0000
  C   C1106     1.0  0.31929  0.02864  0.88161  1.0000
  S   S381      1.0  0.41125  0.46058  0.78955  1.0000
  C   C1107     1.0  0.45673  0.03017  0.84257  1.0000
  C   C1108     1.0  0.09053  0.48108  0.79905  1.0000
  H   H1089     1.0  0.18698  0.13546  0.95464  1.0000
  C   C1109     1.0  0.42368  0.37498  0.81779  1.0000
  S   S382      1.0  0.04616  0.34928  0.94552  1.0000
  Fe  Fe190     1.0  0.01660  0.47456  0.79211  1.0000
  H   H1090     1.0  0.09944  0.36160  0.94851  1.0000
  C   C1110     1.0  0.28789  0.13840  0.91842  1.0000
  H   H1091     1.0  0.49268  0.25265  0.92271  1.0000
  C   C1111     1.0  0.43608  0.18285  0.87305  1.0000
  C   C1112     1.0  0.45269  0.15786  0.86277  1.0000
  C   C1113     1.0  0.28941  0.16760  0.90377  1.0000
  C   C1114     1.0  0.07949  0.40659  0.85195  1.0000
  C   C1115     1.0  0.41260  0.14534  0.97855  1.0000
  H   H1092     1.0  0.18357  0.40876  0.85258  1.0000
  H   H1093     1.0  0.38107  0.11838  0.97446  1.0000
  C   C1116     1.0  0.08744  0.35815  0.95555  1.0000
  H   H1094     1.0  0.39719  0.24412  0.96494  1.0000
  C   C1117     1.0  0.18925  0.11420  0.94388  1.0000
  H   H1095     1.0  0.41361  0.37407  0.85989  1.0000
  C   C1118     1.0  0.09659  0.47598  0.83134  1.0000
  N   N92       1.0  0.35185  0.42899  0.82602  1.0000
  C   C1119     1.0  0.35005  0.43195  0.84167  1.0000
  C   C1120     1.0  0.36778  0.42372  0.81662  1.0000
  C   C1121     1.0  0.36443  0.42986  0.84821  1.0000
  C   C1122     1.0  0.38243  0.42153  0.82277  1.0000
  C   C1123     1.0  0.38073  0.42466  0.83864  1.0000
  C   C1124     1.0  0.33662  0.43063  0.81964  1.0000
  H   H1096     1.0  0.33743  0.43603  0.84915  1.0000
  H   H1097     1.0  0.36924  0.42146  0.80416  1.0000
  H   H1098     1.0  0.36290  0.43230  0.86060  1.0000
  H   H1099     1.0  0.48604  0.02431  0.82103  1.0000
  H   H1100     1.0  0.08250  0.99337  0.84772  1.0000
  H   H1101     1.0  0.33262  0.41832  0.82349  1.0000
  S   S383      1.0  0.48899  0.12432  0.83372  1.0000
  N   N93       1.0  0.07438  0.40348  0.94807  1.0000
  N   N94       1.0  0.45621  0.34617  0.86818  1.0000
  C   C1125     1.0  0.07249  0.40718  0.93172  1.0000
  S   S384      1.0  0.06386  0.42305  0.79744  1.0000
  C   C1126     1.0  0.05940  0.40243  0.92778  1.0000
  C   C1127     1.0  0.47357  0.08013  0.82428  1.0000
  H   H1102     1.0  0.47863  0.01522  0.80822  1.0000
  H   H1103     1.0  0.19387  0.38678  0.85289  1.0000
  H   H1104     1.0  0.08137  0.41348  0.92157  1.0000
  C   C1128     1.0  0.42234  0.39443  0.84039  1.0000
  H   H1105     1.0  0.05846  0.40462  0.91473  1.0000
  H   H1106     1.0  0.39825  0.02228  0.80114  1.0000
  Fe  Fe191     1.0  0.10095  0.10917  0.80113  1.0000
  N   N95       1.0  0.38817  0.23083  0.95203  1.0000
  H   H1107     1.0  0.28082  0.19002  0.86574  1.0000
  N   N96       1.0  0.09700  0.15762  0.85739  1.0000
  C   C1129     1.0  0.09305  0.15136  0.87445  1.0000
  C   C1130     1.0  0.08459  0.16793  0.84916  1.0000
  C   C1131     1.0  0.07633  0.15550  0.88374  1.0000
  C   C1132     1.0  0.06771  0.17225  0.85804  1.0000
  C   C1133     1.0  0.06360  0.16607  0.87546  1.0000
  C   C1134     1.0  0.11472  0.15400  0.84788  1.0000
  H   H1108     1.0  0.10288  0.14328  0.88102  1.0000
  H   H1109     1.0  0.08775  0.17312  0.83569  1.0000
  H   H1110     1.0  0.07337  0.15085  0.89732  1.0000
  H   H1111     1.0  0.05797  0.18064  0.85150  1.0000
  H   H1112     1.0  0.05069  0.16979  0.88259  1.0000
  H   H1113     1.0  0.11536  0.14928  0.83657  1.0000
  H   H1114     1.0  0.11999  0.16563  0.84398  1.0000
  H   H1115     1.0  0.12310  0.14418  0.85562  1.0000
  N   N97       1.0  0.36405  0.13358  0.84094  1.0000
  C   C1135     1.0  0.36306  0.14203  0.85305  1.0000
  C   C1136     1.0  0.37219  0.11692  0.84239  1.0000
  C   C1137     1.0  0.36968  0.13361  0.86745  1.0000
  C   C1138     1.0  0.37927  0.10819  0.85646  1.0000
  C   C1139     1.0  0.37787  0.11659  0.86911  1.0000
  C   C1140     1.0  0.35710  0.14248  0.82588  1.0000
  H   H1116     1.0  0.35736  0.15543  0.85153  1.0000
  H   H1117     1.0  0.37369  0.11050  0.83237  1.0000
  H   H1118     1.0  0.36907  0.14043  0.87691  1.0000
  H   H1119     1.0  0.38608  0.09510  0.85736  1.0000
  H   H1120     1.0  0.38360  0.11010  0.87992  1.0000
  H   H1121     1.0  0.34866  0.15496  0.82738  1.0000
  H   H1122     1.0  0.36771  0.14451  0.81471  1.0000
  H   H1123     1.0  0.34919  0.13497  0.82351  1.0000
  H   H1124     1.0  0.42451  0.36736  0.80899  1.0000
  C   C1141     1.0  0.47986  0.29712  0.97488  1.0000
  H   H1125     1.0  0.08125  0.00657  0.79021  1.0000
  H   H1126     1.0  0.14940  0.08047  0.81691  1.0000
  Fe  Fe192     1.0  0.41513  0.10367  0.80408  1.0000
  H   H1127     1.0  0.39892  0.23176  0.92572  1.0000
  H   H1128     1.0  0.49639  0.42368  0.82160  1.0000
  C   C1142     1.0  0.08374  0.02796  0.79823  1.0000
  C   C1143     1.0  0.48599  0.39459  0.95725  1.0000
  H   H1129     1.0  0.41663  0.19804  0.85951  1.0000
  C   C1144     1.0  0.39566  0.18696  0.97642  1.0000
  C   C1145     1.0  0.36598  0.37546  0.95050  1.0000
  H   H1130     1.0  0.47010  0.38733  0.86540  1.0000
  H   H1131     1.0  0.02901  0.41914  0.78511  1.0000
  C   C1146     1.0  0.34674  0.40190  0.94020  1.0000
  C   C1147     1.0  0.36279  0.21945  0.96351  1.0000
  H   H1132     1.0  0.46292  0.33766  0.89225  1.0000
  H   H1133     1.0  0.18071  0.40684  0.88968  1.0000
  C   C1148     1.0  0.41855  0.36876  0.83519  1.0000
  H   H1134     1.0  0.44760  0.30949  0.96359  1.0000
  C   C1149     1.0  0.41759  0.37868  0.84648  1.0000
  H   H1135     1.0  0.20832  0.08642  0.98188  1.0000
  H   H1136     1.0  0.31445  0.00343  0.88920  1.0000
  H   H1137     1.0  0.01530  0.16387  0.82693  1.0000
  H   H1138     1.0  0.15127  0.47959  0.89675  1.0000
  C   C1150     1.0  0.19126  0.12189  0.95580  1.0000
  S   S385      1.0  0.32642  0.48707  0.84676  1.0000
  H   H1139     1.0  0.15045  0.12955  0.97797  1.0000
  H   H1140     1.0  0.17051  0.48744  0.90971  1.0000
  C   C1151     1.0  0.28165  0.17971  0.87673  1.0000
  C   C1152     1.0  0.04919  0.39176  0.95748  1.0000
  N   N98       1.0  0.44335  0.16167  0.85063  1.0000
  H   H1141     1.0  0.45644  0.16517  0.88396  1.0000
  H   H1142     1.0  0.43209  0.39548  0.79823  1.0000
  H   H1143     1.0  0.08671  0.32169  0.97131  1.0000
  C   C1153     1.0  0.01952  0.41661  0.79672  1.0000
  H   H1144     1.0  0.44124  0.33279  0.86179  1.0000
  H   H1145     1.0  0.11645  0.46707  0.79278  1.0000
  H   H1146     1.0  0.20532  0.08330  0.92597  1.0000
  H   H1147     1.0  0.36541  0.13584  0.98187  1.0000
  C   C1154     1.0  0.40061  0.13822  0.97555  1.0000
  C   C1155     1.0  0.47248  0.39249  0.95175  1.0000
  C   C1156     1.0  0.38873  0.22849  0.93641  1.0000
  C   C1157     1.0  0.46307  0.09631  0.82211  1.0000
  S   S386      1.0  0.41481  0.34807  0.84234  1.0000
  H   H1148     1.0  0.20770  0.12990  0.85060  1.0000
  N   N99       1.0  0.05084  0.01095  0.82596  1.0000
  H   H1149     1.0  0.14493  0.36896  0.88875  1.0000
  H   H1150     1.0  0.31617  0.42927  0.96164  1.0000
  C   C1158     1.0  0.46780  0.10979  0.82514  1.0000
  H   H1151     1.0  0.46256  0.32122  0.86405  1.0000
  H   H1152     1.0  0.07997  0.35669  0.93343  1.0000
  H   H1153     1.0  0.41233  0.22607  0.95814  1.0000
  N   N100      1.0  0.24272  0.09918  0.84194  1.0000
  C   C1159     1.0  0.22110  0.12403  0.84676  1.0000
  N   N101      1.0  0.48337  0.44463  0.80563  1.0000
  H   H1154     1.0  0.48292  0.00272  0.82828  1.0000
  H   H1155     1.0  0.27654  0.13924  0.89132  1.0000
  S   S387      1.0  0.27986  0.48325  0.87678  1.0000
  N   N102      1.0  0.08695  0.42698  0.82644  1.0000
  H   H1156     1.0  0.06960  0.45100  0.82343  1.0000
  C   C1160     1.0  0.19831  0.11188  0.96946  1.0000
  H   H1157     1.0  0.47136  0.39747  0.93867  1.0000
  C   C1161     1.0  0.49097  0.28401  0.98342  1.0000
  C   C1162     1.0  0.03984  0.30073  0.85724  1.0000
  H   H1158     1.0  0.35229  0.40013  0.92737  1.0000
  C   C1163     1.0  0.25093  0.12534  0.83883  1.0000
  H   H1159     1.0  0.27371  0.16286  0.86659  1.0000
  C   C1164     1.0  0.25521  0.10816  0.83836  1.0000
  H   H1160     1.0  0.10224  0.40223  0.83275  1.0000
  H   H1161     1.0  0.05534  0.41430  0.86843  1.0000
  C   C1165     1.0  0.09069  0.41131  0.83661  1.0000
  H   H1162     1.0  0.39503  0.41747  0.81526  1.0000
  S   S388      1.0  0.13911  0.13119  0.94851  1.0000
  H   H1163     1.0  0.06378  0.02110  0.83830  1.0000
  H   H1164     1.0  0.46292  0.14660  0.86362  1.0000
  Fe  Fe193     1.0  0.40390  0.33865  0.86993  1.0000
  C   C1166     1.0  0.07245  0.43849  0.83139  1.0000
  C   C1167     1.0  0.03908  0.02713  0.82140  1.0000
  H   H1165     1.0  0.03741  0.30947  0.84565  1.0000
  N   N103      1.0  0.01022  0.39783  0.82288  1.0000
  Fe  Fe194     1.0  0.05081  0.45023  0.78925  1.0000
  S   S389      1.0  0.02921  0.27813  0.84640  1.0000
  H   H1166     1.0  0.42318  0.17894  0.83969  1.0000
  H   H1167     1.0  0.14805  0.09492  0.94988  1.0000
  C   C1168     1.0  0.44692  0.01813  0.82553  1.0000
  H   H1168     1.0  0.47154  0.36401  0.89090  1.0000
  C   C1169     1.0  0.27947  0.15109  0.89117  1.0000
  H   H1169     1.0  0.27983  0.12926  0.91985  1.0000
  H   H1170     1.0  0.26091  0.13235  0.83613  1.0000
  C   C1170     1.0  0.27765  0.16449  0.87721  1.0000
  C   C1171     1.0  0.40193  0.23701  0.95462  1.0000
  C   C1172     1.0  0.14839  0.11383  0.96257  1.0000
  C   C1173     1.0  0.15129  0.09725  0.96051  1.0000
  H   H1171     1.0  0.45972  0.15269  0.82930  1.0000
  H   H1172     1.0  0.39998  0.13919  0.96259  1.0000
  H   H1173     1.0  0.41959  0.02082  0.82996  1.0000
  H   H1174     1.0  0.43309  0.19110  0.88186  1.0000
  H   H1175     1.0  0.32577  0.44025  0.82481  1.0000
  C   C1174     1.0  0.46064  0.37379  0.85273  1.0000
  Fe  Fe195     1.0  0.08199  0.08282  0.80143  1.0000
  C   C1175     1.0  0.44913  0.16832  0.87424  1.0000
  H   H1176     1.0  0.49305  0.41596  0.86842  1.0000
  C   C1176     1.0  0.33363  0.41607  0.94290  1.0000
  N   N104      1.0  0.35251  0.39041  0.95354  1.0000
  C   C1177     1.0  0.08873  0.40755  0.95200  1.0000
  H   H1177     1.0  0.03310  0.39122  0.80473  1.0000
  Fe  Fe196     1.0  0.42691  0.43412  0.79040  1.0000
  C   C1178     1.0  0.44768  0.15067  0.83859  1.0000
  H   H1178     1.0  0.32479  0.05321  0.87025  1.0000
  H   H1179     1.0  0.08842  0.48331  0.78645  1.0000
  H   H1180     1.0  0.45991  0.38386  0.84151  1.0000
  C   C1179     1.0  0.04778  0.39454  0.94077  1.0000
  H   H1181     1.0  0.48503  0.30411  0.96247  1.0000
  C   C1180     1.0  0.48318  0.43110  0.82090  1.0000
  H   H1182     1.0  0.34947  0.38304  0.98037  1.0000
  H   H1183     1.0  0.40724  0.24573  0.94302  1.0000
  H   H1184     1.0  0.42884  0.01830  0.78602  1.0000
  C   C1181     1.0  0.32630  0.41831  0.95937  1.0000
  C   C1182     1.0  0.46209  0.34783  0.88118  1.0000
  C   C1183     1.0  0.48754  0.38762  0.97396  1.0000
  H   H1185     1.0  0.18581  0.09829  0.92317  1.0000
  C   C1184     1.0  0.33840  0.47146  0.80281  1.0000
  C   C1185     1.0  0.07762  0.48771  0.81159  1.0000
  H   H1186     1.0  0.36014  0.36503  0.95048  1.0000
  H   H1187     1.0  0.45980  0.44238  0.80173  1.0000
  H   H1188     1.0  0.18328  0.12204  0.93360  1.0000
  H   H1189     1.0  0.47535  0.42217  0.82118  1.0000
  H   H1190     1.0  0.09878  0.47408  0.84380  1.0000
  H   H1191     1.0  0.09345  0.02059  0.80523  1.0000
  N   N105      1.0  0.46226  0.37669  0.97945  1.0000
  H   H1192     1.0  0.29225  0.46700  0.97110  1.0000
  C   C1186     1.0  0.02178  0.40084  0.80790  1.0000
  C   C1187     1.0  0.36325  0.21704  0.94762  1.0000
  C   C1188     1.0  0.21254  0.48805  0.89647  1.0000
  C   C1189     1.0  0.20324  0.09437  0.97106  1.0000
  C   C1190     1.0  0.20118  0.08712  0.95884  1.0000
  H   H1193     1.0  0.04030  0.38549  0.96765  1.0000
  H   H1194     1.0  0.09907  0.40982  0.94056  1.0000
  C   C1191     1.0  0.22290  0.47248  0.90204  1.0000
  H   H1195     1.0  0.35383  0.21122  0.94596  1.0000
  H   H1196     1.0  0.06400  0.31286  0.96410  1.0000
  C   C1192     1.0  0.06273  0.39622  0.96093  1.0000
  H   H1197     1.0  0.02646  0.37533  0.83365  1.0000
  C   C1193     1.0  0.06246  0.00985  0.83524  1.0000
  H   H1198     1.0  0.11003  0.14768  0.97556  1.0000
  C   C1194     1.0  0.37223  0.17427  0.97775  1.0000
  C   C1195     1.0  0.19248  0.08903  0.93278  1.0000
  H   H1199     1.0  0.03787  0.39028  0.93790  1.0000
  H   H1200     1.0  0.37555  0.22736  0.97808  1.0000
  H   H1201     1.0  0.18490  0.07910  0.93893  1.0000
  C   C1196     1.0  0.49637  0.23425  0.90780  1.0000
  C   C1197     1.0  0.08065  0.48512  0.82776  1.0000
  C   C1198     1.0  0.34515  0.39233  0.96975  1.0000
  C   C1199     1.0  0.00523  0.42922  0.80087  1.0000
  H   H1202     1.0  0.00330  0.44153  0.79239  1.0000
  H   H1203     1.0  0.06036  0.06801  0.78893  1.0000
  H   H1204     1.0  0.04402  0.34672  0.98055  1.0000
  C   C1200     1.0  0.06976  0.30526  0.97466  1.0000
  N   N106      1.0  0.46277  0.30105  0.98207  1.0000
  C   C1201     1.0  0.33200  0.40633  0.97291  1.0000
  H   H1205     1.0  0.35303  0.21548  0.97431  1.0000
  C   C1202     1.0  0.08249  0.31029  0.97889  1.0000
  H   H1206     1.0  0.00652  0.37263  0.83098  1.0000
  H   H1207     1.0  0.24316  0.99010  0.90973  1.0000
  C   C1203     1.0  0.06727  0.35235  0.98216  1.0000
  H   H1208     1.0  0.03457  0.17020  0.78665  1.0000
  H   H1209     1.0  0.25155  0.48668  0.91360  1.0000
  C   C1204     1.0  0.24047  0.48717  0.90889  1.0000
  S   S390      1.0  0.36624  0.99268  0.78989  1.0000
  S   S391      1.0  0.09622  0.36143  0.98324  1.0000
  H   H1210     1.0  0.05436  0.28656  0.98125  1.0000
  C   C1205     1.0  0.06438  0.29051  0.98424  1.0000
  H   H1211     1.0  0.37570  0.02666  0.78539  1.0000
  C   C1206     1.0  0.33731  0.98991  0.81490  1.0000
  H   H1212     1.0  0.20164  0.48858  0.89148  1.0000
  S   S392      1.0  0.18916  0.92372  0.02309  1.0000
  Fe  Fe197     1.0  0.17329  0.91603  0.00992  1.0000
  S   S393      1.0  0.16327  0.89244  0.02309  1.0000
  Fe  Fe198     1.0  0.20613  0.92953  0.99755  1.0000
  S   S394      1.0  0.23490  0.92388  0.99269  1.0000
  S   S395      1.0  0.15632  0.94177  0.00436  1.0000
  Fe  Fe199     1.0  0.04570  0.87169  0.04745  1.0000
  S   S396      1.0  0.05342  0.85427  0.07071  1.0000
  S   S397      1.0  0.01773  0.88312  0.04825  1.0000
  Fe  Fe200     1.0  0.08247  0.86903  0.02770  1.0000
  S   S398      1.0  0.09291  0.85075  0.04931  1.0000
  S   S399      1.0  0.09955  0.88050  0.00386  1.0000
  Fe  Fe201     1.0  0.07107  0.83838  0.05276  1.0000
  S   S400      1.0  0.07143  0.81037  0.06178  1.0000
  Fe  Fe202     1.0  0.07436  0.86833  0.06505  1.0000
  S   S401      1.0  0.08420  0.87446  0.08467  1.0000
  S   S402      1.0  0.06207  0.85511  0.02964  1.0000
  S   S403      1.0  0.06505  0.88732  0.04330  1.0000
  Fe  Fe203     1.0  0.11896  0.94554  0.12019  1.0000
  S   S404      1.0  0.14535  0.93109  0.11090  1.0000
  Fe  Fe204     1.0  0.08603  0.95139  0.14664  1.0000
  H   H1213     1.0  0.24077  0.53500  0.03249  1.0000
  Fe  Fe205     1.0  0.08492  0.95418  0.11004  1.0000
  S   S405      1.0  0.07121  0.94995  0.09227  1.0000
  S   S406      1.0  0.09638  0.93320  0.12923  1.0000
  S   S407      1.0  0.10996  0.96174  0.13958  1.0000
  H   H1214     1.0  0.13011  0.58591  0.13075  1.0000
  H   H1215     1.0  0.36007  0.97959  0.06265  1.0000
  Fe  Fe206     1.0  0.40163  0.94905  0.10084  1.0000
  S   S408      1.0  0.39663  0.92499  0.11894  1.0000
  S   S409      1.0  0.38469  0.96645  0.08363  1.0000
  Fe  Fe207     1.0  0.43536  0.94516  0.11022  1.0000
  S   S410      1.0  0.43349  0.92048  0.12861  1.0000
  S   S411      1.0  0.45762  0.95725  0.10509  1.0000
  Fe  Fe208     1.0  0.42427  0.91436  0.10862  1.0000
  S   S412      1.0  0.43135  0.88864  0.10204  1.0000
  Fe  Fe209     1.0  0.40623  0.93362  0.13694  1.0000
  H   H1216     1.0  0.36041  0.66485  0.99960  1.0000
  S   S413      1.0  0.42864  0.93802  0.08947  1.0000
  S   S414      1.0  0.40878  0.95873  0.11967  1.0000
  Fe  Fe210     1.0  0.44482  0.86199  0.01845  1.0000
  S   S415      1.0  0.42820  0.84536  0.03714  1.0000
  S   S416      1.0  0.45193  0.88299  0.02518  1.0000
  H   H1217     1.0  0.40522  0.49129  0.14967  1.0000
  S   S417      1.0  0.42833  0.82931  0.00559  1.0000
  Fe  Fe211     1.0  0.41353  0.85184  0.01667  1.0000
  S   S418      1.0  0.38490  0.85936  0.02446  1.0000
  Fe  Fe212     1.0  0.44480  0.82460  0.02418  1.0000
  S   S419      1.0  0.45757  0.79859  0.03652  1.0000
  S   S420      1.0  0.08660  0.69149  0.99315  1.0000
  S   S421      1.0  0.46290  0.84073  0.00714  1.0000
  Fe  Fe213     1.0  0.31772  0.94841  0.05023  1.0000
  S   S422      1.0  0.32778  0.93546  0.07379  1.0000
  Fe  Fe214     1.0  0.32648  0.94583  0.01361  1.0000
  S   S423      1.0  0.34739  0.93336  0.99456  1.0000
  S   S424      1.0  0.30922  0.93366  0.03662  1.0000
  H   H1218     1.0  0.15456  0.91839  0.08051  1.0000
  Fe  Fe215     1.0  0.43833  0.71266  0.04025  1.0000
  S   S425      1.0  0.45389  0.70405  0.01660  1.0000
  S   S426      1.0  0.42294  0.73935  0.03872  1.0000
  Fe  Fe216     1.0  0.44478  0.67732  0.06236  1.0000
  S   S427      1.0  0.46077  0.66569  0.04071  1.0000
  S   S428      1.0  0.43702  0.66251  0.08876  1.0000
  Fe  Fe217     1.0  0.47225  0.68852  0.03294  1.0000
  C   C1207     1.0  0.11539  0.52350  0.11633  1.0000
  Fe  Fe218     1.0  0.44098  0.68209  0.02637  1.0000
  S   S429      1.0  0.43360  0.67018  0.00933  1.0000
  S   S430      1.0  0.45794  0.69903  0.05594  1.0000
  S   S431      1.0  0.42376  0.69180  0.04876  1.0000
  Fe  Fe219     1.0  0.43840  0.53578  0.13282  1.0000
  S   S432      1.0  0.41527  0.54348  0.15246  1.0000
  S   S433      1.0  0.44701  0.50934  0.12830  1.0000
  Fe  Fe220     1.0  0.44890  0.56967  0.12439  1.0000
  S   S434      1.0  0.42668  0.58011  0.14341  1.0000
  S   S435      1.0  0.46854  0.58410  0.10697  1.0000
  C   C1208     1.0  0.47697  0.92589  0.15660  1.0000
  Fe  Fe221     1.0  0.41164  0.56806  0.13350  1.0000
  S   S436      1.0  0.38688  0.58397  0.12723  1.0000
  S   S437      1.0  0.45616  0.54505  0.14221  1.0000
  S   S438      1.0  0.43344  0.55944  0.11307  1.0000
  Fe  Fe222     1.0  0.35345  0.61348  0.00983  1.0000
  S   S439      1.0  0.33376  0.63497  0.01919  1.0000
  C   C1209     1.0  0.37961  0.64265  0.08609  1.0000
  Fe  Fe223     1.0  0.36102  0.59652  0.04455  1.0000
  S   S440      1.0  0.34179  0.61665  0.05652  1.0000
  S   S441      1.0  0.37766  0.57449  0.05872  1.0000
  Fe  Fe224     1.0  0.32498  0.61461  0.04078  1.0000
  S   S442      1.0  0.29737  0.61471  0.05333  1.0000
  Fe  Fe225     1.0  0.35274  0.63471  0.03378  1.0000
  S   S443      1.0  0.35815  0.65849  0.03673  1.0000
  S   S444      1.0  0.34336  0.59298  0.03042  1.0000
  S   S445      1.0  0.37314  0.61468  0.02283  1.0000
  Fe  Fe226     1.0  0.22815  0.58286  0.03373  1.0000
  S   S446      1.0  0.21469  0.58089  0.01486  1.0000
  S   S447      1.0  0.25651  0.58101  0.02312  1.0000
  Fe  Fe227     1.0  0.19573  0.58261  0.06158  1.0000
  S   S448      1.0  0.18023  0.57993  0.04485  1.0000
  S   S449      1.0  0.18327  0.58644  0.08800  1.0000
  Fe  Fe228     1.0  0.20362  0.56132  0.03560  1.0000
  S   S450      1.0  0.20608  0.53678  0.02850  1.0000
  Fe  Fe229     1.0  0.19281  0.59977  0.02594  1.0000
  S   S451      1.0  0.17563  0.61970  0.01051  1.0000
  S   S452      1.0  0.21824  0.56209  0.05402  1.0000
  S   S453      1.0  0.20717  0.60366  0.04309  1.0000
  S   S454      1.0  0.11030  0.56851  0.12040  1.0000
  Fe  Fe230     1.0  0.08818  0.62371  0.13775  1.0000
  S   S455      1.0  0.10256  0.64448  0.12524  1.0000
  S   S456      1.0  0.08241  0.61243  0.11942  1.0000
  Fe  Fe231     1.0  0.09478  0.70319  0.00994  1.0000
  S   S457      1.0  0.11618  0.71676  0.00391  1.0000
  C   C1210     1.0  0.17770  0.50126  0.04245  1.0000
  Fe  Fe232     1.0  0.08418  0.70656  0.04656  1.0000
  S   S458      1.0  0.10451  0.72055  0.04387  1.0000
  S   S459      1.0  0.06563  0.69900  0.07076  1.0000
  Fe  Fe233     1.0  0.09740  0.73479  0.01920  1.0000
  S   S460      1.0  0.09686  0.76268  0.00912  1.0000
  Fe  Fe234     1.0  0.12147  0.70149  0.02899  1.0000
  S   S461      1.0  0.14780  0.68954  0.03375  1.0000
  S   S462      1.0  0.07539  0.72249  0.02312  1.0000
  S   S463      1.0  0.10175  0.68624  0.03381  1.0000
  H   H1219     1.0  0.21735  0.94871  0.01295  1.0000
  S   S464      1.0  0.10811  0.96534  0.09987  1.0000
  C   C1211     1.0  0.00319  0.63907  0.16349  1.0000
  C   C1212     1.0  0.01532  0.61364  0.13627  1.0000
  Fe  Fe235     1.0  0.09246  0.58757  0.13524  1.0000
  C   C1213     1.0  0.09230  0.65960  0.11011  1.0000
  C   C1214     1.0  0.10196  0.66850  0.09580  1.0000
  C   C1215     1.0  0.09386  0.68047  0.08355  1.0000
  C   C1216     1.0  0.07603  0.68390  0.08583  1.0000
  C   C1217     1.0  0.06636  0.67508  0.10019  1.0000
  C   C1218     1.0  0.07450  0.66277  0.11219  1.0000
  H   H1220     1.0  0.11572  0.66608  0.09411  1.0000
  H   H1221     1.0  0.10141  0.68721  0.07248  1.0000
  H   H1222     1.0  0.05257  0.67774  0.10203  1.0000
  H   H1223     1.0  0.06699  0.65597  0.12324  1.0000
  C   C1219     1.0  0.18923  0.52617  0.03793  1.0000
  C   C1220     1.0  0.17398  0.53375  0.04759  1.0000
  C   C1221     1.0  0.16046  0.52521  0.05440  1.0000
  C   C1222     1.0  0.16234  0.50895  0.05184  1.0000
  H   H1224     1.0  0.43006  0.49081  0.15888  1.0000
  C   C1223     1.0  0.19103  0.50998  0.03530  1.0000
  H   H1225     1.0  0.17250  0.54624  0.04967  1.0000
  H   H1226     1.0  0.14856  0.53118  0.06166  1.0000
  H   H1227     1.0  0.33599  0.96344  0.10636  1.0000
  C   C1224     1.0  0.34339  0.96392  0.11497  1.0000
  C   C1225     1.0  0.16819  0.63920  0.01682  1.0000
  C   C1226     1.0  0.17626  0.64348  0.02715  1.0000
  C   C1227     1.0  0.17002  0.65900  0.03225  1.0000
  C   C1228     1.0  0.15559  0.67024  0.02714  1.0000
  C   C1229     1.0  0.14750  0.66598  0.01680  1.0000
  C   C1230     1.0  0.15384  0.65052  0.01159  1.0000
  H   H1228     1.0  0.18752  0.63505  0.03094  1.0000
  H   H1229     1.0  0.17640  0.66231  0.04011  1.0000
  H   H1230     1.0  0.13651  0.67470  0.01258  1.0000
  H   H1231     1.0  0.14760  0.64735  0.00351  1.0000
  C   C1231     1.0  0.16334  0.58074  0.09709  1.0000
  C   C1232     1.0  0.15686  0.57157  0.08959  1.0000
  C   C1233     1.0  0.14060  0.56780  0.09681  1.0000
  C   C1234     1.0  0.13077  0.57310  0.11161  1.0000
  H   H1232     1.0  0.16441  0.56722  0.07836  1.0000
  H   H1233     1.0  0.13558  0.56093  0.09080  1.0000
  C   C1235     1.0  0.12512  0.61086  0.08254  1.0000
  H   H1234     1.0  0.12226  0.62011  0.10473  1.0000
  H   H1235     1.0  0.22792  0.96298  0.02893  1.0000
  H   H1236     1.0  0.48243  0.92181  0.10844  1.0000
  C   C1236     1.0  0.47944  0.56719  0.17860  1.0000
  H   H1237     1.0  0.16112  0.93271  0.05016  1.0000
  Fe  Fe236     1.0  0.17358  0.94975  0.01574  1.0000
  C   C1237     1.0  0.24243  0.93494  0.00307  1.0000
  H   H1238     1.0  0.47572  0.54820  0.16803  1.0000
  C   C1238     1.0  0.28631  0.60463  0.04535  1.0000
  C   C1239     1.0  0.26868  0.60580  0.05177  1.0000
  C   C1240     1.0  0.25944  0.59825  0.04531  1.0000
  C   C1241     1.0  0.26786  0.58940  0.03248  1.0000
  C   C1242     1.0  0.28556  0.58795  0.02627  1.0000
  C   C1243     1.0  0.29476  0.59563  0.03263  1.0000
  H   H1239     1.0  0.26210  0.61274  0.06163  1.0000
  H   H1240     1.0  0.24578  0.59943  0.05013  1.0000
  H   H1241     1.0  0.29209  0.58124  0.01623  1.0000
  H   H1242     1.0  0.30830  0.59478  0.02750  1.0000
  C   C1244     1.0  0.38378  0.58078  0.10871  1.0000
  C   C1245     1.0  0.37356  0.59373  0.09912  1.0000
  C   C1246     1.0  0.37191  0.59196  0.08364  1.0000
  C   C1247     1.0  0.37991  0.57700  0.07796  1.0000
  C   C1248     1.0  0.38980  0.56383  0.08778  1.0000
  C   C1249     1.0  0.39187  0.56579  0.10309  1.0000
  H   H1243     1.0  0.36709  0.60522  0.10360  1.0000
  H   H1244     1.0  0.36454  0.60224  0.07612  1.0000
  H   H1245     1.0  0.39600  0.55217  0.08349  1.0000
  H   H1246     1.0  0.39950  0.55562  0.11066  1.0000
  C   C1250     1.0  0.41229  0.66795  0.01568  1.0000
  C   C1251     1.0  0.39983  0.67877  0.02505  1.0000
  C   C1252     1.0  0.38311  0.67602  0.03105  1.0000
  C   C1253     1.0  0.37884  0.66234  0.02790  1.0000
  C   C1254     1.0  0.39118  0.65189  0.01804  1.0000
  C   C1255     1.0  0.40785  0.65471  0.01190  1.0000
  H   H1247     1.0  0.40300  0.68940  0.02747  1.0000
  H   H1248     1.0  0.37345  0.68452  0.03815  1.0000
  H   H1249     1.0  0.38794  0.64171  0.01500  1.0000
  H   H1250     1.0  0.41741  0.64644  0.00445  1.0000
  C   C1256     1.0  0.44724  0.64116  0.09411  1.0000
  C   C1257     1.0  0.44025  0.63125  0.10938  1.0000
  C   C1258     1.0  0.44699  0.61384  0.11347  1.0000
  C   C1259     1.0  0.46092  0.60618  0.10245  1.0000
  C   C1260     1.0  0.46852  0.61621  0.08752  1.0000
  C   C1261     1.0  0.46161  0.63370  0.08328  1.0000
  H   H1251     1.0  0.42957  0.63702  0.11813  1.0000
  H   H1252     1.0  0.44159  0.60647  0.12535  1.0000
  S   S465      1.0  0.14521  0.49862  0.06015  1.0000
  H   H1253     1.0  0.46737  0.64131  0.07165  1.0000
  H   H1254     1.0  0.04032  0.94450  0.12526  1.0000
  H   H1255     1.0  0.00985  0.85044  0.01945  1.0000
  C   C1262     1.0  0.42147  0.51450  0.11127  1.0000
  H   H1256     1.0  0.46775  0.93519  0.16312  1.0000
  C   C1263     1.0  0.48299  0.56945  0.14875  1.0000
  H   H1257     1.0  0.41892  0.52770  0.11171  1.0000
  H   H1258     1.0  0.40173  0.51796  0.09772  1.0000
  C   C1264     1.0  0.48369  0.58297  0.17504  1.0000
  H   H1259     1.0  0.38335  0.96760  0.03525  1.0000
  N   N107      1.0  0.34845  0.97846  0.11380  1.0000
  H   H1260     1.0  0.48100  0.71875  0.02385  1.0000
  C   C1265     1.0  0.47138  0.78688  0.99471  1.0000
  H   H1261     1.0  0.31601  0.57543  0.06032  1.0000
  C   C1266     1.0  0.25263  0.52605  0.03440  1.0000
  C   C1267     1.0  0.38030  0.95818  0.01506  1.0000
  H   H1262     1.0  0.43630  0.58473  0.17187  1.0000
  H   H1263     1.0  0.05616  0.98025  0.18488  1.0000
  H   H1264     1.0  0.27957  0.93762  0.01118  1.0000
  C   C1268     1.0  0.48269  0.67558  0.98917  1.0000
  H   H1265     1.0  0.34217  0.58861  0.99874  1.0000
  S   S466      1.0  0.19187  0.95625  0.99107  1.0000
  C   C1269     1.0  0.23092  0.94635  0.01239  1.0000
  C   C1270     1.0  0.44768  0.78209  0.03782  1.0000
  C   C1271     1.0  0.45650  0.76520  0.04168  1.0000
  C   C1272     1.0  0.44918  0.75192  0.04177  1.0000
  C   C1273     1.0  0.43284  0.75552  0.03836  1.0000
  C   C1274     1.0  0.42398  0.77239  0.03474  1.0000
  C   C1275     1.0  0.43140  0.78564  0.03437  1.0000
  H   H1266     1.0  0.46904  0.76238  0.04452  1.0000
  H   H1267     1.0  0.45605  0.73894  0.04467  1.0000
  H   H1268     1.0  0.41129  0.77521  0.03223  1.0000
  H   H1269     1.0  0.42438  0.79857  0.03168  1.0000
  C   C1276     1.0  0.37545  0.88041  0.01648  1.0000
  C   C1277     1.0  0.35989  0.88799  0.02574  1.0000
  C   C1278     1.0  0.35158  0.90448  0.01933  1.0000
  C   C1279     1.0  0.35857  0.91337  0.00344  1.0000
  C   C1280     1.0  0.37425  0.90587  0.99422  1.0000
  C   C1281     1.0  0.38276  0.88946  0.00078  1.0000
  H   H1270     1.0  0.35415  0.88105  0.03788  1.0000
  H   H1271     1.0  0.33952  0.91010  0.02654  1.0000
  H   H1272     1.0  0.43808  0.96945  0.16194  1.0000
  H   H1273     1.0  0.39459  0.88360  0.99338  1.0000
  C   C1282     1.0  0.15363  0.58576  0.11202  1.0000
  C   C1283     1.0  0.43787  0.58209  0.18469  1.0000
  C   C1284     1.0  0.14458  0.73858  0.01154  1.0000
  H   H1274     1.0  0.18041  0.58589  0.00574  1.0000
  C   C1285     1.0  0.26789  0.49778  0.04205  1.0000
  C   C1286     1.0  0.43759  0.88715  0.08063  1.0000
  C   C1287     1.0  0.44157  0.90091  0.06770  1.0000
  C   C1288     1.0  0.44596  0.89949  0.05073  1.0000
  C   C1289     1.0  0.44621  0.88438  0.04656  1.0000
  C   C1290     1.0  0.44238  0.87057  0.05946  1.0000
  C   C1291     1.0  0.43819  0.87193  0.07644  1.0000
  H   H1275     1.0  0.44148  0.91258  0.07074  1.0000
  H   H1276     1.0  0.44919  0.91014  0.04082  1.0000
  H   H1277     1.0  0.44296  0.85872  0.05644  1.0000
  H   H1278     1.0  0.43523  0.86119  0.08638  1.0000
  C   C1292     1.0  0.37018  0.95705  0.07955  1.0000
  C   C1293     1.0  0.35907  0.96672  0.06893  1.0000
  C   C1294     1.0  0.34637  0.95992  0.06674  1.0000
  C   C1295     1.0  0.34454  0.94355  0.07532  1.0000
  C   C1296     1.0  0.35587  0.93374  0.08564  1.0000
  C   C1297     1.0  0.36882  0.94040  0.08754  1.0000
  H   H1279     1.0  0.13594  0.53525  0.11469  1.0000
  H   H1280     1.0  0.35458  0.92101  0.09223  1.0000
  H   H1281     1.0  0.37741  0.93275  0.09552  1.0000
  H   H1282     1.0  0.38310  0.62232  0.11875  1.0000
  H   H1283     1.0  0.01522  0.63349  0.16754  1.0000
  C   C1298     1.0  0.44625  0.96419  0.13691  1.0000
  C   C1299     1.0  0.45916  0.96444  0.12217  1.0000
  C   C1300     1.0  0.47369  0.97034  0.12103  1.0000
  C   C1301     1.0  0.41176  0.50898  0.10338  1.0000
  C   C1302     1.0  0.16620  0.55988  0.99063  1.0000
  C   C1303     1.0  0.41483  0.49181  0.10305  1.0000
  C   C1304     1.0  0.05575  0.90261  0.12582  1.0000
  C   C1305     1.0  0.07785  0.79748  0.04685  1.0000
  C   C1306     1.0  0.07720  0.78029  0.05236  1.0000
  C   C1307     1.0  0.08258  0.76959  0.04081  1.0000
  C   C1308     1.0  0.08873  0.77603  0.02369  1.0000
  C   C1309     1.0  0.08929  0.79324  0.01816  1.0000
  C   C1310     1.0  0.08383  0.80396  0.02970  1.0000
  H   H1284     1.0  0.07266  0.77518  0.06562  1.0000
  H   H1285     1.0  0.08212  0.75635  0.04519  1.0000
  H   H1286     1.0  0.09408  0.79826  0.00493  1.0000
  H   H1287     1.0  0.08442  0.81719  0.02536  1.0000
  C   C1311     1.0  0.07655  0.92945  0.08820  1.0000
  C   C1312     1.0  0.08905  0.91679  0.09527  1.0000
  C   C1313     1.0  0.09149  0.90002  0.09382  1.0000
  C   C1314     1.0  0.08167  0.89583  0.08504  1.0000
  C   C1315     1.0  0.06974  0.90860  0.07727  1.0000
  C   C1316     1.0  0.06720  0.92538  0.07884  1.0000
  H   H1288     1.0  0.09663  0.91983  0.10210  1.0000
  H   H1289     1.0  0.10087  0.89022  0.09971  1.0000
  H   H1290     1.0  0.06208  0.90548  0.07051  1.0000
  H   H1291     1.0  0.05756  0.93513  0.07328  1.0000
  H   H1292     1.0  0.02643  0.84730  0.04907  1.0000
  C   C1317     1.0  0.15180  0.94070  0.08959  1.0000
  C   C1318     1.0  0.15274  0.95776  0.08508  1.0000
  C   C1319     1.0  0.15709  0.96567  0.06800  1.0000
  H   H1293     1.0  0.15016  0.96482  0.09482  1.0000
  H   H1294     1.0  0.15823  0.97873  0.06463  1.0000
  C   C1320     1.0  0.14638  0.88903  0.01646  1.0000
  C   C1321     1.0  0.13827  0.90116  0.00439  1.0000
  C   C1322     1.0  0.12410  0.89838  0.00023  1.0000
  C   C1323     1.0  0.11797  0.88353  0.00821  1.0000
  C   C1324     1.0  0.12642  0.87128  0.01988  1.0000
  C   C1325     1.0  0.14056  0.87401  0.02399  1.0000
  H   H1295     1.0  0.14271  0.91277  0.99850  1.0000
  H   H1296     1.0  0.38559  0.67834  0.98788  1.0000
  H   H1297     1.0  0.12221  0.85956  0.02565  1.0000
  H   H1298     1.0  0.14690  0.86450  0.03317  1.0000
  H   H1299     1.0  0.11418  0.60493  0.08783  1.0000
  C   C1326     1.0  0.46274  0.97541  0.14943  1.0000
  S   S467      1.0  0.06646  0.58538  0.15174  1.0000
  H   H1300     1.0  0.25498  0.61487  0.99990  1.0000
  S   S468      1.0  0.33605  0.95902  0.02768  1.0000
  H   H1301     1.0  0.36802  0.53311  0.09027  1.0000
  H   H1302     1.0  0.10559  0.53299  0.12214  1.0000
  H   H1303     1.0  0.48665  0.98050  0.13347  1.0000
  C   C1327     1.0  0.49802  0.88498  0.02179  1.0000
  C   C1328     1.0  0.00379  0.81047  0.09198  1.0000
  C   C1329     1.0  0.34192  0.59170  0.98551  1.0000
  C   C1330     1.0  0.23698  0.50324  0.04344  1.0000
  H   H1304     1.0  0.37404  0.95219  0.99452  1.0000
  C   C1331     1.0  0.36717  0.66525  0.98653  1.0000
  H   H1305     1.0  0.13188  0.60242  0.05911  1.0000
  S   S469      1.0  0.19201  0.91906  0.98497  1.0000
  Fe  Fe237     1.0  0.31404  0.98045  0.02260  1.0000
  C   C1332     1.0  0.17431  0.58188  0.99811  1.0000
  H   H1306     1.0  0.05712  0.89328  0.11854  1.0000
  H   H1307     1.0  0.29470  0.52507  0.03043  1.0000
  H   H1308     1.0  0.01006  0.86623  0.99990  1.0000
  C   C1333     1.0  0.47549  0.97577  0.13463  1.0000
  Fe  Fe238     1.0  0.44546  0.84664  0.98924  1.0000
  H   H1309     1.0  0.32751  0.57302  0.98803  1.0000
  Fe  Fe239     1.0  0.49298  0.97456  0.16851  1.0000
  H   H1310     1.0  0.49339  0.90557  0.05288  1.0000
  C   C1334     1.0  0.40296  0.93172  0.17889  1.0000
  H   H1311     1.0  0.36679  0.65999  0.06692  1.0000
  H   H1312     1.0  0.22625  0.51114  0.05096  1.0000
  H   H1313     1.0  0.49034  0.59204  0.13263  1.0000
  C   C1335     1.0  0.13246  0.52487  0.11201  1.0000
  C   C1336     1.0  0.16675  0.59375  0.98561  1.0000
  N   N108      1.0  0.25287  0.50913  0.04009  1.0000
  S   S470      1.0  0.10003  0.59884  0.15267  1.0000
  H   H1314     1.0  0.09774  0.50907  0.11618  1.0000
  N   N109      1.0  0.12786  0.90398  0.05458  1.0000
  C   C1337     1.0  0.12539  0.92021  0.04525  1.0000
  C   C1338     1.0  0.11780  0.89341  0.05492  1.0000
  C   C1339     1.0  0.11291  0.92606  0.03551  1.0000
  C   C1340     1.0  0.10530  0.89880  0.04528  1.0000
  C   C1341     1.0  0.10284  0.91521  0.03551  1.0000
  C   C1342     1.0  0.14086  0.89812  0.06483  1.0000
  H   H1315     1.0  0.13320  0.92868  0.04519  1.0000
  H   H1316     1.0  0.11946  0.88064  0.06256  1.0000
  H   H1317     1.0  0.11114  0.93885  0.02795  1.0000
  H   H1318     1.0  0.09772  0.89017  0.04535  1.0000
  H   H1319     1.0  0.09325  0.91941  0.02787  1.0000
  H   H1320     1.0  0.15222  0.90375  0.05831  1.0000
  H   H1321     1.0  0.13537  0.90161  0.07732  1.0000
  H   H1322     1.0  0.14560  0.88418  0.06670  1.0000
  S   S471      1.0  0.42920  0.86971  0.99861  1.0000
  C   C1343     1.0  0.49223  0.85743  0.02331  1.0000
  C   C1344     1.0  0.37239  0.85581  0.98701  1.0000
  C   C1345     1.0  0.17408  0.56484  0.00065  1.0000
  C   C1346     1.0  0.48150  0.52283  0.10271  1.0000
  H   H1323     1.0  0.04100  0.82230  0.08508  1.0000
  H   H1324     1.0  0.01458  0.65448  0.14045  1.0000
  C   C1347     1.0  0.42086  0.92735  0.17514  1.0000
  C   C1348     1.0  0.34810  0.94930  0.12695  1.0000
  H   H1325     1.0  0.48298  0.56424  0.13831  1.0000
  H   H1326     1.0  0.07247  0.89159  0.16852  1.0000
  C   C1349     1.0  0.00045  0.62001  0.12971  1.0000
  H   H1327     1.0  0.48087  0.85175  0.02952  1.0000
  C   C1350     1.0  0.47903  0.56044  0.16536  1.0000
  H   H1328     1.0  0.35711  0.52601  0.07873  1.0000
  C   C1351     1.0  0.11107  0.50996  0.11295  1.0000
  H   H1329     1.0  0.39747  0.61354  0.10147  1.0000
  C   C1352     1.0  0.37259  0.96203  0.00122  1.0000
  H   H1330     1.0  0.48946  0.61634  0.14331  1.0000
  H   H1331     1.0  0.34428  0.93772  0.12765  1.0000
  H   H1332     1.0  0.35381  0.55733  0.10113  1.0000
  S   S472      1.0  0.03382  0.62165  0.12565  1.0000
  H   H1333     1.0  0.20271  0.50424  0.02759  1.0000
  N   N110      1.0  0.14409  0.62618  0.08589  1.0000
  C   C1353     1.0  0.03266  0.79672  0.07881  1.0000
  C   C1354     1.0  0.04714  0.91925  0.12077  1.0000
  H   H1334     1.0  0.13528  0.74413  0.00313  1.0000
  H   H1335     1.0  0.43502  0.95952  0.13795  1.0000
  C   C1355     1.0  0.48707  0.88142  0.05651  1.0000
  H   H1336     1.0  0.47914  0.67627  0.00238  1.0000
  H   H1337     1.0  0.15690  0.74244  0.00508  1.0000
  C   C1356     1.0  0.37783  0.97053  0.02422  1.0000
  H   H1338     1.0  0.16625  0.54657  0.99262  1.0000
  C   C1357     1.0  0.13738  0.58204  0.11920  1.0000
  C   C1358     1.0  0.35804  0.94962  0.13776  1.0000
  C   C1359     1.0  0.39340  0.66933  0.08571  1.0000
  C   C1360     1.0  0.99953  0.59673  0.16058  1.0000
  H   H1339     1.0  0.40547  0.62288  0.11359  1.0000
  C   C1361     1.0  0.14021  0.49952  0.10099  1.0000
  H   H1340     1.0  0.13895  0.63760  0.10709  1.0000
  C   C1362     1.0  0.00523  0.86781  0.05473  1.0000
  C   C1363     1.0  0.26604  0.94018  0.01140  1.0000
  C   C1364     1.0  0.36332  0.96443  0.13633  1.0000
  C   C1365     1.0  0.48765  0.53552  0.10555  1.0000
  H   H1341     1.0  0.16034  0.62513  0.10171  1.0000
  C   C1366     1.0  0.01646  0.83602  0.09610  1.0000
  H   H1342     1.0  0.49380  0.90022  0.11190  1.0000
  H   H1343     1.0  0.00816  0.82654  0.05523  1.0000
  S   S473      1.0  0.06199  0.62496  0.15467  1.0000
  C   C1367     1.0  0.14955  0.63410  0.09643  1.0000
  S   S474      1.0  0.49732  0.48924  0.17104  1.0000
  H   H1344     1.0  0.26895  0.92321  0.99515  1.0000
  N   N111      1.0  0.34778  0.55190  0.08036  1.0000
  C   C1368     1.0  0.33747  0.55695  0.06891  1.0000
  C   C1369     1.0  0.34538  0.56104  0.09233  1.0000
  C   C1370     1.0  0.32417  0.57135  0.06943  1.0000
  C   C1371     1.0  0.33237  0.57563  0.09305  1.0000
  C   C1372     1.0  0.32168  0.58076  0.08155  1.0000
  H   H1345     1.0  0.46282  0.92993  0.13748  1.0000
  C   C1373     1.0  0.02739  0.82255  0.08916  1.0000
  H   H1346     1.0  0.05297  0.93611  0.15047  1.0000
  H   H1347     1.0  0.08151  0.91020  0.16029  1.0000
  H   H1348     1.0  0.44101  0.60722  0.18291  1.0000
  C   C1374     1.0  0.48616  0.78086  0.00133  1.0000
  N   N112      1.0  0.12348  0.49802  0.10564  1.0000
  N   N113      1.0  0.36256  0.97771  0.99679  1.0000
  C   C1375     1.0  0.28296  0.52059  0.03311  1.0000
  C   C1376     1.0  0.35854  0.97877  0.12409  1.0000
  C   C1377     1.0  0.27395  0.62568  0.00359  1.0000
  H   H1349     1.0  0.36529  0.85510  0.00038  1.0000
  H   H1350     1.0  0.15821  0.51418  0.10022  1.0000
  H   H1351     1.0  0.48226  0.85774  0.05613  1.0000
  C   C1378     1.0  0.12981  0.61940  0.09210  1.0000
  H   H1352     1.0  0.49159  0.86247  0.00977  1.0000
  H   H1353     1.0  0.14673  0.72457  0.01358  1.0000
  H   H1354     1.0  0.48541  0.77426  0.01443  1.0000
  C   C1379     1.0  0.00664  0.86421  0.01389  1.0000
  S   S475      1.0  0.26113  0.95993  0.03428  1.0000
  H   H1355     1.0  0.48057  0.54855  0.10357  1.0000
  C   C1380     1.0  0.48692  0.86889  0.04853  1.0000
  H   H1356     1.0  0.01471  0.87027  0.01801  1.0000
  S   S476      1.0  0.30584  0.96831  0.00645  1.0000
  H   H1357     1.0  0.38774  0.94557  0.01890  1.0000
  Fe  Fe240     1.0  0.28945  0.95747  0.03087  1.0000
  H   H1358     1.0  0.37127  0.96466  0.14455  1.0000
  N   N114      1.0  0.49032  0.50635  0.10538  1.0000
  H   H1359     1.0  0.23815  0.48989  0.05057  1.0000
  C   C1381     1.0  0.01272  0.85108  0.05334  1.0000
  H   H1360     1.0  0.02153  0.84616  0.09724  1.0000
  N   N115      1.0  0.48739  0.59181  0.15871  1.0000
  S   S477      1.0  0.06865  0.94395  0.17202  1.0000
  H   H1361     1.0  0.35171  0.88464  0.99397  1.0000
  C   C1382     1.0  0.39703  0.65365  0.09670  1.0000
  H   H1362     1.0  0.26589  0.62987  0.01486  1.0000
  C   C1383     1.0  0.15997  0.95673  0.05534  1.0000
  H   H1363     1.0  0.15866  0.59264  0.11802  1.0000
  C   C1384     1.0  0.26763  0.53204  0.03092  1.0000
  N   N116      1.0  0.06173  0.91014  0.14886  1.0000
  C   C1385     1.0  0.05360  0.92656  0.14376  1.0000
  C   C1386     1.0  0.06317  0.89829  0.13988  1.0000
  C   C1387     1.0  0.04623  0.93136  0.12963  1.0000
  H   H1364     1.0  0.29506  0.49428  0.04021  1.0000
  H   H1365     1.0  0.26734  0.54549  0.02652  1.0000
  N   N117      1.0  0.48607  0.91162  0.13348  1.0000
  C   C1388     1.0  0.01487  0.60185  0.15165  1.0000
  H   H1366     1.0  0.03666  0.80200  0.06506  1.0000
  H   H1367     1.0  0.42769  0.92584  0.16258  1.0000
  H   H1368     1.0  0.02627  0.59686  0.15680  1.0000
  Fe  Fe241     1.0  0.05707  0.61154  0.13737  1.0000
  H   H1369     1.0  0.99921  0.58776  0.17258  1.0000
  C   C1389     1.0  0.49865  0.89761  0.02937  1.0000
  C   C1390     1.0  0.29073  0.62803  0.99795  1.0000
  C   C1391     1.0  0.43458  0.50293  0.11839  1.0000
  H   H1370     1.0  0.33963  0.54996  0.05917  1.0000
  C   C1392     1.0  0.26001  0.93202  0.00238  1.0000
  S   S478      1.0  0.16485  0.96712  0.03403  1.0000
  H   H1371     1.0  0.11761  0.90796  0.99121  1.0000
  N   N118      1.0  0.13786  0.74425  0.02754  1.0000
  C   C1393     1.0  0.12965  0.76076  0.02738  1.0000
  C   C1394     1.0  0.14027  0.73325  0.04244  1.0000
  C   C1395     1.0  0.12303  0.76650  0.04246  1.0000
  C   C1396     1.0  0.13364  0.73851  0.05779  1.0000
  C   C1397     1.0  0.12488  0.75523  0.05776  1.0000
  H   H1372     1.0  0.37956  0.68379  0.06633  1.0000
  H   H1373     1.0  0.12773  0.76949  0.01556  1.0000
  H   H1374     1.0  0.14696  0.72019  0.04257  1.0000
  H   H1375     1.0  0.11609  0.77950  0.04229  1.0000
  H   H1376     1.0  0.13511  0.72958  0.06960  1.0000
  H   H1377     1.0  0.11941  0.75945  0.06956  1.0000
  H   H1378     1.0  0.47950  0.61041  0.07904  1.0000
  H   H1379     1.0  0.33075  0.58303  0.10231  1.0000
  H   H1380     1.0  0.38529  0.85794  0.98603  1.0000
  N   N119      1.0  0.39918  0.89049  0.05194  1.0000
  C   C1398     1.0  0.40112  0.90165  0.06010  1.0000
  C   C1399     1.0  0.39350  0.87613  0.06096  1.0000
  C   C1400     1.0  0.39783  0.89831  0.07775  1.0000
  C   C1401     1.0  0.39028  0.87229  0.07864  1.0000
  C   C1402     1.0  0.39260  0.88343  0.08705  1.0000
  C   C1403     1.0  0.40255  0.89436  0.03343  1.0000
  H   H1381     1.0  0.40560  0.91304  0.05298  1.0000
  H   H1382     1.0  0.39157  0.86746  0.05450  1.0000
  H   H1383     1.0  0.39990  0.90690  0.08419  1.0000
  H   H1384     1.0  0.38613  0.86072  0.08574  1.0000
  H   H1385     1.0  0.39056  0.88048  0.10074  1.0000
  H   H1386     1.0  0.41402  0.90004  0.02793  1.0000
  H   H1387     1.0  0.40532  0.88269  0.02852  1.0000
  H   H1388     1.0  0.39121  0.90311  0.02901  1.0000
  N   N120      1.0  0.22019  0.92673  0.05526  1.0000
  C   C1404     1.0  0.23024  0.93212  0.06228  1.0000
  C   C1405     1.0  0.22734  0.91498  0.04543  1.0000
  C   C1406     1.0  0.24787  0.92540  0.05984  1.0000
  C   C1407     1.0  0.24496  0.90813  0.04258  1.0000
  C   C1408     1.0  0.25526  0.91339  0.04987  1.0000
  C   C1409     1.0  0.20185  0.93438  0.05730  1.0000
  H   H1389     1.0  0.22475  0.94199  0.06943  1.0000
  H   H1390     1.0  0.21954  0.91120  0.03927  1.0000
  H   H1391     1.0  0.25589  0.93014  0.06493  1.0000
  H   H1392     1.0  0.25063  0.89928  0.03428  1.0000
  H   H1393     1.0  0.26902  0.90865  0.04731  1.0000
  H   H1394     1.0  0.19949  0.94462  0.04608  1.0000
  H   H1395     1.0  0.19440  0.92475  0.05871  1.0000
  H   H1396     1.0  0.19677  0.93984  0.06878  1.0000
  N   N121      1.0  0.42170  0.62590  0.05971  1.0000
  C   C1410     1.0  0.41166  0.61988  0.05327  1.0000
  C   C1411     1.0  0.43082  0.61532  0.07123  1.0000
  C   C1412     1.0  0.41037  0.60290  0.05859  1.0000
  C   C1413     1.0  0.42983  0.59830  0.07684  1.0000
  C   C1414     1.0  0.41951  0.59207  0.07047  1.0000
  C   C1415     1.0  0.42351  0.64352  0.05347  1.0000
  H   H1397     1.0  0.40472  0.62815  0.04386  1.0000
  H   H1398     1.0  0.43904  0.61996  0.07605  1.0000
  H   H1399     1.0  0.40246  0.59810  0.05339  1.0000
  H   H1400     1.0  0.43723  0.59000  0.08590  1.0000
  H   H1401     1.0  0.41873  0.57884  0.07461  1.0000
  H   H1402     1.0  0.43323  0.64468  0.04139  1.0000
  H   H1403     1.0  0.41120  0.65203  0.05117  1.0000
  H   H1404     1.0  0.42761  0.64809  0.06266  1.0000
  N   N122      1.0  0.39040  0.64047  0.09658  1.0000
  H   H1405     1.0  0.31160  0.59212  0.08184  1.0000
  H   H1406     1.0  0.07018  0.88542  0.14346  1.0000
  C   C1416     1.0  0.49177  0.91697  0.16247  1.0000
  C   C1417     1.0  0.49274  0.60788  0.15520  1.0000
  C   C1418     1.0  0.49300  0.89586  0.04683  1.0000
  H   H1407     1.0  0.48367  0.97059  0.10963  1.0000
  H   H1408     1.0  0.29576  0.63413  0.00479  1.0000
  C   C1419     1.0  0.36184  0.53697  0.07925  1.0000
  C   C1420     1.0  0.15904  0.93965  0.05984  1.0000
  H   H1409     1.0  0.47112  0.90515  0.12034  1.0000
  H   H1410     1.0  0.15375  0.64590  0.08885  1.0000
  C   C1421     1.0  0.15397  0.62471  0.07022  1.0000
  C   C1422     1.0  0.49424  0.71850  0.02321  1.0000
  C   C1423     1.0  0.37549  0.65825  0.07511  1.0000
  H   H1411     1.0  0.16553  0.62969  0.06546  1.0000
  H   H1412     1.0  0.15746  0.61524  0.04786  1.0000
  N   N123      1.0  0.06360  0.64808  0.06951  1.0000
  C   C1424     1.0  0.05788  0.66479  0.06275  1.0000
  C   C1425     1.0  0.07474  0.63764  0.05950  1.0000
  C   C1426     1.0  0.06306  0.67138  0.04547  1.0000
  C   C1427     1.0  0.08012  0.64380  0.04214  1.0000
  C   C1428     1.0  0.07418  0.66077  0.03512  1.0000
  C   C1429     1.0  0.05871  0.64152  0.08775  1.0000
  H   H1413     1.0  0.04949  0.67321  0.07075  1.0000
  H   H1414     1.0  0.07955  0.62449  0.06495  1.0000
  H   H1415     1.0  0.05882  0.68475  0.04023  1.0000
  H   H1416     1.0  0.08898  0.63557  0.03418  1.0000
  H   H1417     1.0  0.07842  0.66578  0.02172  1.0000
  H   H1418     1.0  0.05685  0.62835  0.09058  1.0000
  H   H1419     1.0  0.06882  0.64171  0.09395  1.0000
  H   H1420     1.0  0.04646  0.64920  0.09357  1.0000
  S   S479      1.0  0.07273  0.97170  0.12800  1.0000
  C   C1430     1.0  0.15526  0.93157  0.07697  1.0000
  C   C1431     1.0  0.36806  0.98664  0.01924  1.0000
  C   C1432     1.0  0.14953  0.61643  0.06024  1.0000
  N   N124      1.0  0.49217  0.87088  0.03136  1.0000
  N   N125      1.0  0.02100  0.81003  0.08714  1.0000
  Fe  Fe242     1.0  0.07326  0.59880  0.16807  1.0000
  H   H1421     1.0  0.18006  0.55553  0.01025  1.0000
  S   S480      1.0  0.46532  0.98169  0.16666  1.0000
  C   C1433     1.0  0.25443  0.95118  0.02116  1.0000
  C   C1434     1.0  0.48358  0.49304  0.10283  1.0000
  C   C1435     1.0  0.47428  0.92294  0.14206  1.0000
  H   H1422     1.0  0.46945  0.52621  0.09868  1.0000
  H   H1423     1.0  0.48382  0.67795  0.08082  1.0000
  H   H1424     1.0  0.33763  0.96748  0.05884  1.0000
  H   H1425     1.0  0.14996  0.49043  0.09462  1.0000
  H   H1426     1.0  0.04175  0.92292  0.10959  1.0000
  Fe  Fe243     1.0  0.43265  0.55472  0.16046  1.0000
  C   C1436     1.0  0.00282  0.65090  0.14825  1.0000
  H   H1427     1.0  0.02668  0.78590  0.08043  1.0000
  S   S481      1.0  0.39114  0.93449  0.16345  1.0000
  S   S482      1.0  0.29636  0.97119  0.04668  1.0000
  H   H1428     1.0  0.37402  0.63234  0.08622  1.0000
  C   C1437     1.0  0.48319  0.90953  0.11782  1.0000
  H   H1429     1.0  0.04439  0.79172  0.08411  1.0000
  C   C1438     1.0  0.44799  0.96981  0.15049  1.0000
  C   C1439     1.0  0.06949  0.90550  0.16363  1.0000
  H   H1430     1.0  0.48914  0.74451  0.02491  1.0000
  C   C1440     1.0  0.49765  0.67808  0.07598  1.0000
  H   H1431     1.0  0.36193  0.93836  0.14706  1.0000
  H   H1432     1.0  0.00076  0.62905  0.11776  1.0000
  H   H1433     1.0  0.45922  0.78465  0.00279  1.0000
  H   H1434     1.0  0.48628  0.61481  0.16554  1.0000
  C   C1441     1.0  0.38255  0.67163  0.07485  1.0000
  H   H1435     1.0  0.10169  0.94089  0.17971  1.0000
  H   H1436     1.0  0.48899  0.79407  0.04659  1.0000
  Fe  Fe244     1.0  0.09733  0.98080  0.11971  1.0000
  C   C1442     1.0  0.13509  0.60935  0.06652  1.0000
  H   H1437     1.0  0.40523  0.65215  0.10528  1.0000
  C   C1443     1.0  0.14496  0.51295  0.10409  1.0000
  H   H1438     1.0  0.39900  0.67963  0.08566  1.0000
  C   C1444     1.0  0.23691  0.95442  0.02144  1.0000
  H   H1439     1.0  0.48256  0.87996  0.07009  1.0000
  C   C1445     1.0  0.39432  0.62408  0.10814  1.0000
  H   H1440     1.0  0.49055  0.80855  0.01646  1.0000
  H   H1441     1.0  0.06065  0.91129  0.17409  1.0000
  H   H1442     1.0  0.47366  0.49834  0.09512  1.0000
  H   H1443     1.0  0.49424  0.91934  0.17353  1.0000
  C   C1446     1.0  0.48719  0.58520  0.14562  1.0000
  C   C1447     1.0  0.28315  0.50333  0.03866  1.0000
  C   C1448     1.0  0.00236  0.83935  0.05679  1.0000
  H   H1444     1.0  0.23367  0.50409  0.03126  1.0000
  H   H1445     1.0  0.43260  0.98727  0.09607  1.0000
  H   H1446     1.0  0.37186  0.53982  0.06768  1.0000
  C   C1449     1.0  0.26788  0.61709  0.99513  1.0000
  C   C1450     1.0  0.99891  0.83657  0.10106  1.0000
  H   H1447     1.0  0.40997  0.98842  0.08156  1.0000
  H   H1448     1.0  0.21678  0.98620  0.37775  1.0000
  C   C1451     1.0  0.47964  0.62434  0.30111  1.0000
  C   C1452     1.0  0.43723  0.56605  0.19508  1.0000
  S   S483      1.0  0.16029  0.93105  0.36654  1.0000
  Fe  Fe245     1.0  0.14584  0.91435  0.36178  1.0000
  S   S484      1.0  0.14343  0.91414  0.33577  1.0000
  S   S485      1.0  0.15968  0.89064  0.37665  1.0000
  C   C1453     1.0  0.42790  0.67088  0.29744  1.0000
  H   H1449     1.0  0.48319  0.94325  0.22519  1.0000
  Fe  Fe246     1.0  0.07319  0.91744  0.26576  1.0000
  S   S486      1.0  0.05625  0.93874  0.27774  1.0000
  S   S487      1.0  0.09253  0.92339  0.24141  1.0000
  Fe  Fe247     1.0  0.05844  0.89081  0.29451  1.0000
  S   S488      1.0  0.04027  0.91003  0.30834  1.0000
  S   S489      1.0  0.05988  0.86311  0.30572  1.0000
  Fe  Fe248     1.0  0.06285  0.92218  0.30201  1.0000
  S   S490      1.0  0.06796  0.93060  0.32313  1.0000
  S   S491      1.0  0.05216  0.90407  0.26923  1.0000
  S   S492      1.0  0.08136  0.90193  0.28974  1.0000
  H   H1450     1.0  0.06357  0.60596  0.28151  1.0000
  H   H1451     1.0  0.11753  0.52744  0.26502  1.0000
  H   H1452     1.0  0.35589  0.59261  0.27381  1.0000
  H   H1453     1.0  0.36985  0.61029  0.24766  1.0000
  S   S493      1.0  0.37899  0.72641  0.35727  1.0000
  H   H1454     1.0  0.34125  0.92941  0.36906  1.0000
  S   S494      1.0  0.30755  0.55722  0.34851  1.0000
  Fe  Fe249     1.0  0.32793  0.57220  0.34221  1.0000
  S   S495      1.0  0.34269  0.58225  0.31649  1.0000
  Fe  Fe250     1.0  0.42804  0.61430  0.27627  1.0000
  S   S496      1.0  0.44150  0.59112  0.29197  1.0000
  S   S497      1.0  0.40942  0.63492  0.28825  1.0000
  Fe  Fe251     1.0  0.44347  0.60124  0.24361  1.0000
  S   S498      1.0  0.45771  0.57681  0.25687  1.0000
  S   S499      1.0  0.44536  0.60767  0.21545  1.0000
  Fe  Fe252     1.0  0.43355  0.57726  0.27714  1.0000
  S   S500      1.0  0.42108  0.55515  0.29063  1.0000
  Fe  Fe253     1.0  0.46409  0.59328  0.27018  1.0000
  C   C1454     1.0  0.45824  0.83965  0.35982  1.0000
  S   S501      1.0  0.41872  0.60038  0.26251  1.0000
  S   S502      1.0  0.45127  0.61782  0.25572  1.0000
  C   C1455     1.0  0.00611  0.87166  0.30453  1.0000
  C   C1456     1.0  0.18306  0.56704  0.32596  1.0000
  H   H1455     1.0  0.39907  0.90565  0.31724  1.0000
  H   H1456     1.0  0.47999  0.49465  0.24144  1.0000
  S   S503      1.0  0.39108  0.81553  0.35624  1.0000
  H   H1457     1.0  0.08876  0.53882  0.21761  1.0000
  H   H1458     1.0  0.47332  0.97180  0.23183  1.0000
  H   H1459     1.0  0.46005  0.93169  0.28792  1.0000
  Fe  Fe254     1.0  0.41305  0.82785  0.35221  1.0000
  S   S504      1.0  0.42926  0.83423  0.32625  1.0000
  C   C1457     1.0  0.43778  0.87432  0.37910  1.0000
  H   H1460     1.0  0.02867  0.67236  0.33390  1.0000
  H   H1461     1.0  0.21417  0.55335  0.36736  1.0000
  S   S505      1.0  0.32453  0.96652  0.34698  1.0000
  S   S506      1.0  0.40193  0.68174  0.38155  1.0000
  Fe  Fe255     1.0  0.41296  0.96033  0.26021  1.0000
  S   S507      1.0  0.39739  0.95225  0.24699  1.0000
  Fe  Fe256     1.0  0.42334  0.92490  0.28074  1.0000
  S   S508      1.0  0.40940  0.91364  0.26886  1.0000
  S   S509      1.0  0.43502  0.91088  0.30303  1.0000
  Fe  Fe257     1.0  0.41978  0.93032  0.24447  1.0000
  S   S510      1.0  0.43312  0.92198  0.21995  1.0000
  Fe  Fe258     1.0  0.38830  0.93643  0.27263  1.0000
  S   S511      1.0  0.36214  0.93094  0.28540  1.0000
  S   S512      1.0  0.43595  0.93944  0.25615  1.0000
  S   S513      1.0  0.40174  0.94669  0.28598  1.0000
  H   H1462     1.0  0.31283  0.52518  0.32704  1.0000
  S   S514      1.0  0.43391  0.54977  0.18779  1.0000
  C   C1458     1.0  0.32504  0.87541  0.37459  1.0000
  C   C1459     1.0  0.08159  0.88395  0.33919  1.0000
  S   S515      1.0  0.07173  0.72644  0.35909  1.0000
  H   H1463     1.0  0.19463  0.56893  0.31588  1.0000
  H   H1464     1.0  0.09437  0.62932  0.21601  1.0000
  S   S516      1.0  0.06551  0.59023  0.19658  1.0000
  S   S517      1.0  0.01004  0.93682  0.27558  1.0000
  Fe  Fe259     1.0  0.11997  0.57097  0.30542  1.0000
  S   S518      1.0  0.09803  0.55959  0.32170  1.0000
  S   S519      1.0  0.13839  0.57668  0.31731  1.0000
  Fe  Fe260     1.0  0.10711  0.57643  0.27302  1.0000
  S   S520      1.0  0.08395  0.56570  0.28695  1.0000
  S   S521      1.0  0.11371  0.58668  0.24481  1.0000
  Fe  Fe261     1.0  0.08210  0.58065  0.30610  1.0000
  S   S522      1.0  0.05815  0.59589  0.31957  1.0000
  Fe  Fe262     1.0  0.10228  0.54573  0.30110  1.0000
  S   S523      1.0  0.10516  0.51743  0.30660  1.0000
  S   S524      1.0  0.10379  0.59300  0.29105  1.0000
  S   S525      1.0  0.12571  0.55551  0.28585  1.0000
  C   C1460     1.0  0.47180  0.95170  0.22139  1.0000
  H   H1465     1.0  0.48574  0.64029  0.22632  1.0000
  C   C1461     1.0  0.11162  0.52976  0.25434  1.0000
  C   C1462     1.0  0.09042  0.51005  0.30056  1.0000
  C   C1463     1.0  0.07586  0.52111  0.29558  1.0000
  C   C1464     1.0  0.06487  0.51514  0.28968  1.0000
  H   H1466     1.0  0.09037  0.96899  0.21851  1.0000
  H   H1467     1.0  0.37777  0.58025  0.36727  1.0000
  H   H1468     1.0  0.12331  0.55079  0.24005  1.0000
  H   H1469     1.0  0.07305  0.53423  0.29629  1.0000
  H   H1470     1.0  0.05366  0.52375  0.28574  1.0000
  C   C1465     1.0  0.49105  0.60121  0.21899  1.0000
  C   C1466     1.0  0.49131  0.62712  0.22589  1.0000
  C   C1467     1.0  0.06379  0.64726  0.32332  1.0000
  C   C1468     1.0  0.05304  0.62150  0.33599  1.0000
  C   C1469     1.0  0.06056  0.61554  0.32105  1.0000
  C   C1470     1.0  0.06973  0.62546  0.30731  1.0000
  C   C1471     1.0  0.07119  0.64133  0.30839  1.0000
  H   H1471     1.0  0.07534  0.62116  0.29566  1.0000
  H   H1472     1.0  0.07811  0.64904  0.29761  1.0000
  C   C1472     1.0  0.14128  0.57461  0.34937  1.0000
  C   C1473     1.0  0.13725  0.56676  0.33871  1.0000
  H   H1473     1.0  0.34991  0.61034  0.32941  1.0000
  H   H1474     1.0  0.14422  0.58704  0.34457  1.0000
  H   H1475     1.0  0.12995  0.54471  0.33694  1.0000
  H   H1476     1.0  0.33711  0.52722  0.33776  1.0000
  H   H1477     1.0  0.03066  0.87851  0.32884  1.0000
  H   H1478     1.0  0.04183  0.61315  0.23856  1.0000
  C   C1474     1.0  0.07943  0.58865  0.20966  1.0000
  C   C1475     1.0  0.07481  0.58188  0.22705  1.0000
  C   C1476     1.0  0.08529  0.58103  0.23797  1.0000
  C   C1477     1.0  0.10051  0.58688  0.23152  1.0000
  C   C1478     1.0  0.10526  0.59338  0.21411  1.0000
  C   C1479     1.0  0.09473  0.59432  0.20320  1.0000
  H   H1479     1.0  0.06300  0.57742  0.23210  1.0000
  H   H1480     1.0  0.08153  0.57594  0.25133  1.0000
  H   H1481     1.0  0.11707  0.59785  0.20902  1.0000
  H   H1482     1.0  0.09841  0.59955  0.18982  1.0000
  C   C1480     1.0  0.46872  0.62683  0.35089  1.0000
  S   S526      1.0  0.29368  0.93313  0.36943  1.0000
  S   S527      1.0  0.27821  0.97223  0.37552  1.0000
  C   C1481     1.0  0.49275  0.60612  0.28107  1.0000
  H   H1483     1.0  0.36094  0.93937  0.34532  1.0000
  H   H1484     1.0  0.36979  0.56257  0.28271  1.0000
  C   C1482     1.0  0.21281  0.93024  0.33905  1.0000
  C   C1483     1.0  0.13300  0.55088  0.34512  1.0000
  H   H1485     1.0  0.41765  0.97745  0.20723  1.0000
  H   H1486     1.0  0.42354  0.96799  0.28620  1.0000
  C   C1484     1.0  0.33403  0.95698  0.32950  1.0000
  C   C1485     1.0  0.32942  0.94265  0.32816  1.0000
  C   C1486     1.0  0.33796  0.93483  0.31447  1.0000
  C   C1487     1.0  0.35120  0.94122  0.30216  1.0000
  C   C1488     1.0  0.35569  0.95559  0.30347  1.0000
  C   C1489     1.0  0.34713  0.96343  0.31710  1.0000
  H   H1487     1.0  0.31929  0.93763  0.33761  1.0000
  H   H1488     1.0  0.33429  0.92383  0.31343  1.0000
  H   H1489     1.0  0.36553  0.96089  0.29382  1.0000
  H   H1490     1.0  0.06599  0.62562  0.22011  1.0000
  H   H1491     1.0  0.30426  0.89574  0.38164  1.0000
  H   H1492     1.0  0.27988  0.61231  0.37524  1.0000
  S   S528      1.0  0.34054  0.55707  0.36353  1.0000
  N   N126      1.0  0.44458  0.66466  0.29038  1.0000
  H   H1493     1.0  0.43028  0.97675  0.30905  1.0000
  H   H1494     1.0  0.13051  0.53018  0.36679  1.0000
  C   C1490     1.0  0.00351  0.68634  0.34329  1.0000
  H   H1495     1.0  0.47650  0.56023  0.19156  1.0000
  C   C1491     1.0  0.21133  0.91443  0.38249  1.0000
  C   C1492     1.0  0.43119  0.85544  0.31988  1.0000
  C   C1493     1.0  0.42988  0.86478  0.33178  1.0000
  C   C1494     1.0  0.43147  0.88170  0.32648  1.0000
  C   C1495     1.0  0.43383  0.88950  0.30929  1.0000
  C   C1496     1.0  0.43495  0.88025  0.29738  1.0000
  C   C1497     1.0  0.43396  0.86314  0.30266  1.0000
  H   H1496     1.0  0.42805  0.85891  0.34503  1.0000
  H   H1497     1.0  0.43067  0.88881  0.33572  1.0000
  H   H1498     1.0  0.43706  0.88614  0.28406  1.0000
  H   H1499     1.0  0.43524  0.85588  0.29339  1.0000
  H   H1500     1.0  0.22326  0.93170  0.34360  1.0000
  H   H1501     1.0  0.12863  0.64502  0.38159  1.0000
  C   C1498     1.0  0.04584  0.97121  0.21139  1.0000
  C   C1499     1.0  0.13335  0.54266  0.36201  1.0000
  H   H1502     1.0  0.44150  0.95394  0.20042  1.0000
  C   C1500     1.0  0.07751  0.61752  0.25729  1.0000
  H   H1503     1.0  0.05430  0.90687  0.35521  1.0000
  C   C1501     1.0  0.23084  0.93886  0.37681  1.0000
  C   C1502     1.0  0.20942  0.91420  0.34168  1.0000
  C   C1503     1.0  0.36488  0.57434  0.31306  1.0000
  C   C1504     1.0  0.37175  0.55690  0.31594  1.0000
  C   C1505     1.0  0.38931  0.55088  0.30975  1.0000
  C   C1506     1.0  0.40000  0.56232  0.30126  1.0000
  C   C1507     1.0  0.39329  0.57966  0.29997  1.0000
  C   C1508     1.0  0.37572  0.58568  0.30539  1.0000
  H   H1504     1.0  0.36340  0.54809  0.32188  1.0000
  H   H1505     1.0  0.39448  0.53743  0.31100  1.0000
  H   H1506     1.0  0.40153  0.58853  0.29434  1.0000
  H   H1507     1.0  0.37053  0.59918  0.30322  1.0000
  C   C1509     1.0  0.38709  0.73858  0.36599  1.0000
  C   C1510     1.0  0.38513  0.75602  0.35925  1.0000
  C   C1511     1.0  0.00960  0.65719  0.34113  1.0000
  C   C1512     1.0  0.20006  0.56006  0.34751  1.0000
  C   C1513     1.0  0.20232  0.94438  0.33107  1.0000
  H   H1508     1.0  0.40912  0.60580  0.22912  1.0000
  H   H1509     1.0  0.37938  0.76162  0.34837  1.0000
  H   H1510     1.0  0.19038  0.93562  0.37820  1.0000
  H   H1511     1.0  0.00410  0.91455  0.30881  1.0000
  C   C1514     1.0  0.01524  0.67199  0.33894  1.0000
  C   C1515     1.0  0.41844  0.64047  0.33740  1.0000
  C   C1516     1.0  0.43148  0.63116  0.32691  1.0000
  C   C1517     1.0  0.42859  0.62869  0.31215  1.0000
  C   C1518     1.0  0.41266  0.63563  0.30779  1.0000
  C   C1519     1.0  0.39945  0.64437  0.31860  1.0000
  C   C1520     1.0  0.40224  0.64644  0.33352  1.0000
  H   H1512     1.0  0.44389  0.62615  0.33003  1.0000
  H   H1513     1.0  0.43883  0.62202  0.30381  1.0000
  H   H1514     1.0  0.38715  0.64984  0.31526  1.0000
  H   H1515     1.0  0.39191  0.65294  0.34182  1.0000
  C   C1521     1.0  0.47844  0.61286  0.29237  1.0000
  H   H1516     1.0  0.46869  0.62919  0.31015  1.0000
  H   H1517     1.0  0.46662  0.60879  0.29471  1.0000
  H   H1518     1.0  0.31978  0.64516  0.36186  1.0000
  S   S529      1.0  0.49694  0.64220  0.31075  1.0000
  C   C1522     1.0  0.09782  0.58428  0.35712  1.0000
  H   H1519     1.0  0.45854  0.85332  0.35529  1.0000
  H   H1520     1.0  0.09129  0.64432  0.34533  1.0000
  S   S530      1.0  0.04313  0.70276  0.34938  1.0000
  C   C1523     1.0  0.06849  0.49815  0.28865  1.0000
  C   C1524     1.0  0.42930  0.98560  0.29714  1.0000
  C   C1525     1.0  0.32135  0.51378  0.33213  1.0000
  H   H1521     1.0  0.05198  0.93116  0.20572  1.0000
  H   H1522     1.0  0.02292  0.96381  0.23875  1.0000
  S   S531      1.0  0.99967  0.70310  0.37936  1.0000
  H   H1523     1.0  0.09853  0.57118  0.35717  1.0000
  C   C1526     1.0  0.45757  0.66553  0.29697  1.0000
  C   C1527     1.0  0.12242  0.91869  0.33230  1.0000
  C   C1528     1.0  0.10835  0.92604  0.34347  1.0000
  C   C1529     1.0  0.09177  0.92966  0.34047  1.0000
  C   C1530     1.0  0.08908  0.92604  0.32623  1.0000
  C   C1531     1.0  0.10314  0.91876  0.31497  1.0000
  C   C1532     1.0  0.11975  0.91511  0.31799  1.0000
  H   H1524     1.0  0.11022  0.92935  0.35422  1.0000
  H   H1525     1.0  0.08100  0.93545  0.34914  1.0000
  H   H1526     1.0  0.10129  0.91617  0.30379  1.0000
  H   H1527     1.0  0.13055  0.90960  0.30917  1.0000
  C   C1533     1.0  0.03821  0.86793  0.33609  1.0000
  C   C1534     1.0  0.05312  0.85831  0.32786  1.0000
  C   C1535     1.0  0.06251  0.84434  0.33736  1.0000
  C   C1536     1.0  0.11313  0.78372  0.36947  1.0000
  H   H1528     1.0  0.07397  0.83680  0.33104  1.0000
  Fe  Fe263     1.0  0.06114  0.70299  0.36481  1.0000
  H   H1529     1.0  0.48504  0.59401  0.21430  1.0000
  H   H1530     1.0  0.08418  0.49957  0.24915  1.0000
  C   C1537     1.0  0.44270  0.59148  0.20757  1.0000
  C   C1538     1.0  0.44215  0.57543  0.21790  1.0000
  C   C1539     1.0  0.43942  0.56275  0.21166  1.0000
  C   C1540     1.0  0.42538  0.98066  0.28424  1.0000
  H   H1531     1.0  0.47082  0.66115  0.29104  1.0000
  H   H1532     1.0  0.44373  0.57277  0.23074  1.0000
  H   H1533     1.0  0.43905  0.55032  0.21970  1.0000
  C   C1541     1.0  0.39426  0.93368  0.19529  1.0000
  C   C1542     1.0  0.40339  0.93104  0.20793  1.0000
  C   C1543     1.0  0.42126  0.92621  0.20427  1.0000
  H   H1534     1.0  0.38042  0.93705  0.19828  1.0000
  H   H1535     1.0  0.39656  0.93234  0.22059  1.0000
  C   C1544     1.0  0.32507  0.61952  0.37622  1.0000
  S   S532      1.0  0.06603  0.66724  0.32397  1.0000
  C   C1545     1.0  0.05720  0.84013  0.35501  1.0000
  C   C1546     1.0  0.45938  0.93327  0.31321  1.0000
  C   C1547     1.0  0.09285  0.93686  0.19129  1.0000
  C   C1548     1.0  0.09794  0.93219  0.20685  1.0000
  C   C1549     1.0  0.08643  0.92732  0.22200  1.0000
  C   C1550     1.0  0.06996  0.92666  0.22149  1.0000
  C   C1551     1.0  0.06486  0.93137  0.20598  1.0000
  C   C1552     1.0  0.20458  0.55045  0.36268  1.0000
  H   H1536     1.0  0.11072  0.93265  0.20718  1.0000
  H   H1537     1.0  0.06109  0.92278  0.23307  1.0000
  C   C1553     1.0  0.33696  0.64229  0.37799  1.0000
  C   C1554     1.0  0.30981  0.50471  0.37815  1.0000
  H   H1538     1.0  0.04212  0.89039  0.36421  1.0000
  H   H1539     1.0  0.41059  0.68173  0.31799  1.0000
  C   C1555     1.0  0.07457  0.97586  0.20015  1.0000
  H   H1540     1.0  0.48666  0.84669  0.36252  1.0000
  H   H1541     1.0  0.35578  0.50106  0.35036  1.0000
  H   H1542     1.0  0.46693  0.93424  0.20954  1.0000
  C   C1556     1.0  0.42733  0.98471  0.20639  1.0000
  H   H1543     1.0  0.10461  0.62370  0.23338  1.0000
  H   H1544     1.0  0.18054  0.95317  0.31928  1.0000
  C   C1557     1.0  0.18885  0.94229  0.32545  1.0000
  H   H1545     1.0  0.16971  0.54113  0.34644  1.0000
  C   C1558     1.0  0.05164  0.61458  0.24401  1.0000
  H   H1546     1.0  0.01782  0.89977  0.26829  1.0000
  H   H1547     1.0  0.08465  0.97938  0.18947  1.0000
  Fe  Fe264     1.0  0.31875  0.54363  0.37131  1.0000
  C   C1559     1.0  0.13786  0.55032  0.37253  1.0000
  H   H1548     1.0  0.11017  0.78134  0.34562  1.0000
  H   H1549     1.0  0.43394  0.68196  0.33097  1.0000
  H   H1550     1.0  0.03513  0.96469  0.25284  1.0000
  S   S533      1.0  0.41703  0.98697  0.25329  1.0000
  H   H1551     1.0  0.45995  0.93835  0.33675  1.0000
  C   C1560     1.0  0.07620  0.93668  0.19089  1.0000
  C   C1561     1.0  0.45398  0.67170  0.31167  1.0000
  H   H1552     1.0  0.14431  0.57277  0.37441  1.0000
  C   C1562     1.0  0.06477  0.96505  0.22994  1.0000
  H   H1553     1.0  0.06743  0.51833  0.24976  1.0000
  S   S534      1.0  0.39811  0.84841  0.36591  1.0000
  C   C1563     1.0  0.37601  0.60718  0.36205  1.0000
  Fe  Fe265     1.0  0.03555  0.92434  0.28282  1.0000
  C   C1564     1.0  0.17965  0.54373  0.35083  1.0000
  C   C1565     1.0  0.06898  0.75327  0.37279  1.0000
  N   N127      1.0  0.36005  0.87500  0.31602  1.0000
  C   C1566     1.0  0.37303  0.86151  0.31978  1.0000
  C   C1567     1.0  0.36291  0.88752  0.30194  1.0000
  C   C1568     1.0  0.38931  0.86016  0.30910  1.0000
  C   C1569     1.0  0.37898  0.88650  0.29095  1.0000
  C   C1570     1.0  0.39227  0.87276  0.29459  1.0000
  C   C1571     1.0  0.34323  0.87651  0.32759  1.0000
  H   H1554     1.0  0.37085  0.85166  0.33106  1.0000
  H   H1555     1.0  0.35276  0.89841  0.29905  1.0000
  H   H1556     1.0  0.39955  0.84938  0.31204  1.0000
  H   H1557     1.0  0.38102  0.89640  0.27969  1.0000
  H   H1558     1.0  0.40483  0.87189  0.28618  1.0000
  H   H1559     1.0  0.34006  0.86384  0.33337  1.0000
  H   H1560     1.0  0.34326  0.88239  0.33789  1.0000
  H   H1561     1.0  0.33289  0.88430  0.32096  1.0000
  H   H1562     1.0  0.17539  0.92453  0.32379  1.0000
  S   S535      1.0  0.26464  0.58862  0.36581  1.0000
  H   H1563     1.0  0.02110  0.87087  0.36003  1.0000
  H   H1564     1.0  0.37139  0.63424  0.35476  1.0000
  H   H1565     1.0  0.46860  0.96570  0.32321  1.0000
  H   H1566     1.0  0.04924  0.64163  0.34883  1.0000
  C   C1572     1.0  0.03273  0.86351  0.35374  1.0000
  H   H1567     1.0  0.46013  0.64708  0.27530  1.0000
  H   H1568     1.0  0.07893  0.51267  0.22981  1.0000
  H   H1569     1.0  0.08770  0.61842  0.26254  1.0000
  C   C1573     1.0  0.43699  0.67752  0.31932  1.0000
  N   N128      1.0  0.46769  0.83178  0.37336  1.0000
  H   H1570     1.0  0.33403  0.91311  0.36472  1.0000
  C   C1574     1.0  0.05247  0.89478  0.35373  1.0000
  H   H1571     1.0  0.20628  0.57045  0.34049  1.0000
  H   H1572     1.0  0.41692  0.86339  0.37984  1.0000
  H   H1573     1.0  0.01118  0.86321  0.31517  1.0000
  H   H1574     1.0  0.47206  0.62427  0.21478  1.0000
  H   H1575     1.0  0.34738  0.90788  0.37997  1.0000
  H   H1576     1.0  0.19489  0.88777  0.35195  1.0000
  N   N129      1.0  0.09618  0.61781  0.35679  1.0000
  H   H1577     1.0  0.48304  0.49147  0.27069  1.0000
  C   C1575     1.0  0.09374  0.49293  0.30000  1.0000
  C   C1576     1.0  0.05487  0.63724  0.33722  1.0000
  C   C1577     1.0  0.19274  0.89535  0.33932  1.0000
  C   C1578     1.0  0.34555  0.50022  0.34512  1.0000
  H   H1578     1.0  0.49553  0.62937  0.36118  1.0000
  S   S536      1.0  0.46472  0.88781  0.37751  1.0000
  H   H1579     1.0  0.24770  0.49870  0.38312  1.0000
  H   H1580     1.0  0.04599  0.61382  0.34668  1.0000
  Fe  Fe266     1.0  0.30390  0.95589  0.36736  1.0000
  N   N130      1.0  0.48615  0.61643  0.34823  1.0000
  H   H1581     1.0  0.06463  0.82945  0.36211  1.0000
  Fe  Fe267     1.0  0.05754  0.67621  0.34840  1.0000
  H   H1582     1.0  0.35072  0.97453  0.31804  1.0000
  H   H1583     1.0  0.38808  0.77984  0.36180  1.0000
  C   C1579     1.0  0.07774  0.97014  0.21642  1.0000
  C   C1580     1.0  0.09540  0.53594  0.22784  1.0000
  C   C1581     1.0  0.09747  0.87264  0.33864  1.0000
  C   C1582     1.0  0.49017  0.60436  0.33885  1.0000
  H   H1584     1.0  0.30751  0.49699  0.32912  1.0000
  H   H1585     1.0  0.08986  0.64397  0.22973  1.0000
  S   S537      1.0  0.42268  0.81042  0.37454  1.0000
  H   H1586     1.0  0.45902  0.61899  0.35387  1.0000
  H   H1587     1.0  0.07052  0.76058  0.35992  1.0000
  C   C1583     1.0  0.42386  0.67737  0.31203  1.0000
  H   H1588     1.0  0.49515  0.93472  0.33208  1.0000
  H   H1589     1.0  0.26979  0.55322  0.38249  1.0000
  Fe  Fe268     1.0  0.36170  0.67015  0.37602  1.0000
  H   H1590     1.0  0.32041  0.87495  0.36394  1.0000
  C   C1584     1.0  0.06537  0.62163  0.23362  1.0000
  C   C1585     1.0  0.20370  0.93166  0.37901  1.0000
  S   S538      1.0  0.05517  0.49102  0.28049  1.0000
  C   C1586     1.0  0.29590  0.51358  0.37073  1.0000
  C   C1587     1.0  0.44864  0.65763  0.27526  1.0000
  C   C1588     1.0  0.04224  0.84961  0.36328  1.0000
  C   C1589     1.0  0.46621  0.96773  0.22517  1.0000
  H   H1591     1.0  0.20139  0.88876  0.32938  1.0000
  C   C1590     1.0  0.08020  0.51294  0.24254  1.0000
  N   N131      1.0  0.44258  0.97330  0.21176  1.0000
  C   C1591     1.0  0.10054  0.51978  0.25456  1.0000
  C   C1592     1.0  0.10684  0.54583  0.22693  1.0000
  C   C1593     1.0  0.14141  0.56649  0.36628  1.0000
  H   H1592     1.0  0.44456  0.83886  0.36433  1.0000
  C   C1594     1.0  0.46679  0.95463  0.28840  1.0000
  Fe  Fe269     1.0  0.40035  0.66282  0.36786  1.0000
  H   H1593     1.0  0.11430  0.79685  0.36507  1.0000
  H   H1594     1.0  0.17667  0.52434  0.37366  1.0000
  C   C1595     1.0  0.01655  0.88108  0.29170  1.0000
  N   N132      1.0  0.09258  0.52293  0.24145  1.0000
  C   C1596     1.0  0.48372  0.61816  0.21935  1.0000
  H   H1595     1.0  0.41759  0.67038  0.29212  1.0000
  C   C1597     1.0  0.09904  0.58870  0.37150  1.0000
  C   C1598     1.0  0.47474  0.97996  0.29024  1.0000
  C   C1599     1.0  0.39454  0.73139  0.38005  1.0000
  C   C1600     1.0  0.21349  0.94383  0.37599  1.0000
  C   C1601     1.0  0.35293  0.64043  0.33130  1.0000
  C   C1602     1.0  0.42996  0.92446  0.18784  1.0000
  H   H1596     1.0  0.01863  0.64598  0.33771  1.0000
  N   N133      1.0  0.35997  0.62393  0.34112  1.0000
  S   S539      1.0  0.31158  0.59211  0.35617  1.0000
  N   N134      1.0  0.46897  0.96408  0.29825  1.0000
  N   N135      1.0  0.06864  0.88220  0.35321  1.0000
  C   C1603     1.0  0.44829  0.95783  0.20753  1.0000
  C   C1604     1.0  0.07103  0.86929  0.36691  1.0000
  C   C1605     1.0  0.09552  0.61350  0.34248  1.0000
  C   C1606     1.0  0.08671  0.85769  0.36673  1.0000
  H   H1597     1.0  0.38306  0.60647  0.37141  1.0000
  N   N136      1.0  0.19596  0.91231  0.33648  1.0000
  H   H1598     1.0  0.46696  0.63673  0.33930  1.0000
  C   C1607     1.0  0.19628  0.53740  0.37207  1.0000
  H   H1599     1.0  0.44377  0.92065  0.18498  1.0000
  H   H1600     1.0  0.08520  0.63915  0.36794  1.0000
  C   C1608     1.0  0.37304  0.59250  0.35973  1.0000
  C   C1609     1.0  0.06395  0.61042  0.26806  1.0000
  H   H1601     1.0  0.09827  0.50954  0.26534  1.0000
  C   C1610     1.0  0.23834  0.92165  0.38084  1.0000
  C   C1611     1.0  0.18364  0.53407  0.36619  1.0000
  N   N137      1.0  0.39124  0.59028  0.24205  1.0000
  C   C1612     1.0  0.39939  0.57394  0.24744  1.0000
  C   C1613     1.0  0.37595  0.59713  0.25148  1.0000
  C   C1614     1.0  0.39183  0.56374  0.26215  1.0000
  C   C1615     1.0  0.09239  0.63042  0.22931  1.0000
  C   C1616     1.0  0.37586  0.57036  0.27134  1.0000
  C   C1617     1.0  0.39937  0.60067  0.22649  1.0000
  H   H1602     1.0  0.25172  0.91773  0.38145  1.0000
  H   H1603     1.0  0.22794  0.59555  0.37435  1.0000
  H   H1604     1.0  0.13650  0.86979  0.38386  1.0000
  H   H1605     1.0  0.13377  0.84671  0.37246  1.0000
  H   H1606     1.0  0.40576  0.59304  0.21669  1.0000
  H   H1607     1.0  0.38989  0.61142  0.22102  1.0000
  C   C1618     1.0  0.45146  0.97843  0.22026  1.0000
  H   H1608     1.0  0.29323  0.52725  0.36739  1.0000
  C   C1619     1.0  0.05099  0.60891  0.26133  1.0000
  S   S540      1.0  0.49141  0.59123  0.27072  1.0000
  H   H1609     1.0  0.35364  0.65103  0.33646  1.0000
  S   S541      1.0  0.35169  0.85024  0.36520  1.0000
  H   H1610     1.0  0.03358  0.97124  0.20919  1.0000
  C   C1620     1.0  0.11484  0.54283  0.24037  1.0000
  H   H1611     1.0  0.43798  0.65224  0.27479  1.0000
  N   N138      1.0  0.04901  0.96578  0.22734  1.0000
  C   C1621     1.0  0.28563  0.50473  0.36726  1.0000
  H   H1612     1.0  0.46876  0.95908  0.27479  1.0000
  H   H1613     1.0  0.20458  0.95691  0.32935  1.0000
  C   C1622     1.0  0.09617  0.59672  0.34247  1.0000
  S   S542      1.0  0.42294  0.64582  0.35433  1.0000
  C   C1623     1.0  0.46280  0.94670  0.21251  1.0000
  H   H1614     1.0  0.09552  0.59338  0.33112  1.0000
  C   C1624     1.0  0.36797  0.58723  0.26621  1.0000
  H   H1615     1.0  0.36153  0.58235  0.34573  1.0000
  H   H1616     1.0  0.45565  0.92121  0.31906  1.0000
  C   C1625     1.0  0.32652  0.63651  0.37122  1.0000
  H   H1617     1.0  0.43567  0.88409  0.36800  1.0000
  S   S543      1.0  0.32412  0.51535  0.38071  1.0000
  H   H1618     1.0  0.45101  0.66765  0.26373  1.0000
  H   H1619     1.0  0.33919  0.64152  0.33178  1.0000
  C   C1626     1.0  0.06817  0.73620  0.37608  1.0000
  H   H1620     1.0  0.17925  0.89593  0.33911  1.0000
  C   C1627     1.0  0.31838  0.49781  0.33340  1.0000
  C   C1628     1.0  0.18595  0.92603  0.32811  1.0000
  H   H1621     1.0  0.36012  0.64192  0.31794  1.0000
  S   S544      1.0  0.19993  0.89891  0.38439  1.0000
  C   C1629     1.0  0.36376  0.59367  0.34779  1.0000
  C   C1630     1.0  0.48238  0.83659  0.37264  1.0000
  H   H1622     1.0  0.36270  0.88637  0.36048  1.0000
  C   C1631     1.0  0.23257  0.58237  0.37974  1.0000
  C   C1632     1.0  0.46189  0.93914  0.29572  1.0000
  H   H1623     1.0  0.46386  0.83321  0.34903  1.0000
  C   C1633     1.0  0.35726  0.60957  0.33855  1.0000
  H   H1624     1.0  0.46882  0.98683  0.27924  1.0000
  S   S545      1.0  0.07723  0.67748  0.36136  1.0000
  H   H1625     1.0  0.17520  0.57957  0.32815  1.0000
  C   C1634     1.0  0.36939  0.62288  0.35254  1.0000
  H   H1626     1.0  0.07968  0.89420  0.32837  1.0000
  C   C1635     1.0  0.33500  0.51494  0.33808  1.0000
  N   N139      1.0  0.36026  0.91317  0.35415  1.0000
  H   H1627     1.0  0.06759  0.95998  0.24242  1.0000
  C   C1636     1.0  0.36769  0.89703  0.35196  1.0000
  C   C1637     1.0  0.38072  0.92404  0.33016  1.0000
  C   C1638     1.0  0.38185  0.89403  0.33874  1.0000
  C   C1639     1.0  0.38825  0.90769  0.32768  1.0000
  C   C1640     1.0  0.49851  0.61941  0.35428  1.0000
  N   N140      1.0  0.07817  0.62284  0.24029  1.0000
  C   C1641     1.0  0.46660  0.95837  0.31541  1.0000
  H   H1628     1.0  0.38563  0.93474  0.32168  1.0000
  C   C1642     1.0  0.36671  0.92657  0.34356  1.0000
  H   H1629     1.0  0.46436  0.67178  0.31715  1.0000
  C   C1643     1.0  0.46172  0.94292  0.32315  1.0000
  Fe  Fe270     1.0  0.29231  0.57573  0.36478  1.0000
  H   H1630     1.0  0.48052  0.60236  0.33358  1.0000
  C   C1644     1.0  0.03588  0.95972  0.24165  1.0000
  C   C1645     1.0  0.09819  0.60565  0.37111  1.0000
  C   C1646     1.0  0.39009  0.76635  0.36681  1.0000
  H   H1631     1.0  0.09440  0.62304  0.33097  1.0000
  H   H1632     1.0  0.48892  0.97726  0.28605  1.0000
  S   S546      1.0  0.38082  0.68096  0.35409  1.0000
  H   H1633     1.0  0.38791  0.88123  0.33712  1.0000
  H   H1634     1.0  0.21738  0.90332  0.34831  1.0000
  Fe  Fe271     1.0  0.38053  0.69883  0.36961  1.0000
  C   C1647     1.0  0.49514  0.62916  0.29851  1.0000
  C   C1648     1.0  0.09506  0.63548  0.35687  1.0000
  H   H1635     1.0  0.08853  0.84743  0.37754  1.0000
  C   C1649     1.0  0.11085  0.77501  0.35858  1.0000
  C   C1650     1.0  0.39717  0.75925  0.38109  1.0000
  H   H1636     1.0  0.27514  0.51166  0.36113  1.0000
  H   H1637     1.0  0.10761  0.63716  0.35764  1.0000
  S   S547      1.0  0.24291  0.95449  0.37177  1.0000
  H   H1638     1.0  0.41183  0.56870  0.24042  1.0000
  N   N141      1.0  0.18785  0.55652  0.34169  1.0000
  H   H1639     1.0  0.02966  0.87999  0.29238  1.0000
  Fe  Fe272     1.0  0.37670  0.83502  0.37157  1.0000
  H   H1640     1.0  0.11225  0.85051  0.35239  1.0000
  H   H1641     1.0  0.04056  0.60320  0.26954  1.0000
  Fe  Fe273     1.0  0.39911  0.80001  0.38020  1.0000
  C   C1651     1.0  0.44063  0.59479  0.19093  1.0000
  C   C1652     1.0  0.05853  0.97640  0.19758  1.0000
  C   C1653     1.0  0.10938  0.75810  0.36455  1.0000
  C   C1654     1.0  0.00997  0.89202  0.27811  1.0000
  H   H1642     1.0  0.10910  0.55611  0.21609  1.0000
  H   H1643     1.0  0.31707  0.61528  0.37085  1.0000
  C   C1655     1.0  0.34001  0.86416  0.37846  1.0000
  C   C1656     1.0  0.25023  0.57555  0.37726  1.0000
  H   H1644     1.0  0.39849  0.55090  0.26661  1.0000
  Fe  Fe274     1.0  0.32272  0.57604  0.37808  1.0000
  H   H1645     1.0  0.06073  0.86775  0.37799  1.0000
  H   H1646     1.0  0.10772  0.87423  0.32752  1.0000
  C   C1657     1.0  0.10001  0.85942  0.35254  1.0000
  H   H1647     1.0  0.17534  0.56120  0.32115  1.0000
  H   H1648     1.0  0.10757  0.75141  0.35603  1.0000
  H   H1649     1.0  0.04812  0.89726  0.34178  1.0000
  H   H1650     1.0  0.46597  0.63320  0.36158  1.0000
  S   S548      1.0  0.04059  0.66448  0.37175  1.0000
  S   S549      1.0  0.33993  0.66319  0.37003  1.0000
  Fe  Fe275     1.0  0.26811  0.94884  0.37968  1.0000
  H   H1651     1.0  0.00779  0.69784  0.34194  1.0000
  C   C1658     1.0  0.34502  0.91604  0.36764  1.0000
  Fe  Fe276     1.0  0.02778  0.69117  0.37401  1.0000
  H   H1652     1.0  0.03900  0.94568  0.24515  1.0000
  H   H1653     1.0  0.20760  0.95714  0.37290  1.0000
  H   H1654     1.0  0.09914  0.60907  0.38232  1.0000
  H   H1655     1.0  0.10083  0.57902  0.38279  1.0000
  N   N142      1.0  0.10981  0.75022  0.38101  1.0000
  C   C1659     1.0  0.25618  0.55855  0.38433  1.0000
  H   H1656     1.0  0.10273  0.72828  0.37905  1.0000
  H   H1657     1.0  0.06896  0.77394  0.38335  1.0000
  Fe  Fe277     1.0  0.17199  0.90772  0.38354  1.0000
  H   H1658     1.0  0.09767  0.65785  0.38446  1.0000
  S   S550      1.0  0.12357  0.91876  0.38330  1.0000
  C   C1660     1.0  0.22862  0.90947  0.38352  1.0000
  H   H1659     1.0  0.35003  0.75913  0.38361  1.0000
  H   H1660     1.0  0.19932  0.53021  0.38411  1.0000
  C   C1661     1.0  0.31590  0.88719  0.38459  1.0000
  H   H1661     1.0  0.47096  0.98859  0.29916  1.0000
  H   H1662     1.0  0.48423  0.58799  0.18541  1.0000
  Fe  Fe278     1.0  0.05306  0.82438  0.40026  1.0000
  H   H1663     1.0  0.10666  0.49572  0.54645  1.0000
  Fe  Fe279     1.0  0.06357  0.81299  0.43443  1.0000
  S   S551      1.0  0.08616  0.79358  0.42524  1.0000
  S   S552      1.0  0.05870  0.81276  0.46219  1.0000
  Fe  Fe280     1.0  0.09020  0.81343  0.40163  1.0000
  H   H1664     1.0  0.23590  0.49280  0.54681  1.0000
  Fe  Fe281     1.0  0.06812  0.78731  0.41354  1.0000
  S   S553      1.0  0.06803  0.75959  0.41906  1.0000
  S   S554      1.0  0.06923  0.83360  0.41172  1.0000
  H   H1665     1.0  0.35302  0.63554  0.39600  1.0000
  S   S555      1.0  0.12437  0.87729  0.41742  1.0000
  H   H1666     1.0  0.42142  0.65507  0.55139  1.0000
  C   C1662     1.0  0.13812  0.87592  0.48222  1.0000
  H   H1667     1.0  0.21822  0.50310  0.42311  1.0000
  Fe  Fe282     1.0  0.06701  0.87547  0.54005  1.0000
  S   S556      1.0  0.08663  0.85870  0.55426  1.0000
  Fe  Fe283     1.0  0.08523  0.86238  0.50824  1.0000
  S   S557      1.0  0.10633  0.84435  0.52006  1.0000
  S   S558      1.0  0.08618  0.86695  0.48048  1.0000
  Fe  Fe284     1.0  0.08499  0.83863  0.54223  1.0000
  Fe  Fe285     1.0  0.10592  0.86615  0.53087  1.0000
  S   S559      1.0  0.12998  0.87211  0.53317  1.0000
  S   S560      1.0  0.06372  0.85496  0.52959  1.0000
  S   S561      1.0  0.08639  0.88455  0.51742  1.0000
  Fe  Fe286     1.0  0.15059  0.95964  0.52032  1.0000
  H   H1668     1.0  0.02728  0.64854  0.43284  1.0000
  S   S562      1.0  0.13618  0.94889  0.50810  1.0000
  C   C1663     1.0  0.26015  0.54350  0.54807  1.0000
  C   C1664     1.0  0.14697  0.87173  0.44915  1.0000
  C   C1665     1.0  0.11595  0.48963  0.55428  1.0000
  Fe  Fe287     1.0  0.38057  0.67199  0.40151  1.0000
  C   C1666     1.0  0.22423  0.49499  0.54235  1.0000
  S   S563      1.0  0.37734  0.66837  0.42970  1.0000
  H   H1669     1.0  0.15625  0.95756  0.45529  1.0000
  S   S564      1.0  0.17118  0.98493  0.53891  1.0000
  S   S565      1.0  0.33143  0.97725  0.45811  1.0000
  N   N143      1.0  0.27456  0.60128  0.40137  1.0000
  S   S566      1.0  0.16228  0.94771  0.54296  1.0000
  S   S567      1.0  0.15172  0.91129  0.40691  1.0000
  H   H1670     1.0  0.16268  0.61563  0.47381  1.0000
  C   C1667     1.0  0.22123  0.96793  0.40836  1.0000
  H   H1671     1.0  0.28296  0.52033  0.56388  1.0000
  H   H1672     1.0  0.20663  0.98484  0.52464  1.0000
  C   C1668     1.0  0.25449  0.96362  0.52362  1.0000
  C   C1669     1.0  0.29022  0.97830  0.43131  1.0000
  Fe  Fe288     1.0  0.40264  0.71043  0.51741  1.0000
  S   S568      1.0  0.37732  0.72578  0.52799  1.0000
  S   S569      1.0  0.42206  0.69543  0.53302  1.0000
  Fe  Fe289     1.0  0.39501  0.71902  0.48226  1.0000
  S   S570      1.0  0.36896  0.73472  0.49025  1.0000
  S   S571      1.0  0.40522  0.71776  0.45491  1.0000
  Fe  Fe290     1.0  0.38218  0.74509  0.50396  1.0000
  S   S572      1.0  0.37694  0.77312  0.50286  1.0000
  Fe  Fe291     1.0  0.36701  0.71368  0.51335  1.0000
  S   S573      1.0  0.34493  0.70119  0.52697  1.0000
  S   S574      1.0  0.40846  0.73074  0.49437  1.0000
  S   S575      1.0  0.39207  0.69704  0.50422  1.0000
  S   S576      1.0  0.35194  0.59490  0.55294  1.0000
  Fe  Fe292     1.0  0.30305  0.60656  0.55429  1.0000
  S   S577      1.0  0.32222  0.59585  0.53323  1.0000
  H   H1673     1.0  0.39713  0.60650  0.57276  1.0000
  Fe  Fe293     1.0  0.33441  0.57822  0.55418  1.0000
  S   S578      1.0  0.34376  0.54989  0.55878  1.0000
  Fe  Fe294     1.0  0.33772  0.61365  0.53418  1.0000
  S   S579      1.0  0.35132  0.63018  0.51140  1.0000
  S   S580      1.0  0.31739  0.62586  0.55353  1.0000
  C   C1670     1.0  0.43410  0.89817  0.58151  1.0000
  C   C1671     1.0  0.26642  0.57606  0.41983  1.0000
  Fe  Fe295     1.0  0.40594  0.83001  0.38876  1.0000
  S   S581      1.0  0.30462  0.50974  0.53363  1.0000
  C   C1672     1.0  0.15864  0.95850  0.39974  1.0000
  Fe  Fe296     1.0  0.28250  0.96220  0.40183  1.0000
  H   H1674     1.0  0.07292  0.75790  0.56088  1.0000
  C   C1673     1.0  0.49511  0.88726  0.52894  1.0000
  H   H1675     1.0  0.44875  0.85693  0.44844  1.0000
  C   C1674     1.0  0.10911  0.73227  0.38690  1.0000
  H   H1676     1.0  0.12467  0.84147  0.46650  1.0000
  H   H1677     1.0  0.31133  0.97088  0.41141  1.0000
  H   H1678     1.0  0.12820  0.58365  0.48111  1.0000
  S   S582      1.0  0.27043  0.94008  0.40681  1.0000
  S   S583      1.0  0.33254  0.58675  0.39453  1.0000
  C   C1675     1.0  0.04933  0.89232  0.57317  1.0000
  H   H1679     1.0  0.12447  0.61039  0.53847  1.0000
  Fe  Fe297     1.0  0.42611  0.82581  0.52689  1.0000
  S   S584      1.0  0.43515  0.84274  0.50220  1.0000
  S   S585      1.0  0.42828  0.79792  0.52917  1.0000
  Fe  Fe298     1.0  0.41923  0.85338  0.54658  1.0000
  S   S586      1.0  0.42749  0.87255  0.52345  1.0000
  C   C1676     1.0  0.15684  0.96945  0.44552  1.0000
  Fe  Fe299     1.0  0.41263  0.86243  0.51138  1.0000
  S   S587      1.0  0.39758  0.88141  0.49326  1.0000
  Fe  Fe300     1.0  0.44910  0.85126  0.51664  1.0000
  S   S588      1.0  0.47687  0.85270  0.50725  1.0000
  S   S589      1.0  0.40244  0.84477  0.53513  1.0000
  S   S590      1.0  0.44196  0.83273  0.54067  1.0000
  Fe  Fe301     1.0  0.32176  0.97404  0.48611  1.0000
  S   S591      1.0  0.30124  0.95945  0.49915  1.0000
  C   C1677     1.0  0.46943  0.86246  0.45553  1.0000
  H   H1680     1.0  0.38906  0.73566  0.55459  1.0000
  S   S592      1.0  0.30604  0.96502  0.53479  1.0000
  H   H1681     1.0  0.43426  0.89066  0.48255  1.0000
  Fe  Fe302     1.0  0.31818  0.94661  0.51768  1.0000
  S   S593      1.0  0.32453  0.91857  0.52806  1.0000
  H   H1682     1.0  0.25785  0.56733  0.42398  1.0000
  H   H1683     1.0  0.49377  0.80989  0.40804  1.0000
  S   S594      1.0  0.33958  0.95965  0.50332  1.0000
  H   H1684     1.0  0.14663  0.51175  0.48305  1.0000
  Fe  Fe303     1.0  0.18465  0.55525  0.41227  1.0000
  S   S595      1.0  0.16694  0.53747  0.42538  1.0000
  S   S596      1.0  0.21245  0.54198  0.40741  1.0000
  Fe  Fe304     1.0  0.15500  0.58585  0.40911  1.0000
  S   S597      1.0  0.13535  0.57018  0.42198  1.0000
  S   S598      1.0  0.13573  0.98303  0.52982  1.0000
  Fe  Fe305     1.0  0.15277  0.55753  0.44006  1.0000
  S   S599      1.0  0.14016  0.55135  0.46761  1.0000
  Fe  Fe306     1.0  0.15160  0.55209  0.40591  1.0000
  C   C1678     1.0  0.22138  0.49063  0.42022  1.0000
  S   S600      1.0  0.17148  0.57447  0.42840  1.0000
  H   H1685     1.0  0.29451  0.98623  0.46740  1.0000
  H   H1686     1.0  0.15968  0.59106  0.49860  1.0000
  C   C1679     1.0  0.13428  0.59844  0.45600  1.0000
  H   H1687     1.0  0.34082  0.87643  0.41349  1.0000
  Fe  Fe307     1.0  0.32651  0.97892  0.51906  1.0000
  C   C1680     1.0  0.13839  0.98543  0.39764  1.0000
  H   H1688     1.0  0.46500  0.88785  0.48175  1.0000
  S   S601      1.0  0.06748  0.64540  0.40550  1.0000
  C   C1681     1.0  0.03637  0.83306  0.51829  1.0000
  Fe  Fe308     1.0  0.20932  0.58995  0.52401  1.0000
  S   S602      1.0  0.19787  0.57131  0.54595  1.0000
  S   S603      1.0  0.23810  0.58666  0.51622  1.0000
  Fe  Fe309     1.0  0.17443  0.60896  0.51621  1.0000
  S   S604      1.0  0.16057  0.59151  0.53716  1.0000
  S   S605      1.0  0.15691  0.63009  0.50210  1.0000
  Fe  Fe310     1.0  0.17771  0.59400  0.55228  1.0000
  Fe  Fe311     1.0  0.18192  0.57088  0.52841  1.0000
  S   S606      1.0  0.17620  0.54694  0.52636  1.0000
  S   S607      1.0  0.19057  0.61274  0.53175  1.0000
  S   S608      1.0  0.19452  0.58807  0.50602  1.0000
  C   C1682     1.0  0.27762  0.56502  0.57110  1.0000
  S   S609      1.0  0.14006  0.49120  0.52470  1.0000
  S   S610      1.0  0.17032  0.56847  0.39167  1.0000
  H   H1689     1.0  0.39604  0.71797  0.38538  1.0000
  C   C1683     1.0  0.14415  0.64322  0.51596  1.0000
  C   C1684     1.0  0.13131  0.65701  0.51087  1.0000
  C   C1685     1.0  0.12103  0.66717  0.52230  1.0000
  C   C1686     1.0  0.12374  0.66354  0.53874  1.0000
  C   C1687     1.0  0.13644  0.64971  0.54375  1.0000
  C   C1688     1.0  0.14653  0.63958  0.53246  1.0000
  H   H1690     1.0  0.12936  0.65986  0.49812  1.0000
  H   H1691     1.0  0.11116  0.67783  0.51838  1.0000
  H   H1692     1.0  0.15603  0.62881  0.53671  1.0000
  H   H1693     1.0  0.17033  0.96897  0.43845  1.0000
  H   H1694     1.0  0.42071  0.75981  0.57825  1.0000
  S   S611      1.0  0.27421  0.97819  0.42140  1.0000
  C   C1689     1.0  0.24451  0.49930  0.39668  1.0000
  C   C1690     1.0  0.28854  0.59819  0.40823  1.0000
  C   C1691     1.0  0.15104  0.55009  0.48330  1.0000
  C   C1692     1.0  0.16585  0.55652  0.47967  1.0000
  C   C1693     1.0  0.17352  0.55601  0.49287  1.0000
  C   C1694     1.0  0.16650  0.54885  0.50961  1.0000
  C   C1695     1.0  0.15186  0.54230  0.51309  1.0000
  C   C1696     1.0  0.14407  0.54310  0.50003  1.0000
  H   H1695     1.0  0.17130  0.56198  0.46676  1.0000
  H   H1696     1.0  0.18499  0.56089  0.49008  1.0000
  H   H1697     1.0  0.14643  0.53664  0.52595  1.0000
  H   H1698     1.0  0.13263  0.53812  0.50299  1.0000
  C   C1697     1.0  0.43953  0.87431  0.46521  1.0000
  H   H1699     1.0  0.11512  0.85985  0.45260  1.0000
  H   H1700     1.0  0.01124  0.69369  0.41626  1.0000
  H   H1701     1.0  0.38791  0.74513  0.42603  1.0000
  C   C1698     1.0  0.07755  0.77248  0.48147  1.0000
  S   S612      1.0  0.14004  0.53914  0.39304  1.0000
  C   C1699     1.0  0.11279  0.61432  0.41268  1.0000
  C   C1700     1.0  0.09523  0.62149  0.41414  1.0000
  C   C1701     1.0  0.08964  0.63708  0.40376  1.0000
  C   C1702     1.0  0.14628  0.59362  0.49711  1.0000
  H   H1702     1.0  0.14096  0.67577  0.56750  1.0000
  H   H1703     1.0  0.11685  0.60258  0.42105  1.0000
  H   H1704     1.0  0.08594  0.61495  0.42335  1.0000
  H   H1705     1.0  0.13018  0.60452  0.56715  1.0000
  C   C1703     1.0  0.07792  0.77245  0.53538  1.0000
  C   C1704     1.0  0.22119  0.50765  0.52817  1.0000
  H   H1706     1.0  0.46413  0.85992  0.40688  1.0000
  C   C1705     1.0  0.03422  0.81172  0.50586  1.0000
  H   H1707     1.0  0.28312  0.56166  0.43680  1.0000
  C   C1706     1.0  0.28553  0.98295  0.44697  1.0000
  C   C1707     1.0  0.37391  0.75026  0.42960  1.0000
  Fe  Fe312     1.0  0.14913  0.97203  0.55137  1.0000
  C   C1708     1.0  0.14328  0.49436  0.45940  1.0000
  H   H1708     1.0  0.13533  0.83578  0.55623  1.0000
  C   C1709     1.0  0.37724  0.89157  0.50301  1.0000
  C   C1710     1.0  0.36921  0.90724  0.49451  1.0000
  C   C1711     1.0  0.35297  0.91553  0.50206  1.0000
  C   C1712     1.0  0.34459  0.90810  0.51806  1.0000
  C   C1713     1.0  0.35247  0.89226  0.52641  1.0000
  C   C1714     1.0  0.36885  0.88411  0.51900  1.0000
  H   H1709     1.0  0.37566  0.91306  0.48215  1.0000
  H   H1710     1.0  0.34686  0.92755  0.49538  1.0000
  H   H1711     1.0  0.34599  0.88632  0.53869  1.0000
  H   H1712     1.0  0.37482  0.87194  0.52556  1.0000
  S   S613      1.0  0.07451  0.80529  0.38878  1.0000
  C   C1715     1.0  0.34534  0.63113  0.39035  1.0000
  C   C1716     1.0  0.15469  0.61072  0.46887  1.0000
  H   H1713     1.0  0.03214  0.80797  0.49535  1.0000
  Fe  Fe313     1.0  0.07005  0.73215  0.54145  1.0000
  S   S614      1.0  0.04481  0.69307  0.38966  1.0000
  H   H1714     1.0  0.10156  0.72979  0.40010  1.0000
  C   C1717     1.0  0.47830  0.89140  0.52656  1.0000
  C   C1718     1.0  0.47250  0.88077  0.52009  1.0000
  C   C1719     1.0  0.21989  0.97886  0.52452  1.0000
  H   H1715     1.0  0.46970  0.90282  0.52983  1.0000
  H   H1716     1.0  0.45947  0.88400  0.51845  1.0000
  C   C1720     1.0  0.11360  0.77555  0.38620  1.0000
  C   C1721     1.0  0.43868  0.89394  0.56568  1.0000
  C   C1722     1.0  0.11878  0.93412  0.57168  1.0000
  C   C1723     1.0  0.04054  0.82088  0.53247  1.0000
  H   H1717     1.0  0.37177  0.76425  0.42733  1.0000
  H   H1718     1.0  0.45006  0.96812  0.57505  1.0000
  C   C1724     1.0  0.11179  0.75874  0.39183  1.0000
  H   H1719     1.0  0.14894  0.96999  0.43656  1.0000
  H   H1720     1.0  0.21296  0.96956  0.42085  1.0000
  S   S615      1.0  0.49265  0.86871  0.41301  1.0000
  H   H1721     1.0  0.14262  0.61486  0.43226  1.0000
  H   H1722     1.0  0.47923  0.85407  0.44836  1.0000
  S   S616      1.0  0.21091  0.94859  0.52816  1.0000
  H   H1723     1.0  0.36665  0.72016  0.43486  1.0000
  H   H1724     1.0  0.16367  0.88901  0.44428  1.0000
  N   N144      1.0  0.00639  0.66884  0.42675  1.0000
  H   H1725     1.0  0.17691  0.49034  0.52381  1.0000
  C   C1725     1.0  0.26452  0.60699  0.54520  1.0000
  C   C1726     1.0  0.27418  0.59831  0.53250  1.0000
  C   C1727     1.0  0.26593  0.59243  0.52343  1.0000
  C   C1728     1.0  0.24800  0.59505  0.52711  1.0000
  C   C1729     1.0  0.23836  0.60373  0.53979  1.0000
  C   C1730     1.0  0.24661  0.60977  0.54873  1.0000
  H   H1726     1.0  0.28799  0.59602  0.52971  1.0000
  H   H1727     1.0  0.27345  0.58563  0.51369  1.0000
  H   H1728     1.0  0.22455  0.60573  0.54278  1.0000
  C   C1731     1.0  0.14810  0.98284  0.47002  1.0000
  C   C1732     1.0  0.33347  0.53874  0.55107  1.0000
  C   C1733     1.0  0.32225  0.54729  0.54028  1.0000
  C   C1734     1.0  0.31394  0.53819  0.53452  1.0000
  C   C1735     1.0  0.31656  0.52052  0.53976  1.0000
  C   C1736     1.0  0.32776  0.51195  0.55058  1.0000
  C   C1737     1.0  0.33630  0.52104  0.55612  1.0000
  H   H1729     1.0  0.31998  0.56090  0.53631  1.0000
  H   H1730     1.0  0.30522  0.54489  0.52620  1.0000
  H   H1731     1.0  0.32980  0.49833  0.55473  1.0000
  C   C1738     1.0  0.49788  0.82413  0.55716  1.0000
  C   C1739     1.0  0.39191  0.78019  0.50904  1.0000
  C   C1740     1.0  0.38905  0.79732  0.50949  1.0000
  C   C1741     1.0  0.40056  0.80311  0.51494  1.0000
  C   C1742     1.0  0.41489  0.79173  0.52007  1.0000
  C   C1743     1.0  0.41791  0.77469  0.51928  1.0000
  C   C1744     1.0  0.40647  0.76893  0.51377  1.0000
  H   H1732     1.0  0.37778  0.80609  0.50589  1.0000
  H   H1733     1.0  0.39810  0.81626  0.51561  1.0000
  H   H1734     1.0  0.42897  0.76584  0.52326  1.0000
  H   H1735     1.0  0.40875  0.75570  0.51356  1.0000
  C   C1745     1.0  0.34831  0.68118  0.52259  1.0000
  C   C1746     1.0  0.35368  0.67892  0.50594  1.0000
  C   C1747     1.0  0.35492  0.66312  0.50254  1.0000
  C   C1748     1.0  0.35137  0.64943  0.51582  1.0000
  C   C1749     1.0  0.34696  0.65152  0.53249  1.0000
  C   C1750     1.0  0.34498  0.66746  0.53585  1.0000
  H   H1736     1.0  0.35611  0.68954  0.49565  1.0000
  H   H1737     1.0  0.35815  0.66165  0.48961  1.0000
  H   H1738     1.0  0.34509  0.64088  0.54285  1.0000
  H   H1739     1.0  0.34098  0.66909  0.54876  1.0000
  C   C1751     1.0  0.42762  0.68436  0.56511  1.0000
  C   C1752     1.0  0.41564  0.69307  0.55511  1.0000
  C   C1753     1.0  0.39871  0.69909  0.56290  1.0000
  H   H1740     1.0  0.44077  0.67976  0.55917  1.0000
  H   H1741     1.0  0.38928  0.70540  0.55543  1.0000
  C   C1754     1.0  0.47146  0.81112  0.39894  1.0000
  C   C1755     1.0  0.12492  0.62261  0.40076  1.0000
  C   C1756     1.0  0.09347  0.64131  0.55423  1.0000
  C   C1757     1.0  0.22683  0.55515  0.39618  1.0000
  H   H1742     1.0  0.36086  0.89812  0.57771  1.0000
  C   C1758     1.0  0.37819  0.93185  0.55728  1.0000
  C   C1759     1.0  0.39965  0.74171  0.38753  1.0000
  C   C1760     1.0  0.07820  0.78196  0.56003  1.0000
  N   N145      1.0  0.19466  0.49996  0.53060  1.0000
  C   C1761     1.0  0.38407  0.68320  0.43618  1.0000
  C   C1762     1.0  0.37804  0.68531  0.45290  1.0000
  C   C1763     1.0  0.38432  0.69608  0.45873  1.0000
  C   C1764     1.0  0.39673  0.70468  0.44785  1.0000
  C   C1765     1.0  0.40250  0.70284  0.43106  1.0000
  C   C1766     1.0  0.39614  0.69217  0.42522  1.0000
  H   H1743     1.0  0.36867  0.67842  0.46141  1.0000
  H   H1744     1.0  0.37974  0.69755  0.47167  1.0000
  H   H1745     1.0  0.41206  0.70953  0.42258  1.0000
  H   H1746     1.0  0.40094  0.69059  0.41236  1.0000
  S   S617      1.0  0.12668  0.95828  0.39684  1.0000
  C   C1767     1.0  0.01752  0.69654  0.53706  1.0000
  C   C1768     1.0  0.37682  0.76213  0.55062  1.0000
  C   C1769     1.0  0.17086  0.96622  0.40146  1.0000
  N   N146      1.0  0.08556  0.94216  0.56660  1.0000
  C   C1770     1.0  0.08204  0.78763  0.52509  1.0000
  S   S618      1.0  0.38126  0.65117  0.38911  1.0000
  H   H1747     1.0  0.35025  0.60560  0.40507  1.0000
  H   H1748     1.0  0.04478  0.79432  0.54413  1.0000
  H   H1749     1.0  0.42299  0.64893  0.57300  1.0000
  C   C1771     1.0  0.41877  0.76855  0.56607  1.0000
  H   H1750     1.0  0.47559  0.88022  0.56547  1.0000
  H   H1751     1.0  0.16776  0.50843  0.53355  1.0000
  C   C1772     1.0  0.42259  0.68132  0.58280  1.0000
  H   H1752     1.0  0.46567  0.85895  0.55397  1.0000
  H   H1753     1.0  0.42612  0.87543  0.46556  1.0000
  S   S619      1.0  0.11538  0.81979  0.38734  1.0000
  C   C1773     1.0  0.04139  0.80390  0.53327  1.0000
  C   C1774     1.0  0.34763  0.97821  0.54912  1.0000
  C   C1775     1.0  0.16694  0.98358  0.40109  1.0000
  H   H1754     1.0  0.49650  0.85874  0.47326  1.0000
  C   C1776     1.0  0.35127  0.73395  0.39906  1.0000
  C   C1777     1.0  0.13154  0.89353  0.52644  1.0000
  C   C1778     1.0  0.14308  0.89921  0.53188  1.0000
  C   C1779     1.0  0.14457  0.91623  0.52647  1.0000
  C   C1780     1.0  0.13466  0.92754  0.51542  1.0000
  C   C1781     1.0  0.12328  0.92181  0.50987  1.0000
  C   C1782     1.0  0.12169  0.90489  0.51539  1.0000
  H   H1755     1.0  0.15091  0.89045  0.54026  1.0000
  H   H1756     1.0  0.15357  0.92049  0.53064  1.0000
  H   H1757     1.0  0.11561  0.93051  0.50130  1.0000
  H   H1758     1.0  0.11303  0.90067  0.51083  1.0000
  S   S620      1.0  0.07372  0.75809  0.52605  1.0000
  C   C1783     1.0  0.08193  0.79730  0.54977  1.0000
  H   H1759     1.0  0.00782  0.66669  0.57246  1.0000
  C   C1784     1.0  0.38845  0.66665  0.55747  1.0000
  H   H1760     1.0  0.33358  0.94966  0.58413  1.0000
  H   H1761     1.0  0.15588  0.89251  0.47415  1.0000
  H   H1762     1.0  0.01543  0.84877  0.49418  1.0000
  C   C1785     1.0  0.15378  0.61656  0.45184  1.0000
  S   S621      1.0  0.35921  0.69007  0.39019  1.0000
  C   C1786     1.0  0.17893  0.50256  0.52468  1.0000
  C   C1787     1.0  0.36964  0.93801  0.54391  1.0000
  C   C1788     1.0  0.06661  0.75129  0.40259  1.0000
  H   H1763     1.0  0.46263  0.86861  0.58343  1.0000
  H   H1764     1.0  0.06613  0.93722  0.55794  1.0000
  H   H1765     1.0  0.06428  0.72689  0.41873  1.0000
  C   C1789     1.0  0.38649  0.60928  0.58309  1.0000
  C   C1790     1.0  0.06800  0.82704  0.46659  1.0000
  C   C1791     1.0  0.07103  0.84171  0.45463  1.0000
  C   C1792     1.0  0.07684  0.85383  0.45891  1.0000
  C   C1793     1.0  0.07961  0.85133  0.47516  1.0000
  C   C1794     1.0  0.07694  0.83650  0.48704  1.0000
  C   C1795     1.0  0.07125  0.82432  0.48270  1.0000
  H   H1766     1.0  0.06846  0.84397  0.44221  1.0000
  H   H1767     1.0  0.07890  0.86526  0.44966  1.0000
  H   H1768     1.0  0.07924  0.83442  0.49955  1.0000
  H   H1769     1.0  0.06922  0.81287  0.49191  1.0000
  H   H1770     1.0  0.20725  0.57752  0.39108  1.0000
  C   C1796     1.0  0.11070  0.83653  0.41250  1.0000
  C   C1797     1.0  0.11260  0.84940  0.41905  1.0000
  C   C1798     1.0  0.12200  0.86140  0.40882  1.0000
  S   S622      1.0  0.41101  0.85866  0.57276  1.0000
  H   H1771     1.0  0.14154  0.58177  0.50320  1.0000
  H   H1772     1.0  0.10345  0.82730  0.42053  1.0000
  H   H1773     1.0  0.10669  0.85001  0.43204  1.0000
  H   H1774     1.0  0.18334  0.95867  0.40315  1.0000
  C   C1799     1.0  0.47665  0.85014  0.55827  1.0000
  H   H1775     1.0  0.46327  0.93924  0.56988  1.0000
  H   H1776     1.0  0.28227  0.63279  0.52172  1.0000
  N   N147      1.0  0.13455  0.50869  0.46523  1.0000
  C   C1800     1.0  0.05348  0.87632  0.58348  1.0000
  C   C1801     1.0  0.12679  0.52246  0.45480  1.0000
  S   S623      1.0  0.30908  0.94801  0.39340  1.0000
  C   C1802     1.0  0.12757  0.52203  0.43810  1.0000
  Fe  Fe314     1.0  0.33079  0.60617  0.57227  1.0000
  H   H1777     1.0  0.24921  0.53525  0.39922  1.0000
  C   C1803     1.0  0.38393  0.91145  0.58320  1.0000
  H   H1778     1.0  0.12006  0.53392  0.45931  1.0000
  C   C1804     1.0  0.45123  0.87334  0.38660  1.0000
  H   H1779     1.0  0.12160  0.53302  0.42978  1.0000
  H   H1780     1.0  0.30522  0.63604  0.49572  1.0000
  H   H1781     1.0  0.39671  0.91475  0.57959  1.0000
  H   H1782     1.0  0.12225  0.72436  0.38633  1.0000
  C   C1805     1.0  0.45899  0.95954  0.58250  1.0000
  C   C1806     1.0  0.44414  0.88295  0.47469  1.0000
  C   C1807     1.0  0.02871  0.84150  0.49066  1.0000
  N   N148      1.0  0.39580  0.64205  0.46983  1.0000
  C   C1808     1.0  0.40675  0.64952  0.45632  1.0000
  C   C1809     1.0  0.39432  0.64432  0.48569  1.0000
  C   C1810     1.0  0.41582  0.66038  0.45835  1.0000
  C   C1811     1.0  0.40301  0.65526  0.48816  1.0000
  C   C1812     1.0  0.41372  0.66344  0.47435  1.0000
  C   C1813     1.0  0.38601  0.63116  0.46734  1.0000
  H   H1783     1.0  0.40795  0.64770  0.44373  1.0000
  H   H1784     1.0  0.38606  0.63796  0.49649  1.0000
  H   H1785     1.0  0.42384  0.66692  0.44747  1.0000
  H   H1786     1.0  0.40122  0.65758  0.50065  1.0000
  H   H1787     1.0  0.42016  0.67236  0.47596  1.0000
  H   H1788     1.0  0.37407  0.63064  0.47729  1.0000
  H   H1789     1.0  0.38197  0.63618  0.45503  1.0000
  H   H1790     1.0  0.39388  0.61813  0.46764  1.0000
  H   H1791     1.0  0.34500  0.51435  0.56444  1.0000
  C   C1814     1.0  0.36341  0.90934  0.56824  1.0000
  H   H1792     1.0  0.12136  0.85909  0.48636  1.0000
  C   C1815     1.0  0.36114  0.98093  0.55431  1.0000
  H   H1793     1.0  0.00293  0.66662  0.38943  1.0000
  H   H1794     1.0  0.16179  0.94510  0.40000  1.0000
  H   H1795     1.0  0.27213  0.98636  0.45285  1.0000
  S   S624      1.0  0.04377  0.72669  0.55259  1.0000
  H   H1796     1.0  0.37529  0.97444  0.57405  1.0000
  C   C1816     1.0  0.11508  0.82393  0.57295  1.0000
  H   H1797     1.0  0.45055  0.81540  0.38692  1.0000
  Fe  Fe315     1.0  0.13832  0.89626  0.39850  1.0000
  C   C1817     1.0  0.04804  0.90681  0.57896  1.0000
  C   C1818     1.0  0.44298  0.84924  0.40791  1.0000
  H   H1798     1.0  0.26779  0.95761  0.52341  1.0000
  S   S625      1.0  0.08367  0.81292  0.55914  1.0000
  C   C1819     1.0  0.38951  0.74819  0.55535  1.0000
  H   H1799     1.0  0.15049  0.97047  0.47830  1.0000
  C   C1820     1.0  0.11956  0.61462  0.56371  1.0000
  H   H1800     1.0  0.38706  0.93871  0.55832  1.0000
  H   H1801     1.0  0.20374  0.52014  0.51168  1.0000
  C   C1821     1.0  0.13081  0.86546  0.47720  1.0000
  H   H1802     1.0  0.11183  0.75259  0.40495  1.0000
  N   N149      1.0  0.47388  0.87151  0.46430  1.0000
  H   H1803     1.0  0.02836  0.65748  0.41061  1.0000
  S   S626      1.0  0.06263  0.68633  0.55947  1.0000
  C   C1822     1.0  0.15005  0.88442  0.47037  1.0000
  N   N150      1.0  0.14560  0.59902  0.47918  1.0000
  S   S627      1.0  0.27437  0.61428  0.55708  1.0000
  S   S628      1.0  0.14707  0.61378  0.39849  1.0000
  C   C1823     1.0  0.36973  0.61046  0.58170  1.0000
  H   H1804     1.0  0.15043  0.87025  0.43615  1.0000
  H   H1805     1.0  0.99907  0.71401  0.52341  1.0000
  C   C1824     1.0  0.13637  0.50744  0.43209  1.0000
  H   H1806     1.0  0.36657  0.76056  0.54587  1.0000
  C   C1825     1.0  0.37116  0.67417  0.56232  1.0000
  S   S629      1.0  0.03534  0.84466  0.38547  1.0000
  C   C1826     1.0  0.06535  0.73435  0.40594  1.0000
  H   H1807     1.0  0.13849  0.60377  0.50387  1.0000
  C   C1827     1.0  0.42719  0.86256  0.38576  1.0000
  H   H1808     1.0  0.06556  0.95945  0.55562  1.0000
  H   H1809     1.0  0.39469  0.66918  0.54420  1.0000
  N   N151      1.0  0.48360  0.85345  0.56967  1.0000
  S   S630      1.0  0.16610  0.60218  0.57703  1.0000
  C   C1828     1.0  0.07614  0.76956  0.55286  1.0000
  C   C1829     1.0  0.22534  0.96134  0.52591  1.0000
  H   H1810     1.0  0.23738  0.51239  0.39756  1.0000
  H   H1811     1.0  0.06578  0.71359  0.39533  1.0000
  N   N152      1.0  0.29784  0.66293  0.52872  1.0000
  C   C1830     1.0  0.31030  0.66499  0.51432  1.0000
  C   C1831     1.0  0.28781  0.65155  0.53140  1.0000
  C   C1832     1.0  0.31308  0.65545  0.50219  1.0000
  C   C1833     1.0  0.29013  0.64193  0.51945  1.0000
  C   C1834     1.0  0.30296  0.64379  0.50484  1.0000
  C   C1835     1.0  0.29617  0.67201  0.54188  1.0000
  H   H1812     1.0  0.31844  0.67378  0.51234  1.0000
  H   H1813     1.0  0.27822  0.64951  0.54303  1.0000
  H   H1814     1.0  0.30312  0.58142  0.42622  1.0000
  C   C1836     1.0  0.48373  0.83549  0.55177  1.0000
  H   H1815     1.0  0.30505  0.66460  0.55036  1.0000
  H   H1816     1.0  0.29943  0.68465  0.53627  1.0000
  H   H1817     1.0  0.28288  0.67404  0.54957  1.0000
  C   C1837     1.0  0.36018  0.75604  0.40559  1.0000
  C   C1838     1.0  0.08868  0.93423  0.58231  1.0000
  H   H1818     1.0  0.16279  0.64886  0.56869  1.0000
  C   C1839     1.0  0.12470  0.83643  0.56709  1.0000
  C   C1840     1.0  0.20619  0.51005  0.52250  1.0000
  H   H1819     1.0  0.27562  0.62688  0.38897  1.0000
  H   H1820     1.0  0.35082  0.93433  0.53277  1.0000
  C   C1841     1.0  0.33642  0.87617  0.40262  1.0000
  C   C1842     1.0  0.49201  0.86998  0.46374  1.0000
  H   H1821     1.0  0.13718  0.50703  0.41911  1.0000
  C   C1843     1.0  0.29175  0.58399  0.42115  1.0000
  H   H1822     1.0  0.21875  0.98010  0.55966  1.0000
  S   S631      1.0  0.30205  0.56111  0.38807  1.0000
  N   N153      1.0  0.06742  0.76213  0.47859  1.0000
  C   C1844     1.0  0.05982  0.76757  0.46498  1.0000
  C   C1845     1.0  0.06491  0.74748  0.49002  1.0000
  C   C1846     1.0  0.04984  0.75797  0.46228  1.0000
  C   C1847     1.0  0.05501  0.73758  0.48772  1.0000
  C   C1848     1.0  0.04750  0.74284  0.47371  1.0000
  H   H1823     1.0  0.21359  0.96440  0.40139  1.0000
  H   H1824     1.0  0.07061  0.74336  0.50099  1.0000
  H   H1825     1.0  0.04411  0.76219  0.45129  1.0000
  H   H1826     1.0  0.05317  0.72590  0.49677  1.0000
  C   C1849     1.0  0.14232  0.96806  0.39804  1.0000
  N   N154      1.0  0.09375  0.91376  0.42726  1.0000
  C   C1850     1.0  0.09438  0.90240  0.44233  1.0000
  C   C1851     1.0  0.10104  0.92751  0.42330  1.0000
  C   C1852     1.0  0.10206  0.90487  0.45407  1.0000
  C   C1853     1.0  0.10895  0.93029  0.43469  1.0000
  C   C1854     1.0  0.10938  0.91892  0.45019  1.0000
  C   C1855     1.0  0.08570  0.91079  0.41516  1.0000
  H   H1827     1.0  0.08901  0.89126  0.44532  1.0000
  H   H1828     1.0  0.10081  0.93646  0.41127  1.0000
  H   H1829     1.0  0.10223  0.89595  0.46609  1.0000
  H   H1830     1.0  0.11470  0.94123  0.43141  1.0000
  H   H1831     1.0  0.11535  0.92102  0.45919  1.0000
  H   H1832     1.0  0.09447  0.90079  0.40866  1.0000
  H   H1833     1.0  0.07353  0.90660  0.42173  1.0000
  H   H1834     1.0  0.08269  0.92241  0.40538  1.0000
  H   H1835     1.0  0.34967  0.67700  0.58333  1.0000
  H   H1836     1.0  0.41646  0.63503  0.56419  1.0000
  C   C1856     1.0  0.34130  0.95839  0.57583  1.0000
  C   C1857     1.0  0.08729  0.97748  0.57874  1.0000
  H   H1837     1.0  0.04465  0.91919  0.57106  1.0000
  H   H1838     1.0  0.44716  0.90050  0.55540  1.0000
  C   C1858     1.0  0.46149  0.88135  0.47413  1.0000
  H   H1839     1.0  0.41724  0.78171  0.56746  1.0000
  N   N155      1.0  0.15062  0.98445  0.45295  1.0000
  C   C1859     1.0  0.35771  0.92964  0.54291  1.0000
  H   H1840     1.0  0.23906  0.61645  0.55856  1.0000
  C   C1860     1.0  0.06609  0.72682  0.39272  1.0000
  H   H1841     1.0  0.08965  0.64597  0.57892  1.0000
  N   N156      1.0  0.30988  0.92568  0.45040  1.0000
  C   C1861     1.0  0.31233  0.93590  0.45931  1.0000
  C   C1862     1.0  0.32208  0.91154  0.44735  1.0000
  C   C1863     1.0  0.32723  0.93200  0.46554  1.0000
  C   C1864     1.0  0.33706  0.90717  0.45355  1.0000
  C   C1865     1.0  0.33962  0.91750  0.46269  1.0000
  C   C1866     1.0  0.29450  0.93049  0.44337  1.0000
  H   H1842     1.0  0.30277  0.94719  0.46157  1.0000
  H   H1843     1.0  0.32027  0.90352  0.44013  1.0000
  H   H1844     1.0  0.32919  0.94026  0.47244  1.0000
  H   H1845     1.0  0.34665  0.89589  0.45122  1.0000
  H   H1846     1.0  0.35121  0.91430  0.46750  1.0000
  H   H1847     1.0  0.29617  0.94044  0.43165  1.0000
  H   H1848     1.0  0.29193  0.91952  0.44021  1.0000
  H   H1849     1.0  0.28304  0.93547  0.45253  1.0000
  H   H1850     1.0  0.13211  0.49742  0.49150  1.0000
  H   H1851     1.0  0.47840  0.83312  0.54243  1.0000
  S   S632      1.0  0.03525  0.70411  0.52336  1.0000
  H   H1852     1.0  0.12588  0.94477  0.54507  1.0000
  C   C1867     1.0  0.46226  0.81912  0.38621  1.0000
  C   C1868     1.0  0.10176  0.64559  0.39214  1.0000
  H   H1853     1.0  0.11017  0.68839  0.58223  1.0000
  H   H1854     1.0  0.32732  0.96467  0.55612  1.0000
  H   H1855     1.0  0.02962  0.83599  0.47976  1.0000
  C   C1869     1.0  0.32015  0.97431  0.43172  1.0000
  C   C1870     1.0  0.35494  0.96094  0.58095  1.0000
  H   H1856     1.0  0.36754  0.60869  0.57032  1.0000
  C   C1871     1.0  0.35315  0.75066  0.39515  1.0000
  H   H1857     1.0  0.37192  0.94943  0.53463  1.0000
  C   C1872     1.0  0.11553  0.94170  0.55562  1.0000
  C   C1873     1.0  0.36307  0.67124  0.57939  1.0000
  C   C1874     1.0  0.36488  0.97223  0.57014  1.0000
  H   H1858     1.0  0.43042  0.76603  0.55602  1.0000
  H   H1859     1.0  0.11812  0.81342  0.56671  1.0000
  H   H1860     1.0  0.07666  0.77975  0.57358  1.0000
  C   C1875     1.0  0.13539  0.59296  0.47299  1.0000
  H   H1861     1.0  0.36246  0.76879  0.40193  1.0000
  Fe  Fe316     1.0  0.13906  0.93340  0.38944  1.0000
  H   H1862     1.0  0.12642  0.59336  0.45107  1.0000
  C   C1876     1.0  0.24450  0.54837  0.39375  1.0000
  H   H1863     1.0  0.03963  0.78593  0.52019  1.0000
  H   H1864     1.0  0.35734  0.85592  0.39545  1.0000
  C   C1877     1.0  0.28059  0.57288  0.42699  1.0000
  C   C1878     1.0  0.13427  0.50944  0.48250  1.0000
  C   C1879     1.0  0.03840  0.79922  0.51984  1.0000
  H   H1865     1.0  0.36948  0.74532  0.44335  1.0000
  H   H1866     1.0  0.08355  0.78985  0.51155  1.0000
  H   H1867     1.0  0.08373  0.77992  0.46935  1.0000
  C   C1880     1.0  0.24264  0.95377  0.52550  1.0000
  S   S633      1.0  0.11134  0.67539  0.55378  1.0000
  C   C1881     1.0  0.08395  0.80007  0.53227  1.0000
  H   H1868     1.0  0.13825  0.64651  0.55654  1.0000
  H   H1869     1.0  0.46693  0.80132  0.40926  1.0000
  C   C1882     1.0  0.15343  0.65150  0.58002  1.0000
  S   S634      1.0  0.31053  0.90253  0.41093  1.0000
  H   H1870     1.0  0.25277  0.59260  0.40121  1.0000
  H   H1871     1.0  0.23837  0.98399  0.41888  1.0000
  N   N157      1.0  0.40394  0.76639  0.56129  1.0000
  H   H1872     1.0  0.35481  0.70986  0.41666  1.0000
  C   C1883     1.0  0.30755  0.97407  0.42366  1.0000
  C   C1884     1.0  0.37773  0.77821  0.55143  1.0000
  H   H1873     1.0  0.40516  0.73613  0.39856  1.0000
  H   H1874     1.0  0.03578  0.84625  0.51771  1.0000
  N   N158      1.0  0.03329  0.82839  0.50523  1.0000
  C   C1885     1.0  0.12948  0.86047  0.39196  1.0000
  H   H1875     1.0  0.12719  0.86027  0.56973  1.0000
  C   C1886     1.0  0.35600  0.72296  0.41355  1.0000
  H   H1876     1.0  0.09642  0.95152  0.54069  1.0000
  C   C1887     1.0  0.14346  0.61040  0.44542  1.0000
  C   C1888     1.0  0.11639  0.61783  0.54751  1.0000
  Fe  Fe317     1.0  0.29686  0.92649  0.39633  1.0000
  C   C1889     1.0  0.26362  0.59039  0.40693  1.0000
  H   H1877     1.0  0.08698  0.81180  0.52427  1.0000
  C   C1890     1.0  0.43199  0.88151  0.56300  1.0000
  H   H1878     1.0  0.03267  0.67734  0.55300  1.0000
  C   C1891     1.0  0.34577  0.86458  0.39243  1.0000
  H   H1879     1.0  0.29747  0.60657  0.40356  1.0000
  S   S635      1.0  0.41737  0.83448  0.40807  1.0000
  C   C1892     1.0  0.28129  0.53291  0.56597  1.0000
  C   C1893     1.0  0.06806  0.94665  0.56388  1.0000
  C   C1894     1.0  0.02455  0.66048  0.42335  1.0000
  H   H1880     1.0  0.27605  0.57768  0.57296  1.0000
  C   C1895     1.0  0.48370  0.86623  0.51545  1.0000
  H   H1881     1.0  0.30101  0.52500  0.58042  1.0000
  S   S636      1.0  0.07896  0.71215  0.52596  1.0000
  C   C1896     1.0  0.33773  0.96690  0.55993  1.0000
  S   S637      1.0  0.31430  0.58795  0.57519  1.0000
  N   N159      1.0  0.40339  0.79033  0.45428  1.0000
  C   C1897     1.0  0.40676  0.77330  0.46095  1.0000
  C   C1898     1.0  0.40409  0.79623  0.43732  1.0000
  C   C1899     1.0  0.41128  0.76168  0.45049  1.0000
  C   C1900     1.0  0.40867  0.78496  0.42650  1.0000
  C   C1901     1.0  0.41223  0.76758  0.43315  1.0000
  C   C1902     1.0  0.39845  0.80219  0.46557  1.0000
  H   H1882     1.0  0.40595  0.76864  0.47444  1.0000
  H   H1883     1.0  0.40112  0.80971  0.43205  1.0000
  H   H1884     1.0  0.41402  0.74818  0.45579  1.0000
  H   H1885     1.0  0.40941  0.78969  0.41304  1.0000
  H   H1886     1.0  0.41567  0.75871  0.42488  1.0000
  H   H1887     1.0  0.39895  0.81537  0.45847  1.0000
  H   H1888     1.0  0.38522  0.80196  0.47311  1.0000
  H   H1889     1.0  0.40729  0.79860  0.47439  1.0000
  C   C1903     1.0  0.28982  0.55169  0.57774  1.0000
  C   C1904     1.0  0.26760  0.56198  0.56177  1.0000
  H   H1890     1.0  0.06149  0.77934  0.45608  1.0000
  H   H1891     1.0  0.03768  0.85029  0.48620  1.0000
  Fe  Fe318     1.0  0.05316  0.70597  0.53820  1.0000
  Fe  Fe319     1.0  0.08752  0.69473  0.54895  1.0000
  S   S638      1.0  0.04511  0.80558  0.42417  1.0000
  C   C1905     1.0  0.12001  0.85029  0.57480  1.0000
  C   C1906     1.0  0.41546  0.64850  0.56413  1.0000
  C   C1907     1.0  0.39148  0.78013  0.55679  1.0000
  C   C1908     1.0  0.42982  0.84995  0.40013  1.0000
  N   N160      1.0  0.13549  0.86323  0.46095  1.0000
  H   H1892     1.0  0.13166  0.93153  0.57374  1.0000
  S   S639      1.0  0.04638  0.89425  0.55283  1.0000
  N   N161      1.0  0.27003  0.54623  0.55873  1.0000
  C   C1909     1.0  0.35446  0.91528  0.55519  1.0000
  H   H1893     1.0  0.25806  0.57233  0.55677  1.0000
  H   H1894     1.0  0.32339  0.65670  0.49108  1.0000
  C   C1910     1.0  0.45382  0.86076  0.40101  1.0000
  H   H1895     1.0  0.25838  0.61963  0.38608  1.0000
  H   H1896     1.0  0.34662  0.72943  0.39059  1.0000
  H   H1897     1.0  0.34502  0.90886  0.55460  1.0000
  C   C1911     1.0  0.34367  0.61418  0.39554  1.0000
  H   H1898     1.0  0.39249  0.79278  0.55665  1.0000
  C   C1912     1.0  0.10329  0.63130  0.54276  1.0000
  H   H1899     1.0  0.16099  0.62584  0.44369  1.0000
  H   H1900     1.0  0.41308  0.73967  0.56396  1.0000
  H   H1901     1.0  0.13568  0.84727  0.44492  1.0000
  C   C1913     1.0  0.09878  0.94557  0.55325  1.0000
  N   N162      1.0  0.39747  0.65668  0.56934  1.0000
  C   C1914     1.0  0.15445  0.88242  0.45368  1.0000
  N   N163      1.0  0.10972  0.62440  0.57493  1.0000
  C   C1915     1.0  0.32156  0.88755  0.39863  1.0000
  H   H1902     1.0  0.44505  0.83952  0.41904  1.0000
  S   S640      1.0  0.38280  0.81858  0.39605  1.0000
  H   H1903     1.0  0.08787  0.76447  0.48805  1.0000
  H   H1904     1.0  0.13462  0.87734  0.49526  1.0000
  S   S641      1.0  0.17296  0.97108  0.50517  1.0000
  H   H1905     1.0  0.04336  0.82452  0.54268  1.0000
  Fe  Fe320     1.0  0.18336  0.96150  0.52872  1.0000
  H   H1906     1.0  0.17936  0.51102  0.51194  1.0000
  H   H1907     1.0  0.24692  0.94022  0.52663  1.0000
  H   H1908     1.0  0.06915  0.78139  0.48944  1.0000
  H   H1909     1.0  0.15880  0.56975  0.57854  1.0000
  C   C1916     1.0  0.40308  0.75055  0.56065  1.0000
  Fe  Fe321     1.0  0.29127  0.97938  0.51467  1.0000
  S   S642      1.0  0.40127  0.77215  0.39221  1.0000
  H   H1910     1.0  0.05840  0.94716  0.57597  1.0000
  C   C1917     1.0  0.45223  0.86390  0.45564  1.0000
  C   C1918     1.0  0.24905  0.98110  0.52222  1.0000
  H   H1911     1.0  0.25655  0.55527  0.53861  1.0000
  C   C1919     1.0  0.31548  0.97847  0.44760  1.0000
  S   S643      1.0  0.08095  0.71525  0.56344  1.0000
  N   N164      1.0  0.36504  0.74508  0.41963  1.0000
  C   C1920     1.0  0.27198  0.61578  0.38726  1.0000
  C   C1921     1.0  0.12741  0.85238  0.45602  1.0000
  H   H1912     1.0  0.26792  0.53373  0.54076  1.0000
  C   C1922     1.0  0.36282  0.72881  0.42377  1.0000
  H   H1913     1.0  0.43549  0.87847  0.55073  1.0000
  C   C1923     1.0  0.42069  0.87326  0.57614  1.0000
  H   H1914     1.0  0.12390  0.51980  0.48696  1.0000
  C   C1924     1.0  0.29147  0.53545  0.57545  1.0000
  C   C1925     1.0  0.11933  0.63836  0.39062  1.0000
  C   C1926     1.0  0.01990  0.68326  0.55098  1.0000
  H   H1915     1.0  0.24831  0.53944  0.55601  1.0000
  N   N165      1.0  0.22702  0.98358  0.39918  1.0000
  C   C1927     1.0  0.10479  0.97773  0.57365  1.0000
  C   C1928     1.0  0.11839  0.83547  0.39572  1.0000
  H   H1916     1.0  0.10992  0.98378  0.56089  1.0000
  H   H1917     1.0  0.03987  0.73522  0.47175  1.0000
  H   H1918     1.0  0.05400  0.86510  0.57927  1.0000
  H   H1919     1.0  0.08371  0.65221  0.55044  1.0000
  N   N166      1.0  0.37519  0.91754  0.56906  1.0000
  C   C1929     1.0  0.49737  0.84226  0.57519  1.0000
  H   H1920     1.0  0.33356  0.97100  0.42577  1.0000
  H   H1921     1.0  0.03286  0.66864  0.42383  1.0000
  Fe  Fe322     1.0  0.05561  0.70754  0.57296  1.0000
  H   H1922     1.0  0.36413  0.68235  0.55292  1.0000
  H   H1923     1.0  0.36823  0.78920  0.54727  1.0000
  H   H1924     1.0  0.10117  0.63437  0.53002  1.0000
  H   H1925     1.0  0.23033  0.51561  0.52164  1.0000
  H   H1926     1.0  0.48642  0.91467  0.57301  1.0000
  C   C1930     1.0  0.19425  0.97448  0.57332  1.0000
  C   C1931     1.0  0.00581  0.67730  0.56204  1.0000
  C   C1932     1.0  0.46646  0.94321  0.57968  1.0000
  C   C1933     1.0  0.14109  0.66666  0.57946  1.0000
  H   H1927     1.0  0.23243  0.95732  0.40995  1.0000
  C   C1934     1.0  0.09695  0.63773  0.57033  1.0000
  H   H1928     1.0  0.39906  0.55443  0.57918  1.0000
  C   C1935     1.0  0.48644  0.81594  0.39829  1.0000
  H   H1929     1.0  0.25666  0.49681  0.40095  1.0000
  C   C1936     1.0  0.47592  0.86897  0.57613  1.0000
  S   S644      1.0  0.13745  0.97017  0.57910  1.0000
  H   H1930     1.0  0.11522  0.78232  0.39476  1.0000
  C   C1937     1.0  0.14426  0.49348  0.44279  1.0000
  C   C1938     1.0  0.00094  0.70380  0.53423  1.0000
  Fe  Fe323     1.0  0.48910  0.88170  0.38681  1.0000
  C   C1939     1.0  0.17683  0.98130  0.57860  1.0000
  H   H1931     1.0  0.49417  0.88143  0.46633  1.0000
  C   C1940     1.0  0.20522  0.98526  0.56389  1.0000
  C   C1941     1.0  0.29815  0.98288  0.45520  1.0000
  C   C1942     1.0  0.39372  0.69626  0.58058  1.0000
  H   H1932     1.0  0.23459  0.89615  0.38622  1.0000
  C   C1943     1.0  0.22087  0.57219  0.38922  1.0000
  H   H1933     1.0  0.37328  0.55149  0.57168  1.0000
  C   C1944     1.0  0.49197  0.82869  0.38505  1.0000
  H   H1934     1.0  0.07904  0.98321  0.56982  1.0000
  C   C1945     1.0  0.33382  0.60824  0.38824  1.0000
  C   C1946     1.0  0.00166  0.68609  0.42225  1.0000
  H   H1935     1.0  0.19917  0.96091  0.57627  1.0000
  C   C1947     1.0  0.06807  0.76085  0.38604  1.0000
  C   C1948     1.0  0.37201  0.55728  0.58217  1.0000
  C   C1949     1.0  0.12788  0.84740  0.38548  1.0000
  S   S645      1.0  0.44224  0.91403  0.58452  1.0000
  H   H1936     1.0  0.29806  0.55394  0.58454  1.0000
  Fe  Fe324     1.0  0.05940  0.66742  0.38498  1.0000
  C   C1950     1.0  0.23172  0.98870  0.52282  1.0000
  H   H1937     1.0  0.21873  0.98821  0.48753  1.0000
  H   H1938     1.0  0.48321  0.87068  0.58457  1.0000
  Fe  Fe325     1.0  0.42087  0.96658  0.75479  1.0000
  S   S646      1.0  0.41614  0.94823  0.74251  1.0000
  C   C1951     1.0  0.07989  0.52996  0.59604  1.0000
  H   H1939     1.0  0.36278  0.94962  0.73178  1.0000
  S   S647      1.0  0.37566  0.95888  0.76112  1.0000
  C   C1952     1.0  0.02733  0.64335  0.61354  1.0000
  Fe  Fe326     1.0  0.39918  0.94021  0.76775  1.0000
  Fe  Fe327     1.0  0.39324  0.96841  0.73701  1.0000
  S   S648      1.0  0.38535  0.97784  0.71192  1.0000
  C   C1953     1.0  0.03881  0.62636  0.74654  1.0000
  C   C1954     1.0  0.42797  0.98653  0.62662  1.0000
  C   C1955     1.0  0.43924  0.51986  0.76224  1.0000
  C   C1956     1.0  0.48651  0.93904  0.74338  1.0000
  N   N167      1.0  0.48800  0.92806  0.77257  1.0000
  H   H1940     1.0  0.47980  0.97241  0.75237  1.0000
  Fe  Fe328     1.0  0.43004  0.59385  0.76489  1.0000
  S   S649      1.0  0.44140  0.60258  0.73722  1.0000
  H   H1941     1.0  0.09303  0.86447  0.60823  1.0000
  H   H1942     1.0  0.03938  0.64026  0.78057  1.0000
  H   H1943     1.0  0.09090  0.94879  0.71689  1.0000
  Fe  Fe329     1.0  0.06100  0.92876  0.65793  1.0000
  S   S650      1.0  0.07692  0.92445  0.67716  1.0000
  Fe  Fe330     1.0  0.05412  0.91090  0.63409  1.0000
  S   S651      1.0  0.03411  0.93300  0.62530  1.0000
  S   S652      1.0  0.06121  0.88690  0.62443  1.0000
  Fe  Fe331     1.0  0.05269  0.94839  0.62439  1.0000
  S   S653      1.0  0.07341  0.92605  0.63127  1.0000
  S   S654      1.0  0.33501  0.61307  0.59471  1.0000
  Fe  Fe332     1.0  0.41052  0.62586  0.65416  1.0000
  S   S655      1.0  0.43028  0.60811  0.63924  1.0000
  S   S656      1.0  0.39871  0.61567  0.68139  1.0000
  Fe  Fe333     1.0  0.41072  0.65559  0.62391  1.0000
  S   S657      1.0  0.43075  0.64025  0.60709  1.0000
  S   S658      1.0  0.39878  0.68223  0.61265  1.0000
  Fe  Fe334     1.0  0.41540  0.62025  0.61873  1.0000
  S   S659      1.0  0.41084  0.60821  0.59983  1.0000
  Fe  Fe335     1.0  0.44345  0.62997  0.62911  1.0000
  S   S660      1.0  0.47204  0.62682  0.62461  1.0000
  S   S661      1.0  0.39451  0.63619  0.63443  1.0000
  S   S662      1.0  0.42457  0.64714  0.64520  1.0000
  C   C1957     1.0  0.37235  0.66095  0.59138  1.0000
  S   S663      1.0  0.39926  0.98742  0.74743  1.0000
  H   H1944     1.0  0.00682  0.69494  0.60650  1.0000
  Fe  Fe336     1.0  0.40434  0.93876  0.63448  1.0000
  S   S664      1.0  0.42872  0.94382  0.61651  1.0000
  S   S665      1.0  0.40534  0.92853  0.66197  1.0000
  Fe  Fe337     1.0  0.38461  0.94867  0.60632  1.0000
  H   H1945     1.0  0.46033  0.96164  0.70609  1.0000
  S   S666      1.0  0.35923  0.94968  0.60082  1.0000
  H   H1946     1.0  0.06979  0.52811  0.59128  1.0000
  S   S667      1.0  0.41011  0.57812  0.77668  1.0000
  H   H1947     1.0  0.36746  0.57855  0.61882  1.0000
  H   H1948     1.0  0.37609  0.91715  0.59405  1.0000
  S   S668      1.0  0.39901  0.92373  0.61884  1.0000
  S   S669      1.0  0.38771  0.96307  0.62380  1.0000
  S   S670      1.0  0.09945  0.60090  0.75388  1.0000
  C   C1958     1.0  0.06504  0.97038  0.68943  1.0000
  H   H1949     1.0  0.09409  0.50430  0.59745  1.0000
  C   C1959     1.0  0.48477  0.91504  0.58650  1.0000
  S   S671      1.0  0.04392  0.69960  0.60054  1.0000
  C   C1960     1.0  0.48075  0.93696  0.60222  1.0000
  C   C1961     1.0  0.42320  0.88960  0.59481  1.0000
  C   C1962     1.0  0.10102  0.82536  0.58646  1.0000
  H   H1950     1.0  0.16834  0.97281  0.58573  1.0000
  S   S672      1.0  0.07422  0.98427  0.71057  1.0000
  H   H1951     1.0  0.07953  0.57398  0.60546  1.0000
  C   C1963     1.0  0.40022  0.56789  0.60384  1.0000
  C   C1964     1.0  0.04890  0.91970  0.71597  1.0000
  C   C1965     1.0  0.03261  0.55731  0.67915  1.0000
  Fe  Fe338     1.0  0.07507  0.58714  0.67826  1.0000
  S   S673      1.0  0.06027  0.60956  0.66260  1.0000
  S   S674      1.0  0.06473  0.58022  0.70650  1.0000
  Fe  Fe339     1.0  0.09923  0.57542  0.64724  1.0000
  S   S675      1.0  0.08626  0.59674  0.62945  1.0000
  S   S676      1.0  0.12001  0.55726  0.63378  1.0000
  Fe  Fe340     1.0  0.08613  0.61284  0.64663  1.0000
  S   S677      1.0  0.09560  0.63663  0.63278  1.0000
  Fe  Fe341     1.0  0.06202  0.59121  0.64692  1.0000
  S   S678      1.0  0.04025  0.59112  0.63607  1.0000
  S   S679      1.0  0.10105  0.59183  0.66346  1.0000
  S   S680      1.0  0.07483  0.56858  0.66356  1.0000
  H   H1952     1.0  0.01789  0.69091  0.58591  1.0000
  C   C1966     1.0  0.11548  0.97035  0.58515  1.0000
  S   S681      1.0  0.03629  0.52369  0.61911  1.0000
  C   C1967     1.0  0.04009  0.57196  0.63151  1.0000
  C   C1968     1.0  0.05177  0.55683  0.63610  1.0000
  C   C1969     1.0  0.05071  0.54167  0.63268  1.0000
  C   C1970     1.0  0.03818  0.54181  0.62437  1.0000
  C   C1971     1.0  0.06598  0.63303  0.74403  1.0000
  C   C1972     1.0  0.45856  0.67287  0.64414  1.0000
  H   H1953     1.0  0.06139  0.55668  0.64254  1.0000
  H   H1954     1.0  0.05963  0.52999  0.63632  1.0000
  Fe  Fe342     1.0  0.07585  0.97708  0.73799  1.0000
  C   C1973     1.0  0.03717  0.53572  0.70404  1.0000
  C   C1974     1.0  0.05795  0.68179  0.60962  1.0000
  C   C1975     1.0  0.07437  0.67645  0.60028  1.0000
  C   C1976     1.0  0.08560  0.66229  0.60736  1.0000
  C   C1977     1.0  0.08049  0.65319  0.62377  1.0000
  C   C1978     1.0  0.06386  0.65809  0.63298  1.0000
  C   C1979     1.0  0.05264  0.67250  0.62596  1.0000
  H   H1955     1.0  0.35288  0.95943  0.70494  1.0000
  H   H1956     1.0  0.09829  0.65840  0.60004  1.0000
  H   H1957     1.0  0.05987  0.65114  0.64572  1.0000
  H   H1958     1.0  0.03992  0.67651  0.63322  1.0000
  C   C1980     1.0  0.15435  0.58877  0.59290  1.0000
  C   C1981     1.0  0.14618  0.59372  0.60821  1.0000
  C   C1982     1.0  0.13571  0.58399  0.62073  1.0000
  C   C1983     1.0  0.13380  0.56890  0.61827  1.0000
  C   C1984     1.0  0.14229  0.56364  0.60311  1.0000
  C   C1985     1.0  0.02218  0.51785  0.67585  1.0000
  H   H1959     1.0  0.14772  0.60523  0.61039  1.0000
  H   H1960     1.0  0.12927  0.58807  0.63242  1.0000
  H   H1961     1.0  0.14089  0.55193  0.60118  1.0000
  H   H1962     1.0  0.46462  0.93797  0.76399  1.0000
  H   H1963     1.0  0.40808  0.87055  0.60244  1.0000
  C   C1986     1.0  0.00397  0.90163  0.61885  1.0000
  H   H1964     1.0  0.08735  0.55203  0.76808  1.0000
  H   H1965     1.0  0.03302  0.95626  0.75059  1.0000
  C   C1987     1.0  0.41661  0.87707  0.59215  1.0000
  N   N168      1.0  0.10621  0.85159  0.58806  1.0000
  H   H1966     1.0  0.03073  0.51224  0.70556  1.0000
  Fe  Fe343     1.0  0.09474  0.96373  0.76669  1.0000
  C   C1988     1.0  0.08991  0.59461  0.74102  1.0000
  C   C1989     1.0  0.07554  0.58739  0.74784  1.0000
  C   C1990     1.0  0.06783  0.58305  0.73713  1.0000
  C   C1991     1.0  0.07448  0.58591  0.71962  1.0000
  C   C1992     1.0  0.08871  0.59332  0.71284  1.0000
  C   C1993     1.0  0.09640  0.59766  0.72352  1.0000
  H   H1967     1.0  0.07027  0.58533  0.76129  1.0000
  H   H1968     1.0  0.05667  0.57752  0.74241  1.0000
  H   H1969     1.0  0.09388  0.59563  0.69937  1.0000
  H   H1970     1.0  0.10745  0.60335  0.71819  1.0000
  C   C1994     1.0  0.47367  0.95326  0.60527  1.0000
  H   H1971     1.0  0.03576  0.66675  0.60288  1.0000
  C   C1995     1.0  0.09671  0.83938  0.59389  1.0000
  Fe  Fe344     1.0  0.02502  0.93454  0.65258  1.0000
  C   C1996     1.0  0.09344  0.51653  0.59964  1.0000
  C   C1997     1.0  0.49011  0.63065  0.66963  1.0000
  H   H1972     1.0  0.34156  0.57603  0.61154  1.0000
  N   N169      1.0  0.04979  0.53927  0.77879  1.0000
  C   C1998     1.0  0.38956  0.61141  0.59787  1.0000
  C   C1999     1.0  0.37574  0.61508  0.61112  1.0000
  C   C2000     1.0  0.35898  0.61619  0.60975  1.0000
  C   C2001     1.0  0.35593  0.61361  0.59515  1.0000
  N   N170      1.0  0.37541  0.92497  0.72731  1.0000
  Fe  Fe345     1.0  0.08994  0.59406  0.78202  1.0000
  H   H1973     1.0  0.37796  0.61648  0.62267  1.0000
  H   H1974     1.0  0.34837  0.61860  0.62022  1.0000
  H   H1975     1.0  0.10244  0.56857  0.60373  1.0000
  C   C2002     1.0  0.15242  0.57370  0.59032  1.0000
  H   H1976     1.0  0.47250  0.97581  0.69004  1.0000
  C   C2003     1.0  0.00222  0.89634  0.64886  1.0000
  C   C2004     1.0  0.43626  0.57782  0.68616  1.0000
  H   H1977     1.0  0.48906  0.92813  0.61018  1.0000
  C   C2005     1.0  0.47049  0.58260  0.70463  1.0000
  C   C2006     1.0  0.47901  0.62835  0.64188  1.0000
  C   C2007     1.0  0.46722  0.63090  0.65680  1.0000
  C   C2008     1.0  0.47273  0.63223  0.67055  1.0000
  H   H1978     1.0  0.45385  0.63170  0.65783  1.0000
  H   H1979     1.0  0.46350  0.63451  0.68195  1.0000
  C   C2009     1.0  0.09120  0.96233  0.60676  1.0000
  H   H1980     1.0  0.02299  0.55017  0.66147  1.0000
  H   H1981     1.0  0.42896  0.97327  0.62744  1.0000
  H   H1982     1.0  0.08601  0.95638  0.61954  1.0000
  S   S682      1.0  0.49634  0.63113  0.68769  1.0000
  Fe  Fe346     1.0  0.05321  0.49778  0.62413  1.0000
  C   C2010     1.0  0.06130  0.91190  0.74051  1.0000
  H   H1983     1.0  0.00818  0.51862  0.68014  1.0000
  C   C2011     1.0  0.14105  0.64283  0.60962  1.0000
  H   H1984     1.0  0.49332  0.59190  0.69104  1.0000
  C   C2012     1.0  0.46519  0.63347  0.72406  1.0000
  H   H1985     1.0  0.37517  0.49534  0.77069  1.0000
  H   H1986     1.0  0.06700  0.64312  0.77989  1.0000
  C   C2013     1.0  0.38198  0.91962  0.74285  1.0000
  S   S683      1.0  0.44841  0.57815  0.78140  1.0000
  H   H1987     1.0  0.10761  0.92453  0.59772  1.0000
  H   H1988     1.0  0.07372  0.65568  0.75913  1.0000
  C   C2014     1.0  0.05609  0.88927  0.60490  1.0000
  C   C2015     1.0  0.05535  0.62745  0.73735  1.0000
  H   H1989     1.0  0.47610  0.90652  0.59440  1.0000
  H   H1990     1.0  0.08867  0.89164  0.78436  1.0000
  H   H1991     1.0  0.07552  0.92194  0.77629  1.0000
  H   H1992     1.0  0.05958  0.86246  0.60745  1.0000
  C   C2016     1.0  0.04157  0.93576  0.71953  1.0000
  C   C2017     1.0  0.42825  0.60794  0.72247  1.0000
  C   C2018     1.0  0.43452  0.61582  0.70579  1.0000
  C   C2019     1.0  0.42531  0.61873  0.69319  1.0000
  C   C2020     1.0  0.40967  0.61380  0.69723  1.0000
  C   C2021     1.0  0.40317  0.60626  0.71402  1.0000
  C   C2022     1.0  0.41243  0.60333  0.72663  1.0000
  H   H1993     1.0  0.44679  0.61921  0.70256  1.0000
  H   H1994     1.0  0.43042  0.62450  0.68032  1.0000
  H   H1995     1.0  0.39105  0.60244  0.71723  1.0000
  H   H1996     1.0  0.40747  0.59723  0.73946  1.0000
  H   H1997     1.0  0.49382  0.67324  0.66793  1.0000
  C   C2023     1.0  0.36456  0.93586  0.69692  1.0000
  H   H1998     1.0  0.06685  0.52880  0.74065  1.0000
  H   H1999     1.0  0.11210  0.87122  0.59562  1.0000
  N   N171      1.0  0.02724  0.52977  0.68245  1.0000
  C   C2024     1.0  0.06565  0.95726  0.68180  1.0000
  S   S684      1.0  0.04158  0.95238  0.65087  1.0000
  C   C2025     1.0  0.10530  0.93020  0.58511  1.0000
  H   H2000     1.0  0.03299  0.57002  0.67165  1.0000
  N   N172      1.0  0.09153  0.54781  0.60582  1.0000
  H   H2001     1.0  0.06909  0.90275  0.74878  1.0000
  H   H2002     1.0  0.02463  0.96254  0.73183  1.0000
  C   C2026     1.0  0.39356  0.96505  0.69691  1.0000
  C   C2027     1.0  0.40354  0.94879  0.70087  1.0000
  C   C2028     1.0  0.40794  0.93796  0.68958  1.0000
  C   C2029     1.0  0.40253  0.94339  0.67422  1.0000
  C   C2030     1.0  0.39340  0.96000  0.66983  1.0000
  C   C2031     1.0  0.38885  0.97078  0.68121  1.0000
  H   H2003     1.0  0.40725  0.94428  0.71290  1.0000
  H   H2004     1.0  0.41506  0.92514  0.69297  1.0000
  H   H2005     1.0  0.38913  0.96426  0.65806  1.0000
  H   H2006     1.0  0.44515  0.67364  0.65029  1.0000
  C   C2032     1.0  0.10861  0.96289  0.60179  1.0000
  H   H2007     1.0  0.34562  0.97804  0.77752  1.0000
  C   C2033     1.0  0.49155  0.62880  0.73397  1.0000
  C   C2034     1.0  0.45565  0.57882  0.70313  1.0000
  H   H2008     1.0  0.49707  0.98454  0.72762  1.0000
  H   H2009     1.0  0.00800  0.89511  0.65936  1.0000
  H   H2010     1.0  0.02113  0.59871  0.76804  1.0000
  C   C2035     1.0  0.48168  0.66880  0.62004  1.0000
  H   H2011     1.0  0.06413  0.50022  0.69711  1.0000
  H   H2012     1.0  0.04259  0.56056  0.69893  1.0000
  H   H2013     1.0  0.47101  0.97410  0.71218  1.0000
  C   C2036     1.0  0.05891  0.90775  0.72648  1.0000
  H   H2014     1.0  0.46574  0.67573  0.66566  1.0000
  H   H2015     1.0  0.03435  0.94516  0.71092  1.0000
  C   C2037     1.0  0.07552  0.94113  0.68667  1.0000
  C   C2038     1.0  0.08444  0.93811  0.69949  1.0000
  C   C2039     1.0  0.08367  0.95117  0.70728  1.0000
  H   H2016     1.0  0.09209  0.92564  0.70334  1.0000
  H   H2017     1.0  0.44180  0.52505  0.74877  1.0000
  C   C2040     1.0  0.02712  0.54599  0.67338  1.0000
  H   H2018     1.0  0.42788  0.97923  0.78068  1.0000
  N   N173      1.0  0.45204  0.58146  0.68758  1.0000
  H   H2019     1.0  0.38835  0.90207  0.71894  1.0000
  C   C2041     1.0  0.08054  0.96957  0.59523  1.0000
  H   H2020     1.0  0.36094  0.94030  0.68475  1.0000
  C   C2042     1.0  0.05667  0.87482  0.59939  1.0000
  H   H2021     1.0  0.47280  0.58132  0.71705  1.0000
  H   H2022     1.0  0.43907  0.54305  0.76876  1.0000
  N   N174      1.0  0.12914  0.66986  0.59368  1.0000
  H   H2023     1.0  0.05574  0.93125  0.75454  1.0000
  H   H2024     1.0  0.01144  0.90426  0.60603  1.0000
  H   H2025     1.0  0.42640  0.57791  0.69814  1.0000
  H   H2026     1.0  0.43492  0.97509  0.69407  1.0000
  C   C2043     1.0  0.05172  0.90529  0.59469  1.0000
  H   H2027     1.0  0.38053  0.70067  0.58656  1.0000
  S   S685      1.0  0.05023  0.49373  0.73287  1.0000
  C   C2044     1.0  0.03299  0.63114  0.76211  1.0000
  H   H2028     1.0  0.49780  0.63403  0.72122  1.0000
  H   H2029     1.0  0.03979  0.63604  0.61574  1.0000
  C   C2045     1.0  0.45327  0.97547  0.76494  1.0000
  C   C2046     1.0  0.01773  0.59203  0.78098  1.0000
  Fe  Fe347     1.0  0.05922  0.95844  0.77241  1.0000
  H   H2030     1.0  0.36627  0.65862  0.60471  1.0000
  C   C2047     1.0  0.47850  0.93504  0.76045  1.0000
  S   S686      1.0  0.05074  0.98343  0.75576  1.0000
  S   S687      1.0  0.02780  0.49727  0.77840  1.0000
  H   H2031     1.0  0.43193  0.67469  0.59041  1.0000
  H   H2032     1.0  0.16291  0.62774  0.59574  1.0000
  H   H2033     1.0  0.44667  0.57452  0.71456  1.0000
  S   S688      1.0  0.44719  0.97195  0.74803  1.0000
  H   H2034     1.0  0.05147  0.91649  0.59870  1.0000
  C   C2048     1.0  0.05368  0.92804  0.74375  1.0000
  H   H2035     1.0  0.09315  0.81596  0.59069  1.0000
  S   S689      1.0  0.11849  0.94927  0.77605  1.0000
  C   C2049     1.0  0.02754  0.57189  0.62342  1.0000
  H   H2036     1.0  0.04097  0.52825  0.76365  1.0000
  N   N175      1.0  0.47471  0.62785  0.73762  1.0000
  H   H2037     1.0  0.11541  0.60713  0.59732  1.0000
  H   H2038     1.0  0.46799  0.62321  0.71710  1.0000
  H   H2039     1.0  0.08826  0.56248  0.62363  1.0000
  C   C2050     1.0  0.43721  0.50310  0.76834  1.0000
  C   C2051     1.0  0.49317  0.61621  0.76305  1.0000
  H   H2040     1.0  0.45113  0.63661  0.72910  1.0000
  C   C2052     1.0  0.06252  0.54603  0.78001  1.0000
  H   H2041     1.0  0.47663  0.95702  0.61532  1.0000
  H   H2042     1.0  0.06012  0.62348  0.72537  1.0000
  H   H2043     1.0  0.02557  0.52057  0.66177  1.0000
  N   N176      1.0  0.06031  0.63737  0.75945  1.0000
  H   H2044     1.0  0.06502  0.89542  0.72356  1.0000
  C   C2053     1.0  0.02664  0.55693  0.61981  1.0000
  C   C2054     1.0  0.46273  0.96460  0.59530  1.0000
  C   C2055     1.0  0.47854  0.59045  0.67426  1.0000
  H   H2045     1.0  0.10293  0.62734  0.60057  1.0000
  H   H2046     1.0  0.12539  0.62517  0.59061  1.0000
  H   H2047     1.0  0.11939  0.66052  0.61991  1.0000
  C   C2056     1.0  0.01181  0.89910  0.63234  1.0000
  H   H2048     1.0  0.40779  0.55513  0.60839  1.0000
  S   S690      1.0  0.43878  0.49082  0.75390  1.0000
  H   H2049     1.0  0.48934  0.97609  0.77627  1.0000
  H   H2050     1.0  0.10657  0.68638  0.60454  1.0000
  H   H2051     1.0  0.01525  0.62195  0.62325  1.0000
  H   H2052     1.0  0.03060  0.62164  0.74169  1.0000
  H   H2053     1.0  0.06838  0.55594  0.59667  1.0000
  C   C2057     1.0  0.03792  0.55203  0.69448  1.0000
  C   C2058     1.0  0.43478  0.98644  0.69791  1.0000
  C   C2059     1.0  0.48194  0.58855  0.69008  1.0000
  C   C2060     1.0  0.40557  0.68705  0.59057  1.0000
  H   H2054     1.0  0.11441  0.53626  0.61509  1.0000
  C   C2061     1.0  0.07919  0.54567  0.59913  1.0000
  H   H2055     1.0  0.37279  0.92531  0.75321  1.0000
  H   H2056     1.0  0.08459  0.63387  0.76518  1.0000
  H   H2057     1.0  0.47889  0.94501  0.73390  1.0000
  H   H2058     1.0  0.04735  0.91675  0.70476  1.0000
  H   H2059     1.0  0.04117  0.53142  0.71604  1.0000
  C   C2062     1.0  0.10598  0.51880  0.60642  1.0000
  C   C2063     1.0  0.06577  0.53364  0.75170  1.0000
  N   N177      1.0  0.44856  0.98790  0.70293  1.0000
  C   C2064     1.0  0.07731  0.54655  0.76717  1.0000
  S   S691      1.0  0.05892  0.96831  0.60106  1.0000
  H   H2060     1.0  0.43045  0.58774  0.67632  1.0000
  C   C2065     1.0  0.49645  0.62705  0.64078  1.0000
  C   C2066     1.0  0.47605  0.61508  0.76661  1.0000
  C   C2067     1.0  0.09033  0.56408  0.60974  1.0000
  C   C2068     1.0  0.36005  0.94657  0.70823  1.0000
  C   C2069     1.0  0.39055  0.50999  0.77514  1.0000
  N   N178      1.0  0.38479  0.56646  0.59955  1.0000
  C   C2070     1.0  0.35416  0.57085  0.60466  1.0000
  C   C2071     1.0  0.10085  0.86682  0.59511  1.0000
  H   H2061     1.0  0.11684  0.95722  0.61074  1.0000
  H   H2062     1.0  0.07903  0.63330  0.73705  1.0000
  C   C2072     1.0  0.15343  0.63957  0.59522  1.0000
  C   C2073     1.0  0.37461  0.91969  0.70091  1.0000
  H   H2063     1.0  0.07821  0.93150  0.59288  1.0000
  H   H2064     1.0  0.40114  0.50722  0.76469  1.0000
  S   S692      1.0  0.39645  0.91321  0.77885  1.0000
  S   S693      1.0  0.40730  0.95480  0.58616  1.0000
  C   C2074     1.0  0.36571  0.94093  0.72342  1.0000
  C   C2075     1.0  0.38004  0.91444  0.71621  1.0000
  C   C2076     1.0  0.12901  0.65819  0.60865  1.0000
  C   C2077     1.0  0.46334  0.58702  0.67322  1.0000
  C   C2078     1.0  0.02496  0.66071  0.60640  1.0000
  Fe  Fe348     1.0  0.42202  0.93099  0.59991  1.0000
  H   H2065     1.0  0.46890  0.64491  0.71502  1.0000
  H   H2066     1.0  0.39429  0.92355  0.74054  1.0000
  N   N179      1.0  0.04383  0.93966  0.73341  1.0000
  H   H2067     1.0  0.05873  0.95974  0.67195  1.0000
  N   N180      1.0  0.48729  0.67250  0.64519  1.0000
  C   C2079     1.0  0.09079  0.98089  0.64397  1.0000
  C   C2080     1.0  0.03649  0.95667  0.73676  1.0000
  H   H2068     1.0  0.01689  0.55707  0.61343  1.0000
  H   H2069     1.0  0.08549  0.84061  0.60408  1.0000
  C   C2081     1.0  0.01352  0.63545  0.61783  1.0000
  H   H2070     1.0  0.46983  0.60970  0.77931  1.0000
  H   H2071     1.0  0.02902  0.50462  0.68019  1.0000
  C   C2082     1.0  0.03148  0.52481  0.69793  1.0000
  N   N181      1.0  0.00924  0.66998  0.60381  1.0000
  H   H2072     1.0  0.48739  0.59501  0.66286  1.0000
  S   S694      1.0  0.04373  0.91113  0.66154  1.0000
  H   H2073     1.0  0.43901  0.56530  0.68288  1.0000
  S   S695      1.0  0.08319  0.95108  0.75357  1.0000
  C   C2083     1.0  0.47596  0.97675  0.77726  1.0000
  H   H2074     1.0  0.40264  0.52541  0.78289  1.0000
  C   C2084     1.0  0.36889  0.57231  0.60866  1.0000
  H   H2075     1.0  0.04593  0.96485  0.73062  1.0000
  C   C2085     1.0  0.07417  0.96739  0.70207  1.0000
  H   H2076     1.0  0.46054  0.58910  0.66086  1.0000
  C   C2086     1.0  0.47029  0.67400  0.65276  1.0000
  C   C2087     1.0  0.10478  0.53463  0.60952  1.0000
  C   C2088     1.0  0.46435  0.67014  0.62771  1.0000
  H   H2077     1.0  0.14064  0.63348  0.62145  1.0000
  H   H2078     1.0  0.45376  0.61973  0.75643  1.0000
  H   H2079     1.0  0.43586  0.98207  0.65008  1.0000
  H   H2080     1.0  0.05766  0.98293  0.68537  1.0000
  H   H2081     1.0  0.09012  0.54102  0.74269  1.0000
  C   C2089     1.0  0.07191  0.64285  0.76624  1.0000
  C   C2090     1.0  0.47053  0.97481  0.76370  1.0000
  H   H2082     1.0  0.38418  0.90567  0.74755  1.0000
  H   H2083     1.0  0.02513  0.89963  0.63000  1.0000
  H   H2084     1.0  0.41995  0.89251  0.60719  1.0000
  Fe  Fe349     1.0  0.41179  0.96705  0.60464  1.0000
  C   C2091     1.0  0.46699  0.62088  0.75363  1.0000
  H   H2085     1.0  0.11641  0.50824  0.60943  1.0000
  C   C2092     1.0  0.43770  0.53006  0.77352  1.0000
  H   H2086     1.0  0.37886  0.91160  0.69180  1.0000
  Fe  Fe350     1.0  0.38366  0.97620  0.77216  1.0000
  C   C2093     1.0  0.11671  0.68609  0.59278  1.0000
  C   C2094     1.0  0.07888  0.54037  0.75290  1.0000
  H   H2087     1.0  0.38111  0.98335  0.67812  1.0000
  C   C2095     1.0  0.04392  0.63681  0.76834  1.0000
  C   C2096     1.0  0.05118  0.53329  0.76479  1.0000
  H   H2088     1.0  0.01843  0.58346  0.61988  1.0000
  H   H2089     1.0  0.39711  0.57524  0.61386  1.0000
  H   H2090     1.0  0.09059  0.97042  0.63890  1.0000
  C   C2097     1.0  0.46384  0.97416  0.70276  1.0000
  H   H2091     1.0  0.07856  0.68337  0.58764  1.0000
  C   C2098     1.0  0.49302  0.67011  0.62898  1.0000
  C   C2099     1.0  0.44128  0.97854  0.77968  1.0000
  H   H2092     1.0  0.45551  0.66863  0.62109  1.0000
  H   H2093     1.0  0.02019  0.63015  0.76944  1.0000
  H   H2094     1.0  0.48634  0.66628  0.60742  1.0000
  H   H2095     1.0  0.38601  0.89746  0.58730  1.0000
  H   H2096     1.0  0.39675  0.64574  0.59546  1.0000
  N   N182      1.0  0.47740  0.93225  0.58933  1.0000
  H   H2097     1.0  0.40827  0.57469  0.59260  1.0000
  H   H2098     1.0  0.10140  0.96439  0.66497  1.0000
  C   C2100     1.0  0.11354  0.62091  0.59167  1.0000
  C   C2101     1.0  0.37599  0.50341  0.77845  1.0000
  C   C2102     1.0  0.09702  0.97739  0.65868  1.0000
  S   S696      1.0  0.41837  0.61293  0.78125  1.0000
  C   C2103     1.0  0.35577  0.56323  0.59137  1.0000
  H   H2099     1.0  0.45689  0.97718  0.59767  1.0000
  H   H2100     1.0  0.12331  0.69657  0.59062  1.0000
  C   C2104     1.0  0.38962  0.65371  0.58608  1.0000
  H   H2101     1.0  0.34446  0.56211  0.58805  1.0000
  C   C2105     1.0  0.38648  0.55901  0.58644  1.0000
  H   H2102     1.0  0.09299  0.87709  0.58715  1.0000
  H   H2103     1.0  0.49760  0.91014  0.58973  1.0000
  C   C2106     1.0  0.00707  0.68823  0.59672  1.0000
  H   H2104     1.0  0.10139  0.98815  0.67723  1.0000
  S   S697      1.0  0.40598  0.95682  0.78060  1.0000
  S   S698      1.0  0.05423  0.82602  0.83643  1.0000
  Fe  Fe351     1.0  0.05554  0.84811  0.87056  1.0000
  S   S699      1.0  0.07903  0.83798  0.85262  1.0000
  S   S700      1.0  0.05743  0.86451  0.88699  1.0000
  Fe  Fe352     1.0  0.06333  0.84966  0.83301  1.0000
  S   S701      1.0  0.07606  0.86410  0.80821  1.0000
  Fe  Fe353     1.0  0.06749  0.81534  0.85806  1.0000
  S   S702      1.0  0.08449  0.78923  0.85986  1.0000
  S   S703      1.0  0.04498  0.82437  0.87777  1.0000
  Fe  Fe354     1.0  0.13662  0.90177  0.87709  1.0000
  S   S704      1.0  0.11636  0.92294  0.88630  1.0000
  S   S705      1.0  0.13211  0.87704  0.87559  1.0000
  Fe  Fe355     1.0  0.16541  0.92053  0.87062  1.0000
  S   S706      1.0  0.14732  0.94338  0.87892  1.0000
  S   S707      1.0  0.19382  0.91819  0.86069  1.0000
  Fe  Fe356     1.0  0.13543  0.92439  0.90005  1.0000
  S   S708      1.0  0.12886  0.92376  0.92792  1.0000
  Fe  Fe357     1.0  0.13022  0.93969  0.86420  1.0000
  S   S709      1.0  0.11648  0.96209  0.84727  1.0000
  S   S710      1.0  0.15464  0.90175  0.89263  1.0000
  S   S711      1.0  0.14947  0.91831  0.85412  1.0000
  H   H2105     1.0  0.09132  0.84384  0.87800  1.0000
  C   C2107     1.0  0.07153  0.97978  0.83662  1.0000
  C   C2108     1.0  0.11048  0.88945  0.81046  1.0000
  S   S712      1.0  0.29647  0.96858  0.82346  1.0000
  H   H2106     1.0  0.13444  0.89236  0.95413  1.0000
  H   H2107     1.0  0.18419  0.55361  0.80709  1.0000
  H   H2108     1.0  0.09827  0.67430  0.93973  1.0000
  H   H2109     1.0  0.12024  0.84930  0.87296  1.0000
  C   C2109     1.0  0.49169  0.84577  0.90467  1.0000
  C   C2110     1.0  0.36186  0.65808  0.97619  1.0000
  H   H2110     1.0  0.35120  0.50201  0.79441  1.0000
  H   H2111     1.0  0.48443  0.88078  0.87365  1.0000
  H   H2112     1.0  0.46552  0.66969  0.84820  1.0000
  Fe  Fe358     1.0  0.40213  0.85270  0.89862  1.0000
  S   S713      1.0  0.38774  0.83345  0.89928  1.0000
  S   S714      1.0  0.39742  0.86293  0.92202  1.0000
  Fe  Fe359     1.0  0.41687  0.85658  0.86069  1.0000
  S   S715      1.0  0.40388  0.83743  0.85821  1.0000
  S   S716      1.0  0.43288  0.87225  0.83938  1.0000
  Fe  Fe360     1.0  0.38117  0.85027  0.87528  1.0000
  S   S717      1.0  0.35472  0.85713  0.87011  1.0000
  Fe  Fe361     1.0  0.41174  0.82221  0.88239  1.0000
  S   S718      1.0  0.42231  0.79395  0.88912  1.0000
  S   S719      1.0  0.39352  0.87054  0.87591  1.0000
  S   S720      1.0  0.42678  0.84031  0.88354  1.0000
  Fe  Fe362     1.0  0.25814  0.95663  0.88100  1.0000
  S   S721      1.0  0.27251  0.95687  0.89984  1.0000
  S   S722      1.0  0.23065  0.95439  0.89252  1.0000
  Fe  Fe363     1.0  0.28754  0.96488  0.85172  1.0000
  C   C2111     1.0  0.24985  0.97620  0.93354  1.0000
  Fe  Fe364     1.0  0.29544  0.94260  0.88450  1.0000
  S   S723      1.0  0.31391  0.92255  0.89852  1.0000
  H   H2113     1.0  0.09472  0.51430  0.81599  1.0000
  S   S724      1.0  0.28059  0.94015  0.86698  1.0000
  H   H2114     1.0  0.42204  0.86362  0.96815  1.0000
  N   N183      1.0  0.47221  0.79544  0.97827  1.0000
  H   H2115     1.0  0.25008  0.96458  0.97231  1.0000
  H   H2116     1.0  0.17246  0.90252  0.92114  1.0000
  C   C2112     1.0  0.46472  0.73886  0.87306  1.0000
  H   H2117     1.0  0.09308  0.86872  0.92279  1.0000
  Fe  Fe365     1.0  0.40934  0.71613  0.86601  1.0000
  S   S725      1.0  0.41722  0.70042  0.89004  1.0000
  S   S726      1.0  0.39804  0.74430  0.86048  1.0000
  Fe  Fe366     1.0  0.42134  0.68616  0.84840  1.0000
  S   S727      1.0  0.43042  0.66822  0.87072  1.0000
  S   S728      1.0  0.42283  0.67921  0.82392  1.0000
  Fe  Fe367     1.0  0.40591  0.68066  0.88598  1.0000
  S   S729      1.0  0.39161  0.66306  0.90695  1.0000
  Fe  Fe368     1.0  0.44084  0.68941  0.87265  1.0000
  S   S730      1.0  0.46847  0.68484  0.87374  1.0000
  S   S731      1.0  0.39597  0.69731  0.86339  1.0000
  S   S732      1.0  0.43384  0.70644  0.84889  1.0000
  Fe  Fe369     1.0  0.43500  0.59600  0.79878  1.0000
  C   C2113     1.0  0.47690  0.88001  0.90047  1.0000
  S   S733      1.0  0.44953  0.60383  0.81344  1.0000
  C   C2114     1.0  0.18250  0.93586  0.81812  1.0000
  Fe  Fe370     1.0  0.39993  0.59588  0.79455  1.0000
  S   S734      1.0  0.37223  0.60749  0.80319  1.0000
  S   S735      1.0  0.41561  0.58051  0.81344  1.0000
  Fe  Fe371     1.0  0.29030  0.60575  0.90982  1.0000
  S   S736      1.0  0.30538  0.57925  0.91597  1.0000
  S   S737      1.0  0.26182  0.61238  0.91174  1.0000
  Fe  Fe372     1.0  0.32197  0.62094  0.90054  1.0000
  S   S738      1.0  0.33969  0.59560  0.90593  1.0000
  S   S739      1.0  0.33001  0.64582  0.88885  1.0000
  Fe  Fe373     1.0  0.32456  0.58723  0.89258  1.0000
  S   S740      1.0  0.33731  0.56958  0.87481  1.0000
  Fe  Fe374     1.0  0.31877  0.59018  0.92876  1.0000
  S   S741      1.0  0.30840  0.61296  0.88533  1.0000
  S   S742      1.0  0.30220  0.61624  0.92454  1.0000
  Fe  Fe375     1.0  0.10034  0.57555  0.81516  1.0000
  H   H2118     1.0  0.07307  0.87571  0.84866  1.0000
  S   S743      1.0  0.11987  0.55776  0.82939  1.0000
  Fe  Fe376     1.0  0.06413  0.57960  0.81136  1.0000
  C   C2115     1.0  0.49292  0.64963  0.85925  1.0000
  S   S744      1.0  0.04179  0.56683  0.81931  1.0000
  H   H2119     1.0  0.07715  0.54305  0.86386  1.0000
  Fe  Fe377     1.0  0.07663  0.61005  0.81272  1.0000
  S   S745      1.0  0.06783  0.63462  0.82160  1.0000
  S   S746      1.0  0.08971  0.56767  0.79736  1.0000
  S   S747      1.0  0.07466  0.58512  0.83064  1.0000
  Fe  Fe378     1.0  0.07382  0.69867  0.89000  1.0000
  S   S748      1.0  0.10151  0.69838  0.87778  1.0000
  S   S749      1.0  0.05387  0.72320  0.88769  1.0000
  Fe  Fe379     1.0  0.08208  0.66166  0.90878  1.0000
  S   S750      1.0  0.11008  0.65965  0.89821  1.0000
  S   S751      1.0  0.07739  0.63628  0.92378  1.0000
  Fe  Fe380     1.0  0.10580  0.68519  0.90376  1.0000
  S   S752      1.0  0.12183  0.69393  0.91610  1.0000
  Fe  Fe381     1.0  0.10214  0.67278  0.87377  1.0000
  S   S753      1.0  0.11619  0.65975  0.85212  1.0000
  S   S754      1.0  0.07816  0.68632  0.91612  1.0000
  S   S755      1.0  0.07410  0.67394  0.88416  1.0000
  Fe  Fe382     1.0  0.20263  0.56722  0.89443  1.0000
  S   S756      1.0  0.18653  0.55739  0.91941  1.0000
  S   S757      1.0  0.23128  0.56201  0.89086  1.0000
  Fe  Fe383     1.0  0.17240  0.57905  0.87723  1.0000
  S   S758      1.0  0.15385  0.56978  0.90053  1.0000
  S   S759      1.0  0.16341  0.59365  0.85360  1.0000
  Fe  Fe384     1.0  0.16681  0.58115  0.91341  1.0000
  S   S760      1.0  0.15251  0.59785  0.93192  1.0000
  Fe  Fe385     1.0  0.17518  0.54698  0.90420  1.0000
  S   S761      1.0  0.17426  0.51951  0.91190  1.0000
  S   S762      1.0  0.18411  0.59206  0.88971  1.0000
  S   S763      1.0  0.19256  0.55520  0.87952  1.0000
  C   C2116     1.0  0.11402  0.69140  0.93815  1.0000
  C   C2117     1.0  0.10176  0.68166  0.94642  1.0000
  C   C2118     1.0  0.16236  0.95856  0.83110  1.0000
  C   C2119     1.0  0.11938  0.69982  0.94741  1.0000
  H   H2120     1.0  0.16701  0.60702  0.98354  1.0000
  H   H2121     1.0  0.12910  0.70713  0.94117  1.0000
  C   C2120     1.0  0.09735  0.62440  0.92796  1.0000
  C   C2121     1.0  0.10452  0.60892  0.92299  1.0000
  C   C2122     1.0  0.12140  0.60057  0.92429  1.0000
  C   C2123     1.0  0.13104  0.60751  0.93087  1.0000
  C   C2124     1.0  0.12356  0.62259  0.93653  1.0000
  C   C2125     1.0  0.10688  0.63114  0.93484  1.0000
  H   H2122     1.0  0.09717  0.60359  0.91778  1.0000
  H   H2123     1.0  0.12679  0.58868  0.92044  1.0000
  H   H2124     1.0  0.13077  0.62795  0.94187  1.0000
  H   H2125     1.0  0.10141  0.64308  0.93872  1.0000
  C   C2126     1.0  0.08184  0.64174  0.82922  1.0000
  C   C2127     1.0  0.09922  0.63391  0.82777  1.0000
  C   C2128     1.0  0.10980  0.63972  0.83448  1.0000
  C   C2129     1.0  0.10302  0.65319  0.84291  1.0000
  C   C2130     1.0  0.08574  0.66112  0.84407  1.0000
  C   C2131     1.0  0.07523  0.65546  0.83724  1.0000
  H   H2126     1.0  0.10451  0.62339  0.82153  1.0000
  H   H2127     1.0  0.12321  0.63365  0.83330  1.0000
  H   H2128     1.0  0.08049  0.67188  0.84994  1.0000
  H   H2129     1.0  0.06187  0.66169  0.83825  1.0000
  C   C2132     1.0  0.13016  0.56858  0.83738  1.0000
  C   C2133     1.0  0.13738  0.56032  0.85145  1.0000
  C   C2134     1.0  0.14720  0.56815  0.85689  1.0000
  C   C2135     1.0  0.14989  0.58425  0.84814  1.0000
  C   C2136     1.0  0.14225  0.59272  0.83441  1.0000
  C   C2137     1.0  0.13237  0.58492  0.82907  1.0000
  H   H2130     1.0  0.13577  0.54767  0.85785  1.0000
  H   H2131     1.0  0.15310  0.56149  0.86750  1.0000
  H   H2132     1.0  0.14433  0.60518  0.82758  1.0000
  H   H2133     1.0  0.12717  0.59131  0.81804  1.0000
  N   N184      1.0  0.27829  0.61095  0.98148  1.0000
  C   C2138     1.0  0.02603  0.57612  0.80726  1.0000
  S   S764      1.0  0.36001  0.61591  0.98174  1.0000
  H   H2134     1.0  0.26900  0.96292  0.95555  1.0000
  S   S765      1.0  0.12448  0.49994  0.87929  1.0000
  C   C2139     1.0  0.13753  0.50516  0.88946  1.0000
  N   N185      1.0  0.17879  0.94967  0.82697  1.0000
  C   C2140     1.0  0.15971  0.51417  0.90368  1.0000
  C   C2141     1.0  0.14718  0.52666  0.89650  1.0000
  C   C2142     1.0  0.13591  0.52212  0.88966  1.0000
  H   H2135     1.0  0.14599  0.53978  0.89642  1.0000
  H   H2136     1.0  0.12599  0.53174  0.88443  1.0000
  C   C2143     1.0  0.23897  0.57517  0.89870  1.0000
  C   C2144     1.0  0.25608  0.57078  0.90018  1.0000
  C   C2145     1.0  0.26310  0.58199  0.90452  1.0000
  C   C2146     1.0  0.25296  0.59753  0.90768  1.0000
  C   C2147     1.0  0.23568  0.60167  0.90674  1.0000
  C   C2148     1.0  0.22868  0.59052  0.90223  1.0000
  H   H2137     1.0  0.26406  0.55887  0.89756  1.0000
  H   H2138     1.0  0.27641  0.57869  0.90514  1.0000
  H   H2139     1.0  0.22777  0.61367  0.90921  1.0000
  H   H2140     1.0  0.21545  0.59398  0.90116  1.0000
  C   C2149     1.0  0.36235  0.59655  0.82271  1.0000
  C   C2150     1.0  0.36917  0.57955  0.82911  1.0000
  C   C2151     1.0  0.36125  0.57120  0.84500  1.0000
  C   C2152     1.0  0.34676  0.57995  0.85468  1.0000
  C   C2153     1.0  0.33995  0.59691  0.84822  1.0000
  C   C2154     1.0  0.34759  0.60512  0.83218  1.0000
  H   H2141     1.0  0.38045  0.57281  0.82175  1.0000
  H   H2142     1.0  0.36655  0.55807  0.84991  1.0000
  H   H2143     1.0  0.32873  0.60374  0.85543  1.0000
  H   H2144     1.0  0.34228  0.61825  0.82724  1.0000
  C   C2155     1.0  0.37481  0.65794  0.90164  1.0000
  C   C2156     1.0  0.36530  0.66978  0.89058  1.0000
  C   C2157     1.0  0.35146  0.66593  0.88700  1.0000
  C   C2158     1.0  0.34708  0.65017  0.89434  1.0000
  C   C2159     1.0  0.35657  0.63825  0.90541  1.0000
  C   C2160     1.0  0.37039  0.64217  0.90910  1.0000
  H   H2145     1.0  0.36826  0.68212  0.88516  1.0000
  H   H2146     1.0  0.34403  0.67526  0.87857  1.0000
  H   H2147     1.0  0.35330  0.62604  0.91109  1.0000
  H   H2148     1.0  0.37773  0.63291  0.91762  1.0000
  C   C2161     1.0  0.43056  0.65820  0.82131  1.0000
  C   C2162     1.0  0.42762  0.65388  0.80756  1.0000
  C   C2163     1.0  0.43335  0.63723  0.80513  1.0000
  C   C2164     1.0  0.44235  0.62481  0.81626  1.0000
  C   C2165     1.0  0.44561  0.62917  0.82986  1.0000
  C   C2166     1.0  0.43953  0.64578  0.83252  1.0000
  H   H2149     1.0  0.42075  0.66344  0.79881  1.0000
  C   C2167     1.0  0.48385  0.66013  0.80980  1.0000
  H   H2150     1.0  0.45258  0.61961  0.83853  1.0000
  H   H2151     1.0  0.44187  0.64897  0.84316  1.0000
  C   C2168     1.0  0.48308  0.70480  0.91192  1.0000
  C   C2169     1.0  0.46582  0.70516  0.91319  1.0000
  C   C2170     1.0  0.46112  0.69889  0.90163  1.0000
  C   C2171     1.0  0.47370  0.69233  0.88880  1.0000
  C   C2172     1.0  0.49090  0.69210  0.88753  1.0000
  H   H2152     1.0  0.15515  0.53237  0.82464  1.0000
  H   H2153     1.0  0.45609  0.71026  0.92309  1.0000
  H   H2154     1.0  0.44781  0.69913  0.90266  1.0000
  C   C2173     1.0  0.16349  0.51614  0.84673  1.0000
  N   N186      1.0  0.36856  0.79286  0.89052  1.0000
  H   H2155     1.0  0.49550  0.67423  0.94188  1.0000
  C   C2174     1.0  0.41557  0.78030  0.88097  1.0000
  C   C2175     1.0  0.40803  0.78633  0.86693  1.0000
  C   C2176     1.0  0.40325  0.77504  0.86040  1.0000
  C   C2177     1.0  0.40577  0.75773  0.86798  1.0000
  C   C2178     1.0  0.41348  0.75168  0.88191  1.0000
  C   C2179     1.0  0.41837  0.76295  0.88838  1.0000
  H   H2156     1.0  0.40602  0.79965  0.86102  1.0000
  H   H2157     1.0  0.39738  0.77976  0.84954  1.0000
  H   H2158     1.0  0.41546  0.73836  0.88784  1.0000
  H   H2159     1.0  0.42430  0.75821  0.89920  1.0000
  C   C2180     1.0  0.41416  0.85753  0.93282  1.0000
  C   C2181     1.0  0.41145  0.86350  0.94754  1.0000
  C   C2182     1.0  0.42428  0.85897  0.95680  1.0000
  C   C2183     1.0  0.44009  0.84882  0.95113  1.0000
  C   C2184     1.0  0.44299  0.84309  0.93624  1.0000
  C   C2185     1.0  0.42997  0.84731  0.92717  1.0000
  H   H2160     1.0  0.39948  0.87181  0.95172  1.0000
  H   H2161     1.0  0.43023  0.50136  0.81050  1.0000
  H   H2162     1.0  0.45519  0.83521  0.93180  1.0000
  H   H2163     1.0  0.43216  0.84266  0.91584  1.0000
  C   C2186     1.0  0.34248  0.87470  0.87867  1.0000
  C   C2187     1.0  0.32854  0.88525  0.87202  1.0000
  C   C2188     1.0  0.31945  0.89991  0.87814  1.0000
  C   C2189     1.0  0.32418  0.90388  0.89110  1.0000
  C   C2190     1.0  0.33788  0.89311  0.89796  1.0000
  C   C2191     1.0  0.34708  0.87864  0.89170  1.0000
  H   H2164     1.0  0.32496  0.88228  0.86191  1.0000
  H   H2165     1.0  0.30889  0.90815  0.87278  1.0000
  H   H2166     1.0  0.34159  0.89614  0.90796  1.0000
  H   H2167     1.0  0.35771  0.87050  0.89702  1.0000
  C   C2192     1.0  0.49398  0.54645  0.85462  1.0000
  C   C2193     1.0  0.46764  0.75998  0.88673  1.0000
  C   C2194     1.0  0.42623  0.89938  0.81352  1.0000
  C   C2195     1.0  0.42333  0.88325  0.82210  1.0000
  C   C2196     1.0  0.41278  0.87618  0.81685  1.0000
  C   C2197     1.0  0.40499  0.88531  0.80324  1.0000
  C   C2198     1.0  0.15899  0.58836  0.97580  1.0000
  H   H2168     1.0  0.43445  0.90486  0.81749  1.0000
  H   H2169     1.0  0.41068  0.86365  0.82325  1.0000
  H   H2170     1.0  0.39685  0.87976  0.79924  1.0000
  H   H2171     1.0  0.48817  0.80550  0.95516  1.0000
  C   C2199     1.0  0.15854  0.97103  0.84047  1.0000
  H   H2172     1.0  0.15331  0.62005  0.87295  1.0000
  H   H2173     1.0  0.45379  0.54250  0.82546  1.0000
  H   H2174     1.0  0.18462  0.92350  0.82723  1.0000
  S   S766      1.0  0.48898  0.71266  0.92628  1.0000
  Fe  Fe386     1.0  0.03224  0.83651  0.85571  1.0000
  H   H2175     1.0  0.10644  0.98466  0.81733  1.0000
  C   C2200     1.0  0.23931  0.98180  0.92181  1.0000
  C   C2201     1.0  0.34115  0.59958  0.95120  1.0000
  H   H2176     1.0  0.37899  0.53069  0.80727  1.0000
  H   H2177     1.0  0.06123  0.55113  0.79092  1.0000
  H   H2178     1.0  0.47121  0.72897  0.88187  1.0000
  C   C2202     1.0  0.20365  0.92965  0.86846  1.0000
  C   C2203     1.0  0.22123  0.92919  0.86248  1.0000
  C   C2204     1.0  0.22956  0.93741  0.86925  1.0000
  C   C2205     1.0  0.22030  0.94611  0.88202  1.0000
  C   C2206     1.0  0.20262  0.94707  0.88757  1.0000
  C   C2207     1.0  0.19431  0.93883  0.88083  1.0000
  H   H2179     1.0  0.22852  0.92211  0.85289  1.0000
  H   H2180     1.0  0.24322  0.93659  0.86495  1.0000
  H   H2181     1.0  0.19540  0.95378  0.89745  1.0000
  H   H2182     1.0  0.18080  0.93915  0.88564  1.0000
  C   C2208     1.0  0.14100  0.93353  0.93496  1.0000
  C   C2209     1.0  0.15070  0.94475  0.92360  1.0000
  C   C2210     1.0  0.16025  0.95246  0.92951  1.0000
  C   C2211     1.0  0.16041  0.94868  0.94674  1.0000
  C   C2212     1.0  0.15092  0.93728  0.95807  1.0000
  C   C2213     1.0  0.14108  0.92986  0.95220  1.0000
  H   H2183     1.0  0.15063  0.94775  0.91033  1.0000
  H   H2184     1.0  0.16763  0.96125  0.92071  1.0000
  H   H2185     1.0  0.45463  0.56434  0.81797  1.0000
  H   H2186     1.0  0.13357  0.92124  0.96107  1.0000
  C   C2214     1.0  0.11691  0.95853  0.82747  1.0000
  C   C2215     1.0  0.12314  0.94234  0.82405  1.0000
  C   C2216     1.0  0.12418  0.93973  0.80805  1.0000
  H   H2187     1.0  0.05369  0.78563  0.82146  1.0000
  C   C2217     1.0  0.11123  0.96924  0.79916  1.0000
  C   C2218     1.0  0.11107  0.97203  0.81492  1.0000
  H   H2188     1.0  0.12693  0.93172  0.83376  1.0000
  H   H2189     1.0  0.12944  0.92722  0.80542  1.0000
  H   H2190     1.0  0.37393  0.85750  0.95452  1.0000
  C   C2219     1.0  0.35749  0.81265  0.86742  1.0000
  C   C2220     1.0  0.07563  0.77116  0.86810  1.0000
  C   C2221     1.0  0.05976  0.77143  0.87945  1.0000
  C   C2222     1.0  0.05328  0.75656  0.88578  1.0000
  C   C2223     1.0  0.06247  0.74153  0.88050  1.0000
  C   C2224     1.0  0.07813  0.74147  0.86894  1.0000
  C   C2225     1.0  0.08482  0.75612  0.86300  1.0000
  H   H2191     1.0  0.05261  0.78301  0.88347  1.0000
  H   H2192     1.0  0.04107  0.75676  0.89463  1.0000
  H   H2193     1.0  0.08493  0.73028  0.86415  1.0000
  H   H2194     1.0  0.09702  0.75590  0.85410  1.0000
  C   C2226     1.0  0.04110  0.90858  0.80384  1.0000
  C   C2227     1.0  0.04869  0.89141  0.80875  1.0000
  C   C2228     1.0  0.06589  0.88529  0.80182  1.0000
  H   H2195     1.0  0.45988  0.67585  0.81957  1.0000
  H   H2196     1.0  0.00591  0.56672  0.82686  1.0000
  C   C2229     1.0  0.07816  0.86789  0.88427  1.0000
  C   C2230     1.0  0.08020  0.88297  0.88684  1.0000
  C   C2231     1.0  0.09667  0.88609  0.88404  1.0000
  C   C2232     1.0  0.11117  0.87399  0.87891  1.0000
  C   C2233     1.0  0.10909  0.85882  0.87668  1.0000
  C   C2234     1.0  0.09268  0.85578  0.87934  1.0000
  H   H2197     1.0  0.06902  0.89236  0.89076  1.0000
  H   H2198     1.0  0.09811  0.89779  0.88588  1.0000
  N   N187      1.0  0.27590  0.59448  0.86341  1.0000
  C   C2235     1.0  0.29255  0.58616  0.86329  1.0000
  C   C2236     1.0  0.26457  0.58671  0.86095  1.0000
  C   C2237     1.0  0.29810  0.56944  0.86123  1.0000
  C   C2238     1.0  0.26965  0.56995  0.85894  1.0000
  C   C2239     1.0  0.28651  0.56127  0.85914  1.0000
  C   C2240     1.0  0.27036  0.61200  0.86563  1.0000
  H   H2199     1.0  0.30164  0.59233  0.86501  1.0000
  H   H2200     1.0  0.25130  0.59318  0.86124  1.0000
  H   H2201     1.0  0.31127  0.56286  0.86140  1.0000
  H   H2202     1.0  0.26038  0.56364  0.85776  1.0000
  H   H2203     1.0  0.29056  0.54819  0.85783  1.0000
  H   H2204     1.0  0.25633  0.61528  0.87080  1.0000
  H   H2205     1.0  0.27652  0.61385  0.87498  1.0000
  H   H2206     1.0  0.27372  0.62085  0.85340  1.0000
  N   N188      1.0  0.38269  0.64413  0.84816  1.0000
  C   C2241     1.0  0.39575  0.63152  0.84285  1.0000
  C   C2242     1.0  0.36639  0.64146  0.85435  1.0000
  C   C2243     1.0  0.39276  0.61563  0.84394  1.0000
  C   C2244     1.0  0.36298  0.62564  0.85592  1.0000
  C   C2245     1.0  0.37629  0.61265  0.85069  1.0000
  C   C2246     1.0  0.38629  0.66066  0.84674  1.0000
  H   H2207     1.0  0.40857  0.63372  0.83771  1.0000
  H   H2208     1.0  0.35590  0.65153  0.85818  1.0000
  H   H2209     1.0  0.40315  0.60573  0.83953  1.0000
  H   H2210     1.0  0.35007  0.62353  0.86112  1.0000
  H   H2211     1.0  0.37382  0.60034  0.85174  1.0000
  H   H2212     1.0  0.38958  0.66704  0.83322  1.0000
  H   H2213     1.0  0.37520  0.66910  0.85326  1.0000
  H   H2214     1.0  0.39725  0.65909  0.85261  1.0000
  H   H2215     1.0  0.45889  0.80818  0.95823  1.0000
  H   H2216     1.0  0.09236  0.75128  0.89803  1.0000
  H   H2217     1.0  0.09140  0.93108  0.80133  1.0000
  C   C2247     1.0  0.06992  0.88960  0.84375  1.0000
  H   H2218     1.0  0.47497  0.57569  0.82489  1.0000
  C   C2248     1.0  0.41817  0.90864  0.80012  1.0000
  C   C2249     1.0  0.37521  0.78960  0.90580  1.0000
  H   H2219     1.0  0.07968  0.96763  0.84074  1.0000
  H   H2220     1.0  0.36185  0.98708  0.97085  1.0000
  C   C2250     1.0  0.02498  0.75611  0.86447  1.0000
  H   H2221     1.0  0.09788  0.72958  0.89562  1.0000
  C   C2251     1.0  0.43275  0.50654  0.79702  1.0000
  C   C2252     1.0  0.11989  0.50961  0.83195  1.0000
  C   C2253     1.0  0.07538  0.89634  0.78982  1.0000
  H   H2222     1.0  0.47396  0.93732  0.79449  1.0000
  C   C2254     1.0  0.48425  0.87290  0.88625  1.0000
  H   H2223     1.0  0.42029  0.92114  0.79377  1.0000
  C   C2255     1.0  0.11800  0.95309  0.79565  1.0000
  H   H2224     1.0  0.32465  0.49801  0.93162  1.0000
  C   C2256     1.0  0.49177  0.85568  0.88840  1.0000
  N   N189      1.0  0.47311  0.54977  0.83259  1.0000
  C   C2257     1.0  0.33921  0.97966  0.79013  1.0000
  H   H2225     1.0  0.07125  0.72338  0.91333  1.0000
  C   C2258     1.0  0.36081  0.78265  0.87022  1.0000
  C   C2259     1.0  0.05977  0.98104  0.82704  1.0000
  H   H2226     1.0  0.10656  0.97965  0.78956  1.0000
  C   C2260     1.0  0.48751  0.79846  0.96813  1.0000
  C   C2261     1.0  0.34598  0.89761  0.96978  1.0000
  C   C2262     1.0  0.17163  0.97424  0.84578  1.0000
  H   H2227     1.0  0.04332  0.58656  0.78513  1.0000
  H   H2228     1.0  0.46845  0.91871  0.79238  1.0000
  S   S767      1.0  0.00705  0.83425  0.85226  1.0000
  C   C2263     1.0  0.44669  0.98076  0.79322  1.0000
  H   H2229     1.0  0.25884  0.94524  0.96469  1.0000
  N   N190      1.0  0.24531  0.96533  0.94859  1.0000
  H   H2230     1.0  0.24240  0.51626  0.91281  1.0000
  C   C2264     1.0  0.32757  0.53212  0.96492  1.0000
  C   C2265     1.0  0.27183  0.60172  0.97295  1.0000
  C   C2266     1.0  0.45658  0.80106  0.97158  1.0000
  H   H2231     1.0  0.19032  0.54875  0.84187  1.0000
  C   C2267     1.0  0.33389  0.53975  0.93398  1.0000
  C   C2268     1.0  0.07054  0.72317  0.95382  1.0000
  N   N191      1.0  0.10223  0.51904  0.83628  1.0000
  H   H2232     1.0  0.32888  0.52047  0.97504  1.0000
  S   S768      1.0  0.07113  0.96942  0.78659  1.0000
  H   H2233     1.0  0.44679  0.80970  0.97904  1.0000
  C   C2269     1.0  0.47855  0.56354  0.83315  1.0000
  H   H2234     1.0  0.11775  0.91087  0.79141  1.0000
  C   C2270     1.0  0.10816  0.90647  0.80221  1.0000
  H   H2235     1.0  0.38233  0.77629  0.90899  1.0000
  H   H2236     1.0  0.37196  0.88457  0.85106  1.0000
  C   C2271     1.0  0.21794  0.91097  0.91094  1.0000
  H   H2237     1.0  0.34772  0.53255  0.81898  1.0000
  H   H2238     1.0  0.38448  0.79767  0.90385  1.0000
  H   H2239     1.0  0.32834  0.95120  0.83791  1.0000
  C   C2272     1.0  0.23422  0.51822  0.90369  1.0000
  H   H2240     1.0  0.37457  0.63978  0.94576  1.0000
  H   H2241     1.0  0.49301  0.52005  0.86127  1.0000
  N   N192      1.0  0.47711  0.87026  0.91637  1.0000
  C   C2273     1.0  0.32168  0.98480  0.82242  1.0000
  H   H2242     1.0  0.20771  0.48927  0.85675  1.0000
  N   N193      1.0  0.10251  0.61445  0.87461  1.0000
  C   C2274     1.0  0.09774  0.60636  0.86514  1.0000
  C   C2275     1.0  0.09076  0.62639  0.88244  1.0000
  C   C2276     1.0  0.08076  0.61009  0.86343  1.0000
  C   C2277     1.0  0.07364  0.63026  0.88119  1.0000
  C   C2278     1.0  0.06866  0.62215  0.87149  1.0000
  C   C2279     1.0  0.12052  0.61091  0.87551  1.0000
  H   H2243     1.0  0.10718  0.59729  0.85849  1.0000
  H   H2244     1.0  0.09460  0.63312  0.88960  1.0000
  H   H2245     1.0  0.07711  0.60413  0.85544  1.0000
  H   H2246     1.0  0.06440  0.63970  0.88751  1.0000
  H   H2247     1.0  0.05556  0.62546  0.86989  1.0000
  H   H2248     1.0  0.12593  0.59706  0.87787  1.0000
  H   H2249     1.0  0.12792  0.61708  0.86336  1.0000
  H   H2250     1.0  0.12214  0.61571  0.88592  1.0000
  N   N194      1.0  0.08848  0.73301  0.92097  1.0000
  C   C2280     1.0  0.09276  0.73632  0.93413  1.0000
  H   H2251     1.0  0.43747  0.98291  0.80470  1.0000
  C   C2281     1.0  0.39146  0.52010  0.78542  1.0000
  S   S769      1.0  0.26370  0.98111  0.86412  1.0000
  H   H2252     1.0  0.46977  0.74899  0.89744  1.0000
  H   H2253     1.0  0.19418  0.93646  0.80788  1.0000
  N   N195      1.0  0.08324  0.89530  0.82949  1.0000
  C   C2282     1.0  0.09783  0.88405  0.82420  1.0000
  C   C2283     1.0  0.08089  0.91201  0.82150  1.0000
  H   H2254     1.0  0.45514  0.87825  0.93451  1.0000
  H   H2255     1.0  0.37629  0.88818  0.82873  1.0000
  H   H2256     1.0  0.47141  0.89348  0.89870  1.0000
  C   C2284     1.0  0.15001  0.49269  0.89672  1.0000
  H   H2257     1.0  0.21594  0.98022  0.91642  1.0000
  H   H2258     1.0  0.06919  0.92084  0.82551  1.0000
  H   H2259     1.0  0.36065  0.88136  0.93436  1.0000
  H   H2260     1.0  0.11992  0.87927  0.91025  1.0000
  C   C2285     1.0  0.19174  0.95291  0.83191  1.0000
  H   H2261     1.0  0.12804  0.51844  0.82363  1.0000
  C   C2286     1.0  0.21935  0.96554  0.94109  1.0000
  H   H2262     1.0  0.48144  0.66279  0.79720  1.0000
  H   H2263     1.0  0.46663  0.68975  0.95357  1.0000
  H   H2264     1.0  0.09391  0.87655  0.97098  1.0000
  N   N196      1.0  0.32948  0.52819  0.94849  1.0000
  C   C2287     1.0  0.34994  0.51950  0.81706  1.0000
  C   C2288     1.0  0.31497  0.97685  0.81387  1.0000
  H   H2265     1.0  0.17180  0.93641  0.81230  1.0000
  H   H2266     1.0  0.26181  0.98042  0.93031  1.0000
  C   C2289     1.0  0.38131  0.67278  0.97996  1.0000
  H   H2267     1.0  0.19860  0.96722  0.84586  1.0000
  H   H2268     1.0  0.05755  0.89266  0.83977  1.0000
  H   H2269     1.0  0.48400  0.84545  0.93122  1.0000
  C   C2290     1.0  0.02963  0.78906  0.85276  1.0000
  H   H2270     1.0  0.33761  0.51769  0.81578  1.0000
  H   H2271     1.0  0.06232  0.78901  0.83750  1.0000
  N   N197      1.0  0.11442  0.88290  0.95056  1.0000
  C   C2291     1.0  0.12169  0.88369  0.93376  1.0000
  C   C2292     1.0  0.09963  0.87711  0.95764  1.0000
  C   C2293     1.0  0.11413  0.87859  0.92357  1.0000
  C   C2294     1.0  0.09172  0.87189  0.94780  1.0000
  C   C2295     1.0  0.09905  0.87267  0.93064  1.0000
  C   C2296     1.0  0.12229  0.88837  0.96118  1.0000
  H   H2272     1.0  0.15203  0.95585  0.82742  1.0000
  H   H2273     1.0  0.08398  0.67426  0.96954  1.0000
  C   C2297     1.0  0.43450  0.52338  0.79093  1.0000
  H   H2274     1.0  0.08000  0.86731  0.95344  1.0000
  H   H2275     1.0  0.07067  0.49016  0.83753  1.0000
  N   N198      1.0  0.23020  0.50237  0.90346  1.0000
  H   H2276     1.0  0.45823  0.69047  0.98412  1.0000
  H   H2277     1.0  0.48792  0.91680  0.79874  1.0000
  C   C2298     1.0  0.34838  0.89672  0.95295  1.0000
  H   H2278     1.0  0.00160  0.76639  0.88060  1.0000
  H   H2279     1.0  0.49752  0.83236  0.90652  1.0000
  H   H2280     1.0  0.06738  0.76848  0.83314  1.0000
  C   C2299     1.0  0.46908  0.87796  0.93107  1.0000
  H   H2281     1.0  0.13939  0.57590  0.96454  1.0000
  C   C2300     1.0  0.35386  0.98134  0.98281  1.0000
  C   C2301     1.0  0.00921  0.57386  0.81407  1.0000
  H   H2282     1.0  0.47118  0.89102  0.92841  1.0000
  C   C2302     1.0  0.35615  0.79926  0.86139  1.0000
  H   H2283     1.0  0.36453  0.79231  0.91664  1.0000
  N   N199      1.0  0.36296  0.90995  0.83881  1.0000
  C   C2303     1.0  0.36011  0.91996  0.82360  1.0000
  C   C2304     1.0  0.35449  0.91505  0.85355  1.0000
  C   C2305     1.0  0.34765  0.93502  0.82301  1.0000
  C   C2306     1.0  0.34195  0.93000  0.85343  1.0000
  C   C2307     1.0  0.33834  0.93986  0.83808  1.0000
  C   C2308     1.0  0.37560  0.89396  0.83933  1.0000
  H   H2284     1.0  0.36739  0.91623  0.81185  1.0000
  H   H2285     1.0  0.35718  0.90738  0.86555  1.0000
  H   H2286     1.0  0.34513  0.94284  0.81099  1.0000
  H   H2287     1.0  0.32232  0.50428  0.95920  1.0000
  H   H2288     1.0  0.15558  0.50722  0.84833  1.0000
  C   C2309     1.0  0.37794  0.52316  0.79912  1.0000
  H   H2289     1.0  0.38838  0.89610  0.83876  1.0000
  C   C2310     1.0  0.33194  0.52144  0.91725  1.0000
  C   C2311     1.0  0.47918  0.92504  0.79042  1.0000
  C   C2312     1.0  0.47173  0.66746  0.82235  1.0000
  H   H2290     1.0  0.00273  0.83248  0.88826  1.0000
  H   H2291     1.0  0.33635  0.55158  0.93457  1.0000
  H   H2292     1.0  0.04115  0.88288  0.81765  1.0000
  H   H2293     1.0  0.16019  0.56432  0.95591  1.0000
  H   H2294     1.0  0.45260  0.78120  0.86257  1.0000
  H   H2295     1.0  0.17368  0.56786  0.82136  1.0000
  N   N200      1.0  0.20560  0.91716  0.92359  1.0000
  C   C2313     1.0  0.05698  0.77997  0.83401  1.0000
  C   C2314     1.0  0.16095  0.49716  0.90401  1.0000
  N   N201      1.0  0.04172  0.77616  0.84673  1.0000
  C   C2315     1.0  0.22404  0.97629  0.92558  1.0000
  C   C2316     1.0  0.20906  0.92852  0.93213  1.0000
  C   C2317     1.0  0.03030  0.58514  0.79065  1.0000
  S   S770      1.0  0.05784  0.49946  0.80705  1.0000
  N   N202      1.0  0.46211  0.75547  0.87372  1.0000
  H   H2296     1.0  0.36285  0.66040  0.93697  1.0000
  C   C2318     1.0  0.45462  0.76801  0.86208  1.0000
  S   S771      1.0  0.30394  0.96617  0.86834  1.0000
  H   H2297     1.0  0.17981  0.91880  0.93748  1.0000
  N   N203      1.0  0.36364  0.51677  0.80219  1.0000
  H   H2298     1.0  0.33881  0.54572  0.90668  1.0000
  H   H2299     1.0  0.23047  0.91408  0.90742  1.0000
  H   H2300     1.0  0.44205  0.77396  0.84121  1.0000
  C   C2319     1.0  0.01501  0.78575  0.86498  1.0000
  C   C2320     1.0  0.03412  0.53930  0.79207  1.0000
  H   H2301     1.0  0.49773  0.85005  0.87747  1.0000
  C   C2321     1.0  0.45884  0.73439  0.86116  1.0000
  H   H2302     1.0  0.17415  0.50251  0.86844  1.0000
  C   C2322     1.0  0.32728  0.50980  0.93212  1.0000
  C   C2323     1.0  0.09804  0.73803  0.90366  1.0000
  C   C2324     1.0  0.35837  0.88213  0.94750  1.0000
  H   H2303     1.0  0.12187  0.88042  0.80614  1.0000
  H   H2304     1.0  0.35247  0.64697  0.95510  1.0000
  C   C2325     1.0  0.25640  0.95929  0.96084  1.0000
  H   H2305     1.0  0.37084  0.76669  0.89146  1.0000
  H   H2306     1.0  0.47472  0.87072  0.94216  1.0000
  H   H2307     1.0  0.37968  0.91263  0.98184  1.0000
  C   C2326     1.0  0.21430  0.90129  0.90174  1.0000
  C   C2327     1.0  0.36473  0.65108  0.94888  1.0000
  H   H2308     1.0  0.22231  0.52754  0.90754  1.0000
  H   H2309     1.0  0.36470  0.81971  0.88668  1.0000
  H   H2310     1.0  0.04906  0.74957  0.84762  1.0000
  H   H2311     1.0  0.44547  0.74375  0.84071  1.0000
  C   C2328     1.0  0.18957  0.91390  0.92747  1.0000
  H   H2312     1.0  0.49357  0.57296  0.84438  1.0000
  H   H2313     1.0  0.12070  0.49943  0.82546  1.0000
  C   C2329     1.0  0.18340  0.52540  0.85649  1.0000
  N   N204      1.0  0.48972  0.65308  0.84223  1.0000
  H   H2314     1.0  0.33850  0.90900  0.97415  1.0000
  C   C2330     1.0  0.18539  0.90453  0.91835  1.0000
  H   H2315     1.0  0.14540  0.97778  0.84398  1.0000
  H   H2316     1.0  0.14641  0.55421  0.97431  1.0000
  C   C2331     1.0  0.17301  0.55647  0.81745  1.0000
  C   C2332     1.0  0.43388  0.49647  0.78576  1.0000
  H   H2317     1.0  0.06484  0.53019  0.82319  1.0000
  H   H2318     1.0  0.35386  0.82566  0.86074  1.0000
  C   C2333     1.0  0.34625  0.98706  0.79885  1.0000
  C   C2334     1.0  0.06594  0.72029  0.94027  1.0000
  S   S772      1.0  0.10303  0.60094  0.79845  1.0000
  H   H2319     1.0  0.11174  0.73689  0.90341  1.0000
  C   C2335     1.0  0.46409  0.97963  0.79205  1.0000
  C   C2336     1.0  0.32603  0.51342  0.94773  1.0000
  S   S773      1.0  0.47118  0.98142  0.80913  1.0000
  H   H2320     1.0  0.03129  0.80200  0.84828  1.0000
  C   C2337     1.0  0.29449  0.61388  0.97541  1.0000
  C   C2338     1.0  0.36370  0.80920  0.88213  1.0000
  C   C2339     1.0  0.09333  0.91787  0.80780  1.0000
  C   C2340     1.0  0.36250  0.50711  0.79199  1.0000
  H   H2321     1.0  0.20466  0.94540  0.82920  1.0000
  H   H2322     1.0  0.11341  0.89937  0.96603  1.0000
  H   H2323     1.0  0.02921  0.52771  0.79404  1.0000
  H   H2324     1.0  0.08759  0.73361  0.96125  1.0000
  S   S774      1.0  0.45636  0.84361  0.96241  1.0000
  C   C2341     1.0  0.23020  0.96012  0.95250  1.0000
  H   H2325     1.0  0.03657  0.53926  0.80443  1.0000
  H   H2326     1.0  0.20739  0.96140  0.94423  1.0000
  Fe  Fe387     1.0  0.27951  0.98027  0.88208  1.0000
  H   H2327     1.0  0.20859  0.51501  0.89251  1.0000
  C   C2342     1.0  0.07397  0.52943  0.83060  1.0000
  H   H2328     1.0  0.33293  0.51881  0.90506  1.0000
  C   C2343     1.0  0.09748  0.52719  0.84939  1.0000
  H   H2329     1.0  0.35341  0.51026  0.82851  1.0000
  H   H2330     1.0  0.45762  0.77010  0.89212  1.0000
  C   C2344     1.0  0.40742  0.90167  0.79504  1.0000
  C   C2345     1.0  0.09084  0.52039  0.82667  1.0000
  C   C2346     1.0  0.06895  0.53754  0.84413  1.0000
  H   H2331     1.0  0.22391  0.89690  0.89132  1.0000
  N   N205      1.0  0.15442  0.64236  0.87973  1.0000
  C   C2347     1.0  0.15156  0.65965  0.87525  1.0000
  C   C2348     1.0  0.15624  0.63410  0.89577  1.0000
  C   C2349     1.0  0.15048  0.66909  0.88702  1.0000
  C   C2350     1.0  0.15532  0.64311  0.90780  1.0000
  C   C2351     1.0  0.15248  0.66070  0.90336  1.0000
  C   C2352     1.0  0.15660  0.63259  0.86701  1.0000
  H   H2332     1.0  0.14982  0.66621  0.86261  1.0000
  H   H2333     1.0  0.15830  0.62045  0.89943  1.0000
  H   H2334     1.0  0.14782  0.68282  0.88366  1.0000
  H   H2335     1.0  0.15669  0.63644  0.92052  1.0000
  H   H2336     1.0  0.15158  0.66784  0.91266  1.0000
  H   H2337     1.0  0.14816  0.63925  0.85793  1.0000
  H   H2338     1.0  0.17010  0.63048  0.85988  1.0000
  S   S775      1.0  0.17326  0.95762  0.95371  1.0000
  H   H2339     1.0  0.39114  0.66586  0.94019  1.0000
  C   C2353     1.0  0.36686  0.77968  0.88495  1.0000
  C   C2354     1.0  0.32361  0.97461  0.79760  1.0000
  H   H2340     1.0  0.31835  0.96868  0.79084  1.0000
  C   C2355     1.0  0.17375  0.51359  0.85818  1.0000
  H   H2341     1.0  0.06839  0.89575  0.85434  1.0000
  S   S776      1.0  0.32213  0.57643  0.95487  1.0000
  H   H2342     1.0  0.34074  0.60284  0.93797  1.0000
  C   C2356     1.0  0.15078  0.56619  0.96785  1.0000
  H   H2343     1.0  0.46056  0.72118  0.86096  1.0000
  H   H2344     1.0  0.45139  0.79000  0.97221  1.0000
  S   S777      1.0  0.04031  0.86115  0.85053  1.0000
  H   H2345     1.0  0.35582  0.61799  0.94856  1.0000
  C   C2357     1.0  0.07494  0.72557  0.92380  1.0000
  C   C2358     1.0  0.33334  0.58676  0.96225  1.0000
  H   H2346     1.0  0.47110  0.54852  0.80843  1.0000
  C   C2359     1.0  0.34963  0.60823  0.95724  1.0000
  H   H2347     1.0  0.02776  0.91323  0.80915  1.0000
  H   H2348     1.0  0.28245  0.59252  0.96682  1.0000
  H   H2349     1.0  0.36022  0.77207  0.86548  1.0000
  C   C2360     1.0  0.16331  0.53037  0.83341  1.0000
  C   C2361     1.0  0.09390  0.68138  0.96345  1.0000
  C   C2362     1.0  0.21653  0.50295  0.89709  1.0000
  H   H2350     1.0  0.10670  0.52669  0.85659  1.0000
  C   C2363     1.0  0.33526  0.53653  0.91816  1.0000
  H   H2351     1.0  0.26527  0.61073  0.96312  1.0000
  C   C2364     1.0  0.03941  0.75988  0.85220  1.0000
  C   C2365     1.0  0.38432  0.66573  0.95321  1.0000
  C   C2366     1.0  0.19785  0.89825  0.90535  1.0000
  N   N206      1.0  0.17289  0.54187  0.83176  1.0000
  C   C2367     1.0  0.08079  0.53655  0.85352  1.0000
  H   H2352     1.0  0.16876  0.98350  0.85351  1.0000
  H   H2353     1.0  0.15104  0.93429  0.97137  1.0000
  H   H2354     1.0  0.12495  0.50331  0.84356  1.0000
  H   H2355     1.0  0.22653  0.95164  0.96449  1.0000
  H   H2356     1.0  0.05594  0.54473  0.84722  1.0000
  H   H2357     1.0  0.43095  0.63411  0.79450  1.0000
  H   H2358     1.0  0.20427  0.94187  0.92602  1.0000
  C   C2368     1.0  0.47550  0.68318  0.96181  1.0000
  H   H2359     1.0  0.09958  0.87073  0.83034  1.0000
  C   C2369     1.0  0.47494  0.66384  0.83857  1.0000
  H   H2360     1.0  0.35160  0.80174  0.84985  1.0000
  H   H2361     1.0  0.19467  0.89144  0.89777  1.0000
  C   C2370     1.0  0.18837  0.96519  0.84142  1.0000
  H   H2362     1.0  0.02363  0.74306  0.86931  1.0000
  S   S778      1.0  0.43217  0.53594  0.80532  1.0000
  S   S779      1.0  0.06356  0.60545  0.79480  1.0000
  C   C2371     1.0  0.11171  0.69928  0.96464  1.0000
  H   H2363     1.0  0.47463  0.52321  0.84146  1.0000
  C   C2372     1.0  0.36583  0.86862  0.95900  1.0000
  Fe  Fe388     1.0  0.17636  0.94551  0.98030  1.0000
  H   H2364     1.0  0.33491  0.93376  0.86520  1.0000
  H   H2365     1.0  0.20250  0.92640  0.94569  1.0000
  H   H2366     1.0  0.30250  0.60954  0.96424  1.0000
  H   H2367     1.0  0.10340  0.74235  0.93188  1.0000
  C   C2373     1.0  0.08382  0.73150  0.95075  1.0000
  H   H2368     1.0  0.31411  0.62403  0.97910  1.0000
  H   H2369     1.0  0.05567  0.71377  0.94248  1.0000
  H   H2370     1.0  0.48079  0.65013  0.86899  1.0000
  H   H2371     1.0  0.13332  0.88840  0.92809  1.0000
  H   H2372     1.0  0.47974  0.76454  0.88118  1.0000
  C   C2374     1.0  0.47819  0.53430  0.84255  1.0000
  H   H2373     1.0  0.22299  0.92663  0.93140  1.0000
  Fe  Fe389     1.0  0.42749  0.56400  0.79458  1.0000
  C   C2375     1.0  0.48413  0.85328  0.91861  1.0000
  C   C2376     1.0  0.49558  0.69833  0.89906  1.0000
  H   H2374     1.0  0.35101  0.65205  0.98146  1.0000
  C   C2377     1.0  0.01274  0.76915  0.87092  1.0000
  C   C2378     1.0  0.09856  0.69046  0.97253  1.0000
  C   C2379     1.0  0.44864  0.76400  0.84995  1.0000
  H   H2375     1.0  0.11552  0.70618  0.97161  1.0000
  C   C2380     1.0  0.18286  0.53954  0.84307  1.0000
  N   N207      1.0  0.37033  0.65854  0.95971  1.0000
  C   C2381     1.0  0.48901  0.56211  0.84420  1.0000
  H   H2376     1.0  0.16109  0.55981  0.81256  1.0000
  H   H2377     1.0  0.34266  0.90734  0.94409  1.0000
  C   C2382     1.0  0.45056  0.74706  0.84968  1.0000
  H   H2378     1.0  0.15329  0.59763  0.96597  1.0000
  H   H2379     1.0  0.19115  0.52362  0.86557  1.0000
  H   H2380     1.0  0.00560  0.79602  0.86987  1.0000
  C   C2383     1.0  0.34995  0.60438  0.97442  1.0000
  C   C2384     1.0  0.06791  0.91355  0.78520  1.0000
  H   H2381     1.0  0.24099  0.52379  0.89089  1.0000
  H   H2382     1.0  0.31490  0.98690  0.83484  1.0000
  C   C2385     1.0  0.46268  0.55137  0.82051  1.0000
  C   C2386     1.0  0.05074  0.91972  0.79218  1.0000
  H   H2383     1.0  0.06407  0.71867  0.96673  1.0000
  C   C2387     1.0  0.49176  0.67444  0.95524  1.0000
  S   S780      1.0  0.04105  0.94121  0.78631  1.0000
  H   H2384     1.0  0.12509  0.87794  0.97211  1.0000
  H   H2385     1.0  0.33754  0.53889  0.96445  1.0000
  H   H2386     1.0  0.31482  0.54048  0.96831  1.0000
  C   C2388     1.0  0.47087  0.68372  0.97889  1.0000
  H   H2387     1.0  0.37391  0.84335  0.98399  1.0000
  N   N208      1.0  0.36341  0.86958  0.97548  1.0000
  H   H2388     1.0  0.02416  0.55068  0.78863  1.0000
  C   C2389     1.0  0.35358  0.88381  0.98094  1.0000
  C   C2390     1.0  0.48853  0.53244  0.85383  1.0000
  C   C2391     1.0  0.33373  0.58280  0.97941  1.0000
  C   C2392     1.0  0.39002  0.67297  0.96321  1.0000
  H   H2389     1.0  0.35119  0.96964  0.98126  1.0000
  N   N209      1.0  0.15859  0.57163  0.97854  1.0000
  N   N210      1.0  0.49857  0.66692  0.98266  1.0000
  H   H2390     1.0  0.05868  0.96987  0.82366  1.0000
  H   H2391     1.0  0.40113  0.67863  0.95801  1.0000
  C   C2393     1.0  0.00079  0.59025  0.78794  1.0000
  H   H2392     1.0  0.26271  0.59428  0.98216  1.0000
  C   C2394     1.0  0.30104  0.62225  0.98366  1.0000
  C   C2395     1.0  0.55792  0.22519  0.10855  1.0000
  C   C2396     1.0  0.71255  0.00047  0.05370  1.0000
  N   N211      1.0  0.74556  0.43991  0.04299  1.0000
  H   H2393     1.0  0.98749  0.17338  0.05100  1.0000
  Fe  Fe390     1.0  0.91302  0.10271  0.14780  1.0000
  H   H2394     1.0  0.57614  0.20129  0.11024  1.0000
  S   S781      1.0  0.93466  0.11547  0.13287  1.0000
  Fe  Fe391     1.0  0.77954  0.47678  0.08841  1.0000
  Fe  Fe392     1.0  0.87623  0.10423  0.14835  1.0000
  S   S782      1.0  0.85754  0.12150  0.13288  1.0000
  C   C2397     1.0  0.56128  0.38735  0.00964  1.0000
  S   S783      1.0  0.90100  0.09102  0.13435  1.0000
  Fe  Fe393     1.0  0.80791  0.12903  0.03463  1.0000
  S   S784      1.0  0.79078  0.15284  0.04164  1.0000
  S   S785      1.0  0.81434  0.12965  0.00670  1.0000
  Fe  Fe394     1.0  0.81338  0.11405  0.07039  1.0000
  S   S786      1.0  0.79652  0.13671  0.08003  1.0000
  S   S787      1.0  0.82586  0.09266  0.08900  1.0000
  Fe  Fe395     1.0  0.77894  0.13558  0.06457  1.0000
  S   S788      1.0  0.75046  0.14165  0.07497  1.0000
  Fe  Fe396     1.0  0.81003  0.15164  0.05629  1.0000
  S   S789      1.0  0.81728  0.17565  0.05607  1.0000
  S   S790      1.0  0.79466  0.11161  0.05664  1.0000
  S   S791      1.0  0.82821  0.12907  0.04755  1.0000
  Fe  Fe397     1.0  0.90557  0.20412  0.08121  1.0000
  S   S792      1.0  0.92400  0.19192  0.06086  1.0000
  S   S793      1.0  0.90539  0.19379  0.10892  1.0000
  Fe  Fe398     1.0  0.88837  0.23287  0.05602  1.0000
  S   S794      1.0  0.90516  0.22247  0.03374  1.0000
  S   S795      1.0  0.86898  0.25718  0.05021  1.0000
  Fe  Fe399     1.0  0.90090  0.19721  0.04974  1.0000
  S   S796      1.0  0.89595  0.17623  0.04112  1.0000
  Fe  Fe400     1.0  0.92637  0.21830  0.04709  1.0000
  C   C2398     1.0  0.81550  0.47958  0.10248  1.0000
  S   S797      1.0  0.88222  0.20789  0.07101  1.0000
  S   S798      1.0  0.90983  0.23024  0.06844  1.0000
  C   C2399     1.0  0.96557  0.17469  0.10187  1.0000
  H   H2395     1.0  0.58276  0.12809  0.15843  1.0000
  Fe  Fe401     1.0  0.63910  0.45443  0.03966  1.0000
  Fe  Fe402     1.0  0.88853  0.09426  0.18137  1.0000
  H   H2396     1.0  0.84145  0.38816  0.10235  1.0000
  S   S799      1.0  0.66722  0.01134  0.05999  1.0000
  C   C2400     1.0  0.60911  0.12795  0.05448  1.0000
  C   C2401     1.0  0.90526  0.28687  0.00133  1.0000
  C   C2402     1.0  0.58209  0.15082  0.06911  1.0000
  H   H2397     1.0  0.59135  0.43979  0.01566  1.0000
  Fe  Fe403     1.0  0.54716  0.12264  0.17260  1.0000
  S   S800      1.0  0.85606  0.00424  0.14947  1.0000
  S   S801      1.0  0.55581  0.14942  0.13281  1.0000
  H   H2398     1.0  0.67924  0.47149  0.05942  1.0000
  H   H2399     1.0  0.90356  0.27637  0.99724  1.0000
  C   C2403     1.0  0.69060  0.46835  0.06440  1.0000
  C   C2404     1.0  0.97176  0.11838  0.17481  1.0000
  C   C2405     1.0  0.83744  0.42866  0.10508  1.0000
  Fe  Fe404     1.0  0.53881  0.23673  0.02902  1.0000
  S   S802      1.0  0.56583  0.24009  0.02229  1.0000
  S   S803      1.0  0.52530  0.24246  0.00754  1.0000
  Fe  Fe405     1.0  0.53787  0.22797  0.06669  1.0000
  S   S804      1.0  0.56477  0.23081  0.06284  1.0000
  S   S805      1.0  0.52266  0.22141  0.09330  1.0000
  Fe  Fe406     1.0  0.55749  0.25401  0.04339  1.0000
  S   S806      1.0  0.56590  0.27831  0.03978  1.0000
  Fe  Fe407     1.0  0.57049  0.21657  0.04234  1.0000
  S   S807      1.0  0.59380  0.19587  0.03731  1.0000
  S   S808      1.0  0.52999  0.25246  0.04876  1.0000
  S   S809      1.0  0.54400  0.21194  0.04752  1.0000
  Fe  Fe408     1.0  0.67408  0.10183  0.08589  1.0000
  S   S810      1.0  0.65169  0.11537  0.07360  1.0000
  S   S811      1.0  0.70159  0.09741  0.07127  1.0000
  Fe  Fe409     1.0  0.65113  0.09094  0.12018  1.0000
  S   S812      1.0  0.62710  0.10360  0.11091  1.0000
  S   S813      1.0  0.65180  0.07405  0.14590  1.0000
  Fe  Fe410     1.0  0.64033  0.09289  0.08800  1.0000
  S   S814      1.0  0.62462  0.08076  0.07888  1.0000
  Fe  Fe411     1.0  0.64044  0.12498  0.09759  1.0000
  S   S815      1.0  0.62450  0.15088  0.10009  1.0000
  S   S816      1.0  0.66350  0.07849  0.09821  1.0000
  S   S817      1.0  0.66371  0.11318  0.10890  1.0000
  Fe  Fe412     1.0  0.50917  0.46861  0.15652  1.0000
  H   H2400     1.0  0.91046  0.32435  0.01622  1.0000
  S   S818      1.0  0.61349  0.48034  0.09094  1.0000
  H   H2401     1.0  0.97176  0.39592  0.12562  1.0000
  Fe  Fe413     1.0  0.54367  0.46283  0.16528  1.0000
  S   S819      1.0  0.57028  0.44716  0.16022  1.0000
  Fe  Fe414     1.0  0.66396  0.44128  0.06313  1.0000
  S   S820      1.0  0.69127  0.43496  0.06632  1.0000
  Fe  Fe415     1.0  0.63255  0.42618  0.06972  1.0000
  S   S821      1.0  0.61594  0.45108  0.06046  1.0000
  S   S822      1.0  0.62191  0.40279  0.08149  1.0000
  Fe  Fe416     1.0  0.62825  0.46126  0.07506  1.0000
  S   S823      1.0  0.65496  0.42864  0.04787  1.0000
  S   S824      1.0  0.64322  0.43603  0.08592  1.0000
  Fe  Fe417     1.0  0.52271  0.38260  0.10126  1.0000
  S   S825      1.0  0.52285  0.40129  0.07654  1.0000
  S   S826      1.0  0.51885  0.38830  0.12687  1.0000
  Fe  Fe418     1.0  0.52871  0.35230  0.08521  1.0000
  S   S827      1.0  0.52984  0.36841  0.05906  1.0000
  S   S828      1.0  0.52659  0.32498  0.09199  1.0000
  Fe  Fe419     1.0  0.54541  0.38206  0.06665  1.0000
  S   S829      1.0  0.56737  0.39208  0.04790  1.0000
  Fe  Fe420     1.0  0.50734  0.38606  0.07117  1.0000
  H   H2402     1.0  0.86429  0.34729  0.99597  1.0000
  S   S830      1.0  0.54644  0.36424  0.09186  1.0000
  S   S831      1.0  0.50509  0.36913  0.09687  1.0000
  H   H2403     1.0  0.49951  0.44999  0.10994  1.0000
  H   H2404     1.0  0.95933  0.37266  0.14613  1.0000
  H   H2405     1.0  0.82777  0.17355  0.02232  1.0000
  S   S832      1.0  0.78824  0.46377  0.11259  1.0000
  Fe  Fe421     1.0  0.78282  0.47344  0.05311  1.0000
  S   S833      1.0  0.79561  0.45781  0.03348  1.0000
  S   S834      1.0  0.76627  0.46344  0.07773  1.0000
  Fe  Fe422     1.0  0.91047  0.44087  0.12829  1.0000
  S   S835      1.0  0.90542  0.41592  0.14399  1.0000
  S   S836      1.0  0.93759  0.44414  0.11732  1.0000
  Fe  Fe423     1.0  0.87247  0.45668  0.13271  1.0000
  S   S837      1.0  0.86462  0.43297  0.14957  1.0000
  C   C2406     1.0  0.95622  0.19018  0.09448  1.0000
  Fe  Fe424     1.0  0.88635  0.43123  0.16158  1.0000
  C   C2407     1.0  0.57385  0.99623  0.12191  1.0000
  Fe  Fe425     1.0  0.88462  0.42024  0.13029  1.0000
  S   S838      1.0  0.88230  0.39799  0.12166  1.0000
  S   S839      1.0  0.89241  0.45613  0.14644  1.0000
  S   S840      1.0  0.89133  0.44396  0.11284  1.0000
  Fe  Fe426     1.0  0.83857  0.37302  0.04585  1.0000
  S   S841      1.0  0.84908  0.39409  0.02699  1.0000
  S   S842      1.0  0.81131  0.37870  0.05976  1.0000
  Fe  Fe427     1.0  0.87303  0.34909  0.04327  1.0000
  S   S843      1.0  0.88666  0.36840  0.02437  1.0000
  S   S844      1.0  0.88784  0.32365  0.05427  1.0000
  Fe  Fe428     1.0  0.87037  0.38644  0.04072  1.0000
  S   S845      1.0  0.87726  0.40840  0.04579  1.0000
  Fe  Fe429     1.0  0.86415  0.37431  0.01232  1.0000
  S   S846      1.0  0.85877  0.36669  0.06077  1.0000
  S   S847      1.0  0.85156  0.35366  0.03005  1.0000
  C   C2408     1.0  0.57818  0.47416  0.13477  1.0000
  Fe  Fe430     1.0  0.89974  0.07016  0.15759  1.0000
  S   S848      1.0  0.88838  0.11738  0.16040  1.0000
  C   C2409     1.0  0.72533  0.11364  0.01936  1.0000
  C   C2410     1.0  0.95105  0.43293  0.13140  1.0000
  C   C2411     1.0  0.96866  0.43256  0.12666  1.0000
  C   C2412     1.0  0.97942  0.42311  0.13783  1.0000
  C   C2413     1.0  0.97252  0.41389  0.15362  1.0000
  C   C2414     1.0  0.95500  0.41420  0.15821  1.0000
  C   C2415     1.0  0.94429  0.42392  0.14728  1.0000
  H   H2406     1.0  0.97398  0.43957  0.11438  1.0000
  C   C2416     1.0  0.91607  0.26658  0.02500  1.0000
  S   S849      1.0  0.53507  0.48287  0.18058  1.0000
  H   H2407     1.0  0.93072  0.42473  0.15143  1.0000
  C   C2417     1.0  0.88200  0.40098  0.10023  1.0000
  C   C2418     1.0  0.88053  0.41707  0.08960  1.0000
  C   C2419     1.0  0.87961  0.41919  0.07273  1.0000
  C   C2420     1.0  0.87996  0.40525  0.06648  1.0000
  C   C2421     1.0  0.88172  0.38912  0.07702  1.0000
  C   C2422     1.0  0.88272  0.38700  0.09386  1.0000
  H   H2408     1.0  0.87960  0.42798  0.09444  1.0000
  H   H2409     1.0  0.87824  0.43171  0.06464  1.0000
  H   H2410     1.0  0.88241  0.37825  0.07219  1.0000
  H   H2411     1.0  0.88394  0.37450  0.10200  1.0000
  C   C2423     1.0  0.79833  0.43587  0.04129  1.0000
  C   C2424     1.0  0.79638  0.42886  0.05864  1.0000
  C   C2425     1.0  0.79942  0.41121  0.06449  1.0000
  C   C2426     1.0  0.80461  0.40059  0.05296  1.0000
  C   C2427     1.0  0.80622  0.40763  0.03567  1.0000
  C   C2428     1.0  0.80296  0.42522  0.02987  1.0000
  H   H2412     1.0  0.79317  0.43694  0.06754  1.0000
  H   H2413     1.0  0.79843  0.40580  0.07786  1.0000
  H   H2414     1.0  0.81028  0.39946  0.02671  1.0000
  H   H2415     1.0  0.80423  0.43052  0.01648  1.0000
  C   C2429     1.0  0.86069  0.17280  0.98799  1.0000
  N   N212      1.0  0.74135  0.13556  0.02579  1.0000
  H   H2416     1.0  0.62871  0.00161  0.11046  1.0000
  C   C2430     1.0  0.80686  0.46810  0.11491  1.0000
  C   C2431     1.0  0.81301  0.46001  0.12964  1.0000
  C   C2432     1.0  0.82776  0.46334  0.13195  1.0000
  H   H2417     1.0  0.76727  0.41964  0.04143  1.0000
  H   H2418     1.0  0.52984  0.24723  0.11689  1.0000
  H   H2419     1.0  0.80630  0.45122  0.13934  1.0000
  H   H2420     1.0  0.83222  0.45731  0.14352  1.0000
  H   H2421     1.0  0.82044  0.45375  0.00046  1.0000
  C   C2433     1.0  0.83941  0.40184  0.09870  1.0000
  S   S850      1.0  0.98500  0.40255  0.16844  1.0000
  Fe  Fe431     1.0  0.74809  0.48848  0.07294  1.0000
  H   H2422     1.0  0.94958  0.40724  0.17048  1.0000
  C   C2434     1.0  0.58473  0.43666  0.09888  1.0000
  C   C2435     1.0  0.83019  0.48303  0.10486  1.0000
  C   C2436     1.0  0.69888  0.45145  0.06893  1.0000
  C   C2437     1.0  0.71385  0.44760  0.07509  1.0000
  C   C2438     1.0  0.72054  0.46060  0.07666  1.0000
  H   H2423     1.0  0.73191  0.45751  0.08170  1.0000
  C   C2439     1.0  0.60711  0.39975  0.07180  1.0000
  C   C2440     1.0  0.60357  0.41051  0.05669  1.0000
  C   C2441     1.0  0.59144  0.40797  0.04936  1.0000
  C   C2442     1.0  0.58256  0.39494  0.05727  1.0000
  C   C2443     1.0  0.58604  0.38426  0.07243  1.0000
  C   C2444     1.0  0.59842  0.38656  0.07958  1.0000
  H   H2424     1.0  0.61018  0.42074  0.05064  1.0000
  H   H2425     1.0  0.58872  0.41626  0.03769  1.0000
  H   H2426     1.0  0.57951  0.37397  0.07845  1.0000
  H   H2427     1.0  0.60118  0.37817  0.09125  1.0000
  S   S851      1.0  0.87375  0.08236  0.17069  1.0000
  H   H2428     1.0  0.91179  0.00797  0.15581  1.0000
  C   C2445     1.0  0.50878  0.42298  0.11670  1.0000
  C   C2446     1.0  0.51347  0.40927  0.12954  1.0000
  C   C2447     1.0  0.51330  0.41213  0.14523  1.0000
  C   C2448     1.0  0.57690  0.37284  0.98710  1.0000
  C   C2449     1.0  0.73170  0.43899  0.03775  1.0000
  C   C2450     1.0  0.50350  0.43945  0.11976  1.0000
  C   C2451     1.0  0.73983  0.47008  0.03285  1.0000
  H   H2429     1.0  0.93248  0.36699  0.14312  1.0000
  C   C2452     1.0  0.58302  0.45692  0.14183  1.0000
  C   C2453     1.0  0.60722  0.45429  0.11813  1.0000
  C   C2454     1.0  0.59779  0.44711  0.13368  1.0000
  H   H2430     1.0  0.61839  0.44651  0.11192  1.0000
  H   H2431     1.0  0.60171  0.43382  0.13921  1.0000
  C   C2455     1.0  0.55445  0.29152  0.05392  1.0000
  C   C2456     1.0  0.55881  0.30703  0.05198  1.0000
  C   C2457     1.0  0.55016  0.31755  0.06346  1.0000
  C   C2458     1.0  0.53729  0.31244  0.07705  1.0000
  C   C2459     1.0  0.53270  0.29709  0.07881  1.0000
  C   C2460     1.0  0.54120  0.28668  0.06721  1.0000
  H   H2432     1.0  0.56904  0.31082  0.04167  1.0000
  H   H2433     1.0  0.55374  0.32939  0.06202  1.0000
  H   H2434     1.0  0.52249  0.29331  0.08915  1.0000
  H   H2435     1.0  0.53761  0.27488  0.06856  1.0000
  C   C2461     1.0  0.60282  0.18410  0.05470  1.0000
  C   C2462     1.0  0.61736  0.17109  0.05232  1.0000
  C   C2463     1.0  0.62415  0.16079  0.06617  1.0000
  C   C2464     1.0  0.61658  0.16367  0.08241  1.0000
  C   C2465     1.0  0.60224  0.17687  0.08475  1.0000
  C   C2466     1.0  0.59528  0.18699  0.07095  1.0000
  H   H2436     1.0  0.62326  0.16884  0.03975  1.0000
  H   H2437     1.0  0.63536  0.15081  0.06422  1.0000
  H   H2438     1.0  0.59633  0.17899  0.09734  1.0000
  H   H2439     1.0  0.58402  0.19689  0.07290  1.0000
  H   H2440     1.0  0.59844  0.43086  0.09901  1.0000
  C   C2467     1.0  0.96014  0.39328  0.12436  1.0000
  H   H2441     1.0  0.99051  0.16090  0.10632  1.0000
  N   N213      1.0  0.86596  0.42544  0.99814  1.0000
  H   H2442     1.0  0.51840  0.09069  0.16615  1.0000
  H   H2443     1.0  0.87286  0.01948  0.11241  1.0000
  C   C2468     1.0  0.60227  0.08417  0.17186  1.0000
  C   C2469     1.0  0.61730  0.08524  0.15919  1.0000
  C   C2470     1.0  0.63255  0.07333  0.16114  1.0000
  H   H2444     1.0  0.74889  0.10702  0.00153  1.0000
  C   C2471     1.0  0.60215  0.47139  0.11078  1.0000
  H   H2445     1.0  0.59059  0.09346  0.17049  1.0000
  H   H2446     1.0  0.61720  0.09545  0.14815  1.0000
  C   C2472     1.0  0.54591  0.16958  0.12250  1.0000
  C   C2473     1.0  0.52999  0.17873  0.12962  1.0000
  C   C2474     1.0  0.52280  0.19458  0.12054  1.0000
  C   C2475     1.0  0.53133  0.20124  0.10425  1.0000
  C   C2476     1.0  0.54717  0.19213  0.09714  1.0000
  C   C2477     1.0  0.55448  0.17648  0.10631  1.0000
  H   H2447     1.0  0.52305  0.17379  0.14197  1.0000
  H   H2448     1.0  0.51055  0.20167  0.12609  1.0000
  H   H2449     1.0  0.55385  0.19723  0.08461  1.0000
  H   H2450     1.0  0.56690  0.16973  0.10081  1.0000
  H   H2451     1.0  0.99297  0.42298  0.13425  1.0000
  H   H2452     1.0  0.76111  0.42695  0.06096  1.0000
  C   C2478     1.0  0.54594  0.21299  0.99946  1.0000
  H   H2453     1.0  0.86708  0.43533  0.01852  1.0000
  C   C2479     1.0  0.62080  0.01345  0.11440  1.0000
  H   H2454     1.0  0.54941  0.21043  0.01152  1.0000
  C   C2480     1.0  0.65509  0.03060  0.06504  1.0000
  C   C2481     1.0  0.63723  0.03353  0.06988  1.0000
  C   C2482     1.0  0.62787  0.04905  0.07398  1.0000
  C   C2483     1.0  0.63638  0.06149  0.07354  1.0000
  C   C2484     1.0  0.65424  0.05847  0.06883  1.0000
  C   C2485     1.0  0.66357  0.04310  0.06445  1.0000
  H   H2455     1.0  0.63062  0.02400  0.07016  1.0000
  H   H2456     1.0  0.61403  0.05143  0.07749  1.0000
  H   H2457     1.0  0.66087  0.06813  0.06818  1.0000
  H   H2458     1.0  0.67738  0.04091  0.06066  1.0000
  C   C2486     1.0  0.65753  0.46553  0.10167  1.0000
  S   S852      1.0  0.54897  0.09334  0.17768  1.0000
  H   H2459     1.0  0.51562  0.14598  0.13967  1.0000
  H   H2460     1.0  0.91830  0.38489  0.12008  1.0000
  C   C2487     1.0  0.97082  0.19750  0.04379  1.0000
  C   C2488     1.0  0.60044  0.14168  0.04416  1.0000
  C   C2489     1.0  0.93009  0.38731  0.12118  1.0000
  H   H2461     1.0  0.58035  0.16423  0.04358  1.0000
  H   H2462     1.0  0.74185  0.15397  0.03895  1.0000
  S   S853      1.0  0.95008  0.22859  0.03438  1.0000
  C   C2490     1.0  0.87469  0.27558  0.05087  1.0000
  C   C2491     1.0  0.86816  0.29118  0.04103  1.0000
  C   C2492     1.0  0.87209  0.30609  0.04193  1.0000
  C   C2493     1.0  0.88256  0.30540  0.05269  1.0000
  C   C2494     1.0  0.88920  0.28979  0.06237  1.0000
  C   C2495     1.0  0.88519  0.27494  0.06154  1.0000
  H   H2463     1.0  0.86010  0.29173  0.03265  1.0000
  H   H2464     1.0  0.86717  0.31802  0.03419  1.0000
  H   H2465     1.0  0.89730  0.28921  0.07073  1.0000
  H   H2466     1.0  0.88990  0.26308  0.06950  1.0000
  C   C2496     1.0  0.96948  0.21499  0.03821  1.0000
  C   C2497     1.0  0.73722  0.12896  0.07406  1.0000
  C   C2498     1.0  0.71956  0.13344  0.08051  1.0000
  C   C2499     1.0  0.70857  0.12354  0.08017  1.0000
  C   C2500     1.0  0.71519  0.10919  0.07321  1.0000
  C   C2501     1.0  0.73287  0.10466  0.06678  1.0000
  C   C2502     1.0  0.74389  0.11452  0.06721  1.0000
  H   H2467     1.0  0.71432  0.14466  0.08574  1.0000
  H   H2468     1.0  0.69493  0.12722  0.08498  1.0000
  H   H2469     1.0  0.73801  0.09362  0.06126  1.0000
  H   H2470     1.0  0.75748  0.11097  0.06220  1.0000
  C   C2503     1.0  0.83921  0.17561  0.05190  1.0000
  C   C2504     1.0  0.84423  0.19065  0.05043  1.0000
  C   C2505     1.0  0.86166  0.19100  0.04692  1.0000
  C   C2506     1.0  0.87412  0.17631  0.04476  1.0000
  C   C2507     1.0  0.86913  0.16134  0.04593  1.0000
  C   C2508     1.0  0.85171  0.16094  0.04969  1.0000
  H   H2471     1.0  0.83462  0.20206  0.05204  1.0000
  H   H2472     1.0  0.86543  0.20266  0.04579  1.0000
  H   H2473     1.0  0.87875  0.14994  0.04428  1.0000
  H   H2474     1.0  0.84801  0.14926  0.05101  1.0000
  C   C2509     1.0  0.92697  0.13728  0.12629  1.0000
  C   C2510     1.0  0.93079  0.14504  0.10915  1.0000
  C   C2511     1.0  0.92408  0.16233  0.10367  1.0000
  C   C2512     1.0  0.91394  0.17206  0.11537  1.0000
  C   C2513     1.0  0.91054  0.16435  0.13258  1.0000
  C   C2514     1.0  0.91686  0.14696  0.13802  1.0000
  H   H2475     1.0  0.93863  0.13760  0.10004  1.0000
  H   H2476     1.0  0.92688  0.16807  0.09043  1.0000
  H   H2477     1.0  0.90280  0.17181  0.14171  1.0000
  H   H2478     1.0  0.91401  0.14108  0.15131  1.0000
  C   C2515     1.0  0.83458  0.10054  0.10139  1.0000
  C   C2516     1.0  0.84012  0.08993  0.11580  1.0000
  C   C2517     1.0  0.84767  0.09605  0.12535  1.0000
  C   C2518     1.0  0.84910  0.11299  0.12083  1.0000
  C   C2519     1.0  0.84334  0.12362  0.10659  1.0000
  C   C2520     1.0  0.83630  0.11738  0.09679  1.0000
  H   H2479     1.0  0.83854  0.07698  0.11963  1.0000
  H   H2480     1.0  0.85192  0.08783  0.13645  1.0000
  H   H2481     1.0  0.84432  0.13675  0.10310  1.0000
  H   H2482     1.0  0.83221  0.12567  0.08566  1.0000
  H   H2483     1.0  0.72809  0.42696  0.04001  1.0000
  C   C2521     1.0  0.87682  0.04033  0.15445  1.0000
  C   C2522     1.0  0.86534  0.03165  0.15279  1.0000
  H   H2484     1.0  0.61918  0.40790  0.99045  1.0000
  H   H2485     1.0  0.85241  0.03833  0.15182  1.0000
  H   H2486     1.0  0.83787  0.43594  0.11373  1.0000
  H   H2487     1.0  0.61979  0.11890  0.04901  1.0000
  H   H2488     1.0  0.50819  0.30078  0.04865  1.0000
  C   C2523     1.0  0.78861  0.09606  0.00454  1.0000
  C   C2524     1.0  0.79637  0.10533  0.01072  1.0000
  C   C2525     1.0  0.80289  0.11905  0.99988  1.0000
  H   H2489     1.0  0.56636  0.26287  0.08623  1.0000
  H   H2490     1.0  0.78393  0.08519  0.01284  1.0000
  H   H2491     1.0  0.79782  0.10148  0.02368  1.0000
  H   H2492     1.0  0.60052  0.21407  0.09206  1.0000
  C   C2526     1.0  0.71664  0.12373  0.03106  1.0000
  S   S854      1.0  0.63967  0.46468  0.01198  1.0000
  C   C2527     1.0  0.83495  0.17210  0.00977  1.0000
  C   C2528     1.0  0.71218  0.47749  0.07219  1.0000
  C   C2529     1.0  0.83631  0.47492  0.11962  1.0000
  C   C2530     1.0  0.87055  0.01443  0.15230  1.0000
  H   H2493     1.0  0.60442  0.14359  0.03051  1.0000
  C   C2531     1.0  0.74985  0.45515  0.04037  1.0000
  C   C2532     1.0  0.62845  0.40698  0.01228  1.0000
  H   H2494     1.0  0.61111  0.03429  0.13578  1.0000
  H   H2495     1.0  0.71920  0.10482  0.01715  1.0000
  C   C2533     1.0  0.57423  0.21485  0.10525  1.0000
  S   S855      1.0  0.52118  0.45054  0.17723  1.0000
  H   H2496     1.0  0.95998  0.19207  0.04534  1.0000
  H   H2497     1.0  0.96867  0.10307  0.14345  1.0000
  H   H2498     1.0  0.51145  0.33677  0.06120  1.0000
  C   C2534     1.0  0.97590  0.44562  0.17091  1.0000
  C   C2535     1.0  0.90293  0.31690  0.99719  1.0000
  H   H2499     1.0  0.99040  0.18334  0.13385  1.0000
  H   H2500     1.0  0.54730  0.21944  0.11612  1.0000
  H   H2501     1.0  0.55974  0.42802  0.99865  1.0000
  H   H2502     1.0  0.71812  0.14216  0.04357  1.0000
  C   C2536     1.0  0.78721  0.10062  0.98760  1.0000
  C   C2537     1.0  0.57907  0.40124  0.98571  1.0000
  H   H2503     1.0  0.76287  0.12670  0.00737  1.0000
  C   C2538     1.0  0.53788  0.25265  0.10477  1.0000
  H   H2504     1.0  0.89336  0.02879  0.12044  1.0000
  H   H2505     1.0  0.98320  0.44492  0.15782  1.0000
  H   H2506     1.0  0.63991  0.40895  0.03154  1.0000
  H   H2507     1.0  0.52061  0.31634  0.04457  1.0000
  H   H2508     1.0  0.69776  0.47092  0.11231  1.0000
  C   C2539     1.0  0.58789  0.22205  0.09509  1.0000
  C   C2540     1.0  0.86522  0.03254  0.10899  1.0000
  H   H2509     1.0  0.58331  0.44042  0.08553  1.0000
  C   C2541     1.0  0.75030  0.14638  0.02966  1.0000
  C   C2542     1.0  0.98308  0.17276  0.10055  1.0000
  H   H2510     1.0  0.56021  0.15292  0.16990  1.0000
  N   N214      1.0  0.83554  0.42746  0.07748  1.0000
  C   C2543     1.0  0.83749  0.41024  0.08231  1.0000
  C   C2544     1.0  0.83539  0.43669  0.08865  1.0000
  N   N215      1.0  0.65022  0.42709  0.98996  1.0000
  H   H2511     1.0  0.55270  0.38725  0.02195  1.0000
  H   H2512     1.0  0.76087  0.45588  0.04443  1.0000
  C   C2545     1.0  0.83471  0.43607  0.05997  1.0000
  H   H2513     1.0  0.83803  0.40285  0.07336  1.0000
  H   H2514     1.0  0.83398  0.45033  0.08482  1.0000
  H   H2515     1.0  0.70457  0.99762  0.06667  1.0000
  H   H2516     1.0  0.83775  0.45337  0.02030  1.0000
  H   H2517     1.0  0.92756  0.25942  0.01751  1.0000
  H   H2518     1.0  0.83286  0.42758  0.05284  1.0000
  H   H2519     1.0  0.82381  0.44722  0.05964  1.0000
  H   H2520     1.0  0.84689  0.44022  0.05344  1.0000
  H   H2521     1.0  0.51074  0.12807  0.15639  1.0000
  H   H2522     1.0  0.57132  0.13801  0.10172  1.0000
  N   N216      1.0  0.91146  0.28400  0.01556  1.0000
  C   C2546     1.0  0.84301  0.44563  0.01090  1.0000
  C   C2547     1.0  0.91362  0.29723  0.02073  1.0000
  C   C2548     1.0  0.90099  0.30333  0.99187  1.0000
  N   N217      1.0  0.66038  0.48136  0.09937  1.0000
  H   H2523     1.0  0.96392  0.12575  0.14072  1.0000
  C   C2549     1.0  0.55326  0.20142  0.98888  1.0000
  C   C2550     1.0  0.68369  0.45307  0.11169  1.0000
  H   H2524     1.0  0.96203  0.22805  0.06976  1.0000
  H   H2525     1.0  0.70998  0.45293  0.02673  1.0000
  C   C2551     1.0  0.98643  0.18692  0.04690  1.0000
  H   H2526     1.0  0.95683  0.46443  0.14890  1.0000
  N   N218      1.0  0.55527  0.24225  0.10201  1.0000
  H   H2527     1.0  0.98275  0.23538  0.03166  1.0000
  S   S856      1.0  0.79745  0.48506  0.06401  1.0000
  H   H2528     1.0  0.98472  0.11325  0.14409  1.0000
  C   C2552     1.0  0.63263  0.06031  0.17562  1.0000
  H   H2529     1.0  0.55621  0.25734  0.98787  1.0000
  H   H2530     1.0  0.81477  0.16503  0.00379  1.0000
  H   H2531     1.0  0.93390  0.40725  0.08493  1.0000
  C   C2553     1.0  0.63980  0.41233  0.01816  1.0000
  C   C2554     1.0  0.88342  0.41511  0.99693  1.0000
  H   H2532     1.0  0.70377  0.12265  0.03813  1.0000
  C   C2555     1.0  0.72140  0.45367  0.03016  1.0000
  H   H2533     1.0  0.91413  0.41115  0.10030  1.0000
  C   C2556     1.0  0.83948  0.41113  0.11010  1.0000
  H   H2534     1.0  0.70481  0.01110  0.04594  1.0000
  H   H2535     1.0  0.82610  0.08885  0.98752  1.0000
  H   H2536     1.0  0.59548  0.24516  0.08013  1.0000
  C   C2557     1.0  0.68630  0.46927  0.10968  1.0000
  N   N219      1.0  0.83218  0.30058  0.07144  1.0000
  C   C2558     1.0  0.82077  0.31420  0.06479  1.0000
  C   C2559     1.0  0.84402  0.30285  0.07872  1.0000
  C   C2560     1.0  0.82085  0.33061  0.06556  1.0000
  C   C2561     1.0  0.84459  0.31909  0.07951  1.0000
  C   C2562     1.0  0.83278  0.33300  0.07305  1.0000
  C   C2563     1.0  0.83159  0.28354  0.07063  1.0000
  H   H2537     1.0  0.81154  0.31243  0.05883  1.0000
  H   H2538     1.0  0.85337  0.29213  0.08362  1.0000
  H   H2539     1.0  0.81181  0.34147  0.06030  1.0000
  H   H2540     1.0  0.85434  0.32090  0.08479  1.0000
  H   H2541     1.0  0.83292  0.34566  0.07372  1.0000
  H   H2542     1.0  0.84154  0.27360  0.07639  1.0000
  H   H2543     1.0  0.81890  0.28066  0.07739  1.0000
  H   H2544     1.0  0.83404  0.28254  0.05724  1.0000
  N   N220      1.0  0.88411  0.14713  0.10238  1.0000
  C   C2564     1.0  0.87553  0.15668  0.09004  1.0000
  C   C2565     1.0  0.88174  0.15249  0.11696  1.0000
  C   C2566     1.0  0.86458  0.17226  0.09195  1.0000
  C   C2567     1.0  0.87119  0.16816  0.11914  1.0000
  C   C2568     1.0  0.86260  0.17811  0.10651  1.0000
  C   C2569     1.0  0.89523  0.13069  0.10026  1.0000
  H   H2545     1.0  0.87715  0.15231  0.07861  1.0000
  H   H2546     1.0  0.88803  0.14464  0.12700  1.0000
  H   H2547     1.0  0.85781  0.17980  0.08214  1.0000
  H   H2548     1.0  0.86978  0.17256  0.13051  1.0000
  H   H2549     1.0  0.85443  0.19033  0.10799  1.0000
  H   H2550     1.0  0.90464  0.12650  0.10856  1.0000
  H   H2551     1.0  0.88729  0.12108  0.10356  1.0000
  H   H2552     1.0  0.90266  0.13145  0.08702  1.0000
  N   N221      1.0  0.57419  0.42450  0.10906  1.0000
  C   C2570     1.0  0.56972  0.41434  0.10148  1.0000
  C   C2571     1.0  0.56969  0.42271  0.12624  1.0000
  C   C2572     1.0  0.56059  0.40195  0.11118  1.0000
  C   C2573     1.0  0.56051  0.41050  0.13632  1.0000
  C   C2574     1.0  0.55611  0.39995  0.12871  1.0000
  H   H2553     1.0  0.57322  0.43071  0.13229  1.0000
  H   H2554     1.0  0.55704  0.39389  0.10517  1.0000
  H   H2555     1.0  0.55691  0.40923  0.14993  1.0000
  H   H2556     1.0  0.54911  0.39031  0.13636  1.0000
  H   H2557     1.0  0.58103  0.44839  0.10390  1.0000
  C   C2575     1.0  0.56856  0.24944  0.09196  1.0000
  H   H2558     1.0  0.74876  0.41441  0.05736  1.0000
  H   H2559     1.0  0.85385  0.03427  0.11950  1.0000
  N   N222      1.0  0.93669  0.40052  0.11036  1.0000
  H   H2560     1.0  0.89954  0.32975  0.99005  1.0000
  H   H2561     1.0  0.61968  0.39947  0.02107  1.0000
  H   H2562     1.0  0.64628  0.46400  0.09860  1.0000
  H   H2563     1.0  0.94568  0.21733  0.07145  1.0000
  C   C2576     1.0  0.60401  0.12598  0.07204  1.0000
  C   C2577     1.0  0.74201  0.11481  0.01069  1.0000
  H   H2564     1.0  0.72027  0.43453  0.07868  1.0000
  H   H2565     1.0  0.61118  0.00950  0.12593  1.0000
  H   H2566     1.0  0.94258  0.19168  0.09566  1.0000
  H   H2567     1.0  0.50387  0.32032  0.03320  1.0000
  N   N223      1.0  0.63139  0.02300  0.11778  1.0000
  C   C2578     1.0  0.64798  0.02219  0.10900  1.0000
  C   C2579     1.0  0.62439  0.03329  0.12914  1.0000
  C   C2580     1.0  0.65818  0.03146  0.11185  1.0000
  C   C2581     1.0  0.63428  0.04261  0.13243  1.0000
  C   C2582     1.0  0.65131  0.04153  0.12382  1.0000
  H   H2568     1.0  0.86086  0.03347  0.09735  1.0000
  H   H2569     1.0  0.65341  0.01437  0.09967  1.0000
  C   C2583     1.0  0.88725  0.00585  0.15357  1.0000
  H   H2570     1.0  0.87276  0.05366  0.15464  1.0000
  C   C2584     1.0  0.69721  0.48134  0.06605  1.0000
  H   H2571     1.0  0.72379  0.00469  0.05455  1.0000
  C   C2585     1.0  0.50605  0.08795  0.16764  1.0000
  H   H2572     1.0  0.59854  0.98967  0.10584  1.0000
  C   C2586     1.0  0.53413  0.22772  0.99448  1.0000
  S   S857      1.0  0.90858  0.04253  0.15646  1.0000
  N   N224      1.0  0.96412  0.20331  0.08594  1.0000
  H   H2573     1.0  0.61117  0.44778  0.02802  1.0000
  C   C2587     1.0  0.95171  0.40336  0.11158  1.0000
  H   H2574     1.0  0.59017  0.12187  0.10408  1.0000
  C   C2588     1.0  0.50752  0.31463  0.04563  1.0000
  H   H2575     1.0  0.67126  0.03095  0.10473  1.0000
  H   H2576     1.0  0.50830  0.43064  0.16030  1.0000
  C   C2589     1.0  0.93809  0.37709  0.13423  1.0000
  H   H2577     1.0  0.84165  0.40473  0.12265  1.0000
  C   C2590     1.0  0.97073  0.11369  0.14763  1.0000
  H   H2578     1.0  0.91841  0.29505  0.03207  1.0000
  C   C2591     1.0  0.98126  0.20156  0.08467  1.0000
  H   H2579     1.0  0.81069  0.48614  0.09124  1.0000
  C   C2592     1.0  0.60208  0.45088  0.99004  1.0000
  N   N225      1.0  0.53308  0.13612  0.15584  1.0000
  C   C2593     1.0  0.53792  0.14722  0.16354  1.0000
  C   C2594     1.0  0.54527  0.12210  0.14940  1.0000
  C   C2595     1.0  0.55630  0.14437  0.16483  1.0000
  C   C2596     1.0  0.56390  0.11864  0.15050  1.0000
  C   C2597     1.0  0.56937  0.12993  0.15821  1.0000
  C   C2598     1.0  0.51562  0.13988  0.15316  1.0000
  H   H2580     1.0  0.52861  0.15777  0.16795  1.0000
  H   H2581     1.0  0.54137  0.11459  0.14309  1.0000
  C   C2599     1.0  0.58781  0.48141  0.11930  1.0000
  H   H2582     1.0  0.57331  0.10867  0.14514  1.0000
  H   H2583     1.0  0.66718  0.43860  0.10894  1.0000
  H   H2584     1.0  0.65915  0.42695  0.01143  1.0000
  H   H2585     1.0  0.50668  0.14856  0.16112  1.0000
  H   H2586     1.0  0.76126  0.13843  0.03533  1.0000
  H   H2587     1.0  0.91901  0.26604  0.03727  1.0000
  C   C2600     1.0  0.61188  0.45145  0.01457  1.0000
  H   H2588     1.0  0.95919  0.16434  0.10865  1.0000
  H   H2589     1.0  0.69305  0.44201  0.11599  1.0000
  H   H2590     1.0  0.95698  0.41382  0.10298  1.0000
  H   H2591     1.0  0.92871  0.42485  0.09531  1.0000
  H   H2592     1.0  0.57179  0.16009  0.07468  1.0000
  N   N226      1.0  0.95766  0.44666  0.17239  1.0000
  C   C2601     1.0  0.62412  0.46049  0.00406  1.0000
  C   C2602     1.0  0.92796  0.41144  0.09703  1.0000
  H   H2593     1.0  0.56025  0.36196  0.00960  1.0000
  H   H2594     1.0  0.59083  0.14360  0.10172  1.0000
  H   H2595     1.0  0.61093  0.11539  0.07994  1.0000
  N   N227      1.0  0.59054  0.13722  0.07913  1.0000
  H   H2596     1.0  0.64435  0.05109  0.17720  1.0000
  C   C2603     1.0  0.82761  0.16739  0.99915  1.0000
  S   S858      1.0  0.54205  0.00336  0.14240  1.0000
  C   C2604     1.0  0.72546  0.46931  0.02780  1.0000
  S   S859      1.0  0.85396  0.48008  0.12304  1.0000
  H   H2597     1.0  0.75515  0.15526  0.01799  1.0000
  H   H2598     1.0  0.51060  0.03470  0.14955  1.0000
  H   H2599     1.0  0.62882  0.05069  0.14152  1.0000
  H   H2600     1.0  0.55234  0.41587  0.01927  1.0000
  H   H2601     1.0  0.94374  0.10112  0.16652  1.0000
  H   H2602     1.0  0.50869  0.09004  0.14093  1.0000
  C   C2605     1.0  0.56560  0.37296  0.00277  1.0000
  S   S860      1.0  0.53251  0.47903  0.14346  1.0000
  H   H2603     1.0  0.94564  0.22591  0.08897  1.0000
  H   H2604     1.0  0.98755  0.21197  0.07795  1.0000
  H   H2605     1.0  0.85831  0.06471  0.09264  1.0000
  C   C2606     1.0  0.72486  0.13473  0.03411  1.0000
  H   H2606     1.0  0.53173  0.25319  0.09439  1.0000
  H   H2607     1.0  0.50549  0.37613  0.03860  1.0000
  C   C2607     1.0  0.74986  0.12593  0.01407  1.0000
  H   H2608     1.0  0.89267  0.42256  0.98811  1.0000
  H   H2609     1.0  0.61408  0.02128  0.10422  1.0000
  C   C2608     1.0  0.98371  0.22187  0.03600  1.0000
  C   C2609     1.0  0.56399  0.99390  0.13844  1.0000
  C   C2610     1.0  0.75619  0.42445  0.05104  1.0000
  H   H2610     1.0  0.98932  0.15293  0.14440  1.0000
  N   N228      1.0  0.87513  0.04537  0.10643  1.0000
  H   H2611     1.0  0.56801  0.00417  0.11161  1.0000
  H   H2612     1.0  0.50608  0.01459  0.13608  1.0000
  C   C2611     1.0  0.65069  0.42242  0.00674  1.0000
  C   C2612     1.0  0.67445  0.48338  0.10345  1.0000
  C   C2613     1.0  0.90921  0.31387  0.01175  1.0000
  H   H2613     1.0  0.98290  0.12387  0.16858  1.0000
  C   C2614     1.0  0.89878  0.01457  0.15509  1.0000
  H   H2614     1.0  0.65912  0.04864  0.12633  1.0000
  C   C2615     1.0  0.99099  0.18627  0.09192  1.0000
  C   C2616     1.0  0.93216  0.45881  0.16132  1.0000
  H   H2615     1.0  0.98165  0.43398  0.17931  1.0000
  C   C2617     1.0  0.86965  0.06149  0.09791  1.0000
  C   C2618     1.0  0.88911  0.04150  0.11348  1.0000
  C   C2619     1.0  0.87821  0.07425  0.09630  1.0000
  C   C2620     1.0  0.89782  0.05399  0.11234  1.0000
  C   C2621     1.0  0.89229  0.07047  0.10370  1.0000
  C   C2622     1.0  0.50058  0.08752  0.15340  1.0000
  H   H2616     1.0  0.71733  0.48083  0.02233  1.0000
  H   H2617     1.0  0.51680  0.40154  0.15524  1.0000
  H   H2618     1.0  0.87355  0.08710  0.08985  1.0000
  H   H2619     1.0  0.90940  0.45011  0.17642  1.0000
  H   H2620     1.0  0.89876  0.08033  0.10294  1.0000
  C   C2623     1.0  0.62480  0.46533  0.98667  1.0000
  H   H2621     1.0  0.90853  0.05096  0.11849  1.0000
  C   C2624     1.0  0.85951  0.43538  0.00985  1.0000
  N   N229      1.0  0.74920  0.11075  0.11219  1.0000
  C   C2625     1.0  0.76416  0.11384  0.11326  1.0000
  C   C2626     1.0  0.74942  0.09734  0.10580  1.0000
  C   C2627     1.0  0.77988  0.10328  0.10801  1.0000
  C   C2628     1.0  0.76495  0.08670  0.10014  1.0000
  C   C2629     1.0  0.78025  0.08970  0.10131  1.0000
  C   C2630     1.0  0.73293  0.12191  0.11809  1.0000
  H   H2622     1.0  0.76401  0.12464  0.11804  1.0000
  H   H2623     1.0  0.73759  0.09500  0.10470  1.0000
  H   H2624     1.0  0.79174  0.10572  0.10890  1.0000
  H   H2625     1.0  0.76509  0.07629  0.09478  1.0000
  H   H2626     1.0  0.79244  0.08164  0.09691  1.0000
  H   H2627     1.0  0.73080  0.12100  0.13188  1.0000
  H   H2628     1.0  0.73314  0.13523  0.11128  1.0000
  H   H2629     1.0  0.72185  0.11864  0.11565  1.0000
  C   C2631     1.0  0.89361  0.03183  0.15544  1.0000
  C   C2632     1.0  0.58508  0.23947  0.08843  1.0000
  C   C2633     1.0  0.58548  0.13506  0.09755  1.0000
  C   C2634     1.0  0.95314  0.38022  0.13588  1.0000
  H   H2630     1.0  0.57332  0.41569  0.08788  1.0000
  S   S861      1.0  0.64977  0.46733  0.05327  1.0000
  C   C2635     1.0  0.58682  0.15319  0.05149  1.0000
  C   C2636     1.0  0.50853  0.42860  0.14810  1.0000
  C   C2637     1.0  0.95388  0.21949  0.07874  1.0000
  H   H2631     1.0  0.53801  0.26570  0.10522  1.0000
  C   C2638     1.0  0.66920  0.45115  0.10771  1.0000
  H   H2632     1.0  0.56225  0.18995  0.99292  1.0000
  C   C2639     1.0  0.94963  0.45732  0.16004  1.0000
  C   C2640     1.0  0.95000  0.10559  0.17369  1.0000
  H   H2633     1.0  0.50881  0.42086  0.10460  1.0000
  H   H2634     1.0  0.90529  0.26009  0.02787  1.0000
  C   C2641     1.0  0.60072  0.44686  0.00757  1.0000
  H   H2635     1.0  0.85739  0.17843  0.01239  1.0000
  C   C2642     1.0  0.50343  0.44227  0.13545  1.0000
  C   C2643     1.0  0.85158  0.17483  0.00416  1.0000
  H   H2636     1.0  0.92596  0.46683  0.15123  1.0000
  S   S862      1.0  0.91440  0.08058  0.16974  1.0000
  H   H2637     1.0  0.56703  0.48191  0.14122  1.0000
  C   C2644     1.0  0.83325  0.44585  0.99972  1.0000
  C   C2645     1.0  0.92289  0.44935  0.17537  1.0000
  C   C2646     1.0  0.62824  0.41161  0.99511  1.0000
  H   H2638     1.0  0.89139  0.99259  0.15309  1.0000
  C   C2647     1.0  0.56330  0.41639  0.00821  1.0000
  N   N230      1.0  0.56782  0.40134  0.00098  1.0000
  N   N231      1.0  0.96419  0.11225  0.16588  1.0000
  C   C2648     1.0  0.83999  0.43580  0.98773  1.0000
  H   H2639     1.0  0.50273  0.04669  0.17507  1.0000
  H   H2640     1.0  0.88690  0.41073  0.00950  1.0000
  H   H2641     1.0  0.97766  0.45682  0.17426  1.0000
  C   C2649     1.0  0.85651  0.42570  0.98703  1.0000
  H   H2642     1.0  0.50004  0.35593  0.02513  1.0000
  H   H2643     1.0  0.57440  0.41743  0.01252  1.0000
  H   H2644     1.0  0.88466  0.40354  0.99232  1.0000
  H   H2645     1.0  0.74306  0.48218  0.03121  1.0000
  S   S863      1.0  0.50367  0.98917  0.18026  1.0000
  C   C2650     1.0  0.49887  0.33377  0.06535  1.0000
  Fe  Fe432     1.0  0.65462  0.98905  0.07028  1.0000
  S   S864      1.0  0.88283  0.09358  0.20931  1.0000
  H   H2646     1.0  0.76567  0.02598  0.37503  1.0000
  Fe  Fe433     1.0  0.53515  0.11872  0.21289  1.0000
  S   S865      1.0  0.53718  0.09083  0.21871  1.0000
  S   S866      1.0  0.52224  0.13244  0.23403  1.0000
  C   C2651     1.0  0.86965  0.12941  0.35687  1.0000
  H   H2647     1.0  0.99510  0.08284  0.31032  1.0000
  C   C2652     1.0  0.50707  0.17348  0.38269  1.0000
  H   H2648     1.0  0.54698  0.04110  0.25977  1.0000
  H   H2649     1.0  0.65921  0.47994  0.37922  1.0000
  S   S867      1.0  0.80653  0.12432  0.33851  1.0000
  Fe  Fe434     1.0  0.91882  0.12725  0.26440  1.0000
  S   S868      1.0  0.92549  0.10033  0.27817  1.0000
  S   S869      1.0  0.91961  0.13440  0.23630  1.0000
  Fe  Fe435     1.0  0.91018  0.14052  0.29681  1.0000
  S   S870      1.0  0.91608  0.11455  0.31299  1.0000
  S   S871      1.0  0.89928  0.16371  0.30799  1.0000
  Fe  Fe436     1.0  0.93903  0.11030  0.29188  1.0000
  S   S872      1.0  0.96507  0.09572  0.29652  1.0000
  Fe  Fe437     1.0  0.90196  0.10747  0.29773  1.0000
  S   S873      1.0  0.88311  0.09054  0.30944  1.0000
  S   S874      1.0  0.93417  0.13689  0.27662  1.0000
  S   S875      1.0  0.89430  0.13374  0.28299  1.0000
  Fe  Fe438     1.0  0.79598  0.10776  0.36288  1.0000
  H   H2650     1.0  0.94491  0.16357  0.36310  1.0000
  C   C2653     1.0  0.99590  0.32101  0.35483  1.0000
  H   H2651     1.0  0.78683  0.99974  0.35497  1.0000
  S   S876      1.0  0.61426  0.43094  0.35254  1.0000
  H   H2652     1.0  0.56185  0.04328  0.20681  1.0000
  Fe  Fe439     1.0  0.53069  0.42628  0.29973  1.0000
  S   S877      1.0  0.51374  0.44775  0.31157  1.0000
  S   S878      1.0  0.54372  0.42985  0.27204  1.0000
  Fe  Fe440     1.0  0.52781  0.40062  0.33336  1.0000
  H   H2653     1.0  0.92411  0.43086  0.19863  1.0000
  S   S879      1.0  0.53650  0.37390  0.34691  1.0000
  Fe  Fe441     1.0  0.52870  0.43669  0.33213  1.0000
  S   S880      1.0  0.53677  0.45070  0.34692  1.0000
  S   S881      1.0  0.51342  0.40796  0.31260  1.0000
  S   S882      1.0  0.54689  0.41667  0.31927  1.0000
  H   H2654     1.0  0.83198  0.42740  0.24149  1.0000
  C   C2654     1.0  0.85316  0.41006  0.22965  1.0000
  C   C2655     1.0  0.76404  0.15272  0.36014  1.0000
  Fe  Fe442     1.0  0.53019  0.01908  0.29855  1.0000
  S   S883      1.0  0.51996  0.04682  0.29749  1.0000
  S   S884      1.0  0.55726  0.01068  0.28518  1.0000
  Fe  Fe443     1.0  0.55199  0.12365  0.31634  1.0000
  S   S885      1.0  0.52502  0.12203  0.33025  1.0000
  S   S886      1.0  0.56426  0.12641  0.28862  1.0000
  Fe  Fe444     1.0  0.56508  0.11597  0.34862  1.0000
  S   S887      1.0  0.53955  0.11318  0.36535  1.0000
  S   S888      1.0  0.58908  0.11062  0.35836  1.0000
  Fe  Fe445     1.0  0.53752  0.09912  0.34714  1.0000
  S   S889      1.0  0.52879  0.07449  0.35640  1.0000
  Fe  Fe446     1.0  0.52930  0.13634  0.34724  1.0000
  H   H2655     1.0  0.95722  0.13574  0.35772  1.0000
  S   S890      1.0  0.56409  0.09961  0.33209  1.0000
  S   S891      1.0  0.55520  0.14020  0.33171  1.0000
  S   S892      1.0  0.89021  0.42210  0.18834  1.0000
  C   C2656     1.0  0.95100  0.11060  0.20027  1.0000
  S   S893      1.0  0.79348  0.40694  0.37446  1.0000
  Fe  Fe447     1.0  0.87647  0.43701  0.29307  1.0000
  S   S894      1.0  0.84924  0.44047  0.29142  1.0000
  S   S895      1.0  0.89266  0.41126  0.30122  1.0000
  Fe  Fe448     1.0  0.85610  0.45914  0.26728  1.0000
  S   S896      1.0  0.84551  0.46175  0.24455  1.0000
  Fe  Fe449     1.0  0.84444  0.46201  0.30421  1.0000
  S   S897      1.0  0.82357  0.46887  0.32619  1.0000
  S   S898      1.0  0.88388  0.45410  0.26779  1.0000
  S   S899      1.0  0.87124  0.45721  0.30761  1.0000
  C   C2657     1.0  0.81560  0.36825  0.36627  1.0000
  H   H2656     1.0  0.52387  0.07931  0.29864  1.0000
  C   C2658     1.0  0.57410  0.03608  0.23488  1.0000
  C   C2659     1.0  0.60249  0.07111  0.18636  1.0000
  C   C2660     1.0  0.96528  0.11765  0.19213  1.0000
  S   S900      1.0  0.85881  0.36050  0.36395  1.0000
  H   H2657     1.0  0.54910  0.34883  0.37381  1.0000
  H   H2658     1.0  0.82479  0.36066  0.35736  1.0000
  C   C2661     1.0  0.59925  0.48285  0.35014  1.0000
  C   C2662     1.0  0.92688  0.18837  0.33064  1.0000
  S   S901      1.0  0.90312  0.32709  0.37041  1.0000
  C   C2663     1.0  0.53704  0.35630  0.37924  1.0000
  N   N232      1.0  0.86908  0.99034  0.20663  1.0000
  H   H2659     1.0  0.62515  0.13498  0.37789  1.0000
  Fe  Fe450     1.0  0.52460  0.09628  0.19702  1.0000
  S   S902      1.0  0.90687  0.15779  0.38189  1.0000
  C   C2664     1.0  0.94334  0.10445  0.19103  1.0000
  C   C2665     1.0  0.88296  0.39699  0.31824  1.0000
  C   C2666     1.0  0.89331  0.38248  0.32611  1.0000
  C   C2667     1.0  0.88600  0.37117  0.34009  1.0000
  C   C2668     1.0  0.86824  0.37409  0.34602  1.0000
  C   C2669     1.0  0.85784  0.38844  0.33797  1.0000
  C   C2670     1.0  0.86519  0.39995  0.32422  1.0000
  H   H2660     1.0  0.90706  0.38013  0.32155  1.0000
  H   H2661     1.0  0.89413  0.36018  0.34623  1.0000
  H   H2662     1.0  0.84412  0.39087  0.34259  1.0000
  H   H2663     1.0  0.85709  0.41114  0.31836  1.0000
  H   H2664     1.0  0.55896  0.04658  0.35246  1.0000
  H   H2665     1.0  0.84292  0.99270  0.20703  1.0000
  N   N233      1.0  0.57825  0.02510  0.35968  1.0000
  C   C2671     1.0  0.80123  0.42443  0.36099  1.0000
  C   C2672     1.0  0.81197  0.42265  0.34529  1.0000
  C   C2673     1.0  0.81885  0.43625  0.33456  1.0000
  C   C2674     1.0  0.81481  0.45178  0.33934  1.0000
  C   C2675     1.0  0.80397  0.45361  0.35501  1.0000
  C   C2676     1.0  0.79728  0.43990  0.36588  1.0000
  H   H2666     1.0  0.81504  0.41071  0.34144  1.0000
  H   H2667     1.0  0.82714  0.43471  0.32255  1.0000
  H   H2668     1.0  0.80082  0.46558  0.35880  1.0000
  H   H2669     1.0  0.85668  0.09510  0.35494  1.0000
  H   H2670     1.0  0.58594  0.39932  0.36112  1.0000
  H   H2671     1.0  0.84432  0.42360  0.26610  1.0000
  H   H2672     1.0  0.88080  0.41546  0.26912  1.0000
  H   H2673     1.0  0.86490  0.08571  0.28687  1.0000
  C   C2677     1.0  0.87906  0.43539  0.20246  1.0000
  H   H2674     1.0  0.97356  0.14197  0.33953  1.0000
  C   C2678     1.0  0.85367  0.45523  0.21289  1.0000
  C   C2679     1.0  0.85934  0.45294  0.22776  1.0000
  C   C2680     1.0  0.87525  0.44243  0.22961  1.0000
  C   C2681     1.0  0.88502  0.43357  0.21703  1.0000
  H   H2675     1.0  0.84136  0.46336  0.21142  1.0000
  H   H2676     1.0  0.87967  0.44055  0.24103  1.0000
  H   H2677     1.0  0.89693  0.42483  0.21890  1.0000
  S   S903      1.0  0.51075  0.41991  0.34765  1.0000
  C   C2682     1.0  0.53980  0.17989  0.36832  1.0000
  C   C2683     1.0  0.53303  0.17083  0.36099  1.0000
  C   C2684     1.0  0.51671  0.16749  0.36820  1.0000
  H   H2678     1.0  0.55524  0.99263  0.34086  1.0000
  S   S904      1.0  0.60520  0.16761  0.38377  1.0000
  H   H2679     1.0  0.55234  0.18259  0.36253  1.0000
  H   H2680     1.0  0.54035  0.16667  0.34959  1.0000
  N   N234      1.0  0.56238  0.39226  0.37400  1.0000
  C   C2685     1.0  0.60099  0.15223  0.37582  1.0000
  C   C2686     1.0  0.60920  0.12451  0.36896  1.0000
  C   C2687     1.0  0.59349  0.12708  0.36451  1.0000
  C   C2688     1.0  0.58169  0.14247  0.36525  1.0000
  C   C2689     1.0  0.58548  0.15502  0.37092  1.0000
  H   H2681     1.0  0.83057  0.13406  0.38252  1.0000
  H   H2682     1.0  0.56953  0.14458  0.36180  1.0000
  H   H2683     1.0  0.57624  0.16672  0.37201  1.0000
  C   C2690     1.0  0.52375  0.05400  0.31354  1.0000
  C   C2691     1.0  0.52514  0.04320  0.32924  1.0000
  C   C2692     1.0  0.52652  0.04959  0.34246  1.0000
  C   C2693     1.0  0.52733  0.06657  0.33974  1.0000
  C   C2694     1.0  0.52677  0.07713  0.32381  1.0000
  C   C2695     1.0  0.52462  0.07095  0.31084  1.0000
  H   H2684     1.0  0.52466  0.03006  0.33141  1.0000
  H   H2685     1.0  0.52705  0.04135  0.35476  1.0000
  H   H2686     1.0  0.52772  0.09016  0.32150  1.0000
  C   C2696     1.0  0.75949  0.13700  0.34163  1.0000
  H   H2687     1.0  0.89641  0.12391  0.19339  1.0000
  C   C2697     1.0  0.52808  0.36968  0.36881  1.0000
  H   H2688     1.0  0.89387  0.40067  0.35327  1.0000
  C   C2698     1.0  0.54362  0.04320  0.24769  1.0000
  C   C2699     1.0  0.59251  0.43473  0.35208  1.0000
  C   C2700     1.0  0.57961  0.44079  0.36497  1.0000
  C   C2701     1.0  0.56246  0.44532  0.36347  1.0000
  C   C2702     1.0  0.55811  0.44359  0.34919  1.0000
  C   C2703     1.0  0.57092  0.43696  0.33657  1.0000
  C   C2704     1.0  0.58808  0.43252  0.33804  1.0000
  C   C2705     1.0  0.57510  0.02759  0.37693  1.0000
  H   H2689     1.0  0.87148  0.01177  0.18630  1.0000
  H   H2690     1.0  0.56774  0.43592  0.32534  1.0000
  H   H2691     1.0  0.58392  0.37925  0.35859  1.0000
  C   C2706     1.0  0.97296  0.12349  0.30159  1.0000
  C   C2707     1.0  0.57148  0.03363  0.33218  1.0000
  H   H2692     1.0  0.96183  0.13093  0.29670  1.0000
  C   C2708     1.0  0.88048  0.40685  0.35640  1.0000
  H   H2693     1.0  0.56176  0.03452  0.38103  1.0000
  C   C2709     1.0  0.52634  0.04790  0.24686  1.0000
  C   C2710     1.0  0.95996  0.14079  0.34383  1.0000
  C   C2711     1.0  0.82770  0.11507  0.32995  1.0000
  C   C2712     1.0  0.83281  0.09753  0.33161  1.0000
  C   C2713     1.0  0.84981  0.09017  0.32509  1.0000
  C   C2714     1.0  0.86185  0.10028  0.31711  1.0000
  C   C2715     1.0  0.85674  0.11785  0.31539  1.0000
  C   C2716     1.0  0.83964  0.12525  0.32164  1.0000
  H   H2694     1.0  0.82359  0.08963  0.33768  1.0000
  H   H2695     1.0  0.85369  0.07658  0.32641  1.0000
  H   H2696     1.0  0.86596  0.12574  0.30948  1.0000
  H   H2697     1.0  0.83575  0.13883  0.32040  1.0000
  S   S905      1.0  0.77856  0.05373  0.37576  1.0000
  C   C2717     1.0  0.93380  0.17788  0.31907  1.0000
  C   C2718     1.0  0.87598  0.00396  0.19743  1.0000
  N   N235      1.0  0.80337  0.99639  0.37155  1.0000
  H   H2698     1.0  0.76207  0.15023  0.37415  1.0000
  N   N236      1.0  0.85564  0.13613  0.36789  1.0000
  C   C2719     1.0  0.59420  0.00949  0.33824  1.0000
  N   N237      1.0  0.86682  0.40589  0.25758  1.0000
  H   H2699     1.0  0.88301  0.42888  0.33636  1.0000
  C   C2720     1.0  0.90266  0.15831  0.36244  1.0000
  C   C2721     1.0  0.89111  0.17185  0.35500  1.0000
  C   C2722     1.0  0.88974  0.17315  0.33841  1.0000
  C   C2723     1.0  0.89978  0.16085  0.32931  1.0000
  C   C2724     1.0  0.91085  0.14701  0.33702  1.0000
  C   C2725     1.0  0.91229  0.14575  0.35354  1.0000
  H   H2700     1.0  0.88385  0.18173  0.36168  1.0000
  H   H2701     1.0  0.88123  0.18395  0.33244  1.0000
  H   H2702     1.0  0.91896  0.13770  0.33001  1.0000
  H   H2703     1.0  0.92130  0.13530  0.35924  1.0000
  C   C2726     1.0  0.51080  0.45797  0.23321  1.0000
  H   H2704     1.0  0.87385  0.38613  0.37644  1.0000
  C   C2727     1.0  0.51321  0.44497  0.26232  1.0000
  C   C2728     1.0  0.53102  0.44163  0.25737  1.0000
  C   C2729     1.0  0.53876  0.44673  0.24032  1.0000
  C   C2730     1.0  0.52867  0.45493  0.22824  1.0000
  H   H2705     1.0  0.51519  0.42783  0.21832  1.0000
  H   H2706     1.0  0.73194  0.15034  0.37520  1.0000
  H   H2707     1.0  0.55258  0.44411  0.23640  1.0000
  H   H2708     1.0  0.53474  0.45861  0.21510  1.0000
  C   C2731     1.0  0.53387  0.12961  0.24958  1.0000
  C   C2732     1.0  0.52521  0.13344  0.26536  1.0000
  C   C2733     1.0  0.53434  0.13187  0.27773  1.0000
  C   C2734     1.0  0.55220  0.12685  0.27418  1.0000
  C   C2735     1.0  0.56081  0.12285  0.25847  1.0000
  C   C2736     1.0  0.55166  0.12399  0.24628  1.0000
  H   H2709     1.0  0.51145  0.13784  0.26794  1.0000
  H   H2710     1.0  0.52762  0.13512  0.28974  1.0000
  H   H2711     1.0  0.57463  0.11898  0.25566  1.0000
  H   H2712     1.0  0.55843  0.12102  0.23416  1.0000
  S   S906      1.0  0.56072  0.11798  0.19505  1.0000
  H   H2713     1.0  0.50485  0.38880  0.36789  1.0000
  C   C2737     1.0  0.60310  0.47459  0.33680  1.0000
  H   H2714     1.0  0.54567  0.41222  0.36066  1.0000
  H   H2715     1.0  0.55448  0.99405  0.37003  1.0000
  H   H2716     1.0  0.84819  0.41227  0.21840  1.0000
  H   H2717     1.0  0.80439  0.37510  0.36053  1.0000
  C   C2738     1.0  0.57702  0.39238  0.35958  1.0000
  H   H2718     1.0  0.55279  0.99499  0.21243  1.0000
  C   C2739     1.0  0.89459  0.10416  0.21591  1.0000
  C   C2740     1.0  0.89819  0.09818  0.23209  1.0000
  C   C2741     1.0  0.90598  0.10730  0.23838  1.0000
  C   C2742     1.0  0.91034  0.12244  0.22848  1.0000
  C   C2743     1.0  0.90713  0.12823  0.21212  1.0000
  C   C2744     1.0  0.89925  0.11913  0.20584  1.0000
  H   H2719     1.0  0.89468  0.08657  0.23991  1.0000
  H   H2720     1.0  0.90847  0.10267  0.25096  1.0000
  H   H2721     1.0  0.91051  0.13993  0.20439  1.0000
  H   H2722     1.0  0.58415  0.03483  0.37763  1.0000
  H   H2723     1.0  0.53142  0.05183  0.20464  1.0000
  H   H2724     1.0  0.51214  0.10301  0.25485  1.0000
  H   H2725     1.0  0.94958  0.15401  0.31472  1.0000
  S   S907      1.0  0.77045  0.10086  0.36946  1.0000
  H   H2726     1.0  0.93007  0.18140  0.30697  1.0000
  H   H2727     1.0  0.86673  0.14903  0.37916  1.0000
  C   C2745     1.0  0.52737  0.41238  0.23844  1.0000
  H   H2728     1.0  0.51385  0.34851  0.35790  1.0000
  H   H2729     1.0  0.67931  0.47887  0.36384  1.0000
  H   H2730     1.0  0.71387  0.13530  0.36827  1.0000
  H   H2731     1.0  0.92540  0.19107  0.35579  1.0000
  H   H2732     1.0  0.78899  0.44140  0.37794  1.0000
  H   H2733     1.0  0.53990  0.41500  0.23198  1.0000
  H   H2734     1.0  0.57709  0.20177  0.38353  1.0000
  H   H2735     1.0  0.58282  0.44219  0.37601  1.0000
  N   N238      1.0  0.94863  0.15728  0.33924  1.0000
  C   C2746     1.0  0.85703  0.43034  0.35084  1.0000
  S   S908      1.0  0.93388  0.34666  0.38341  1.0000
  S   S909      1.0  0.53130  0.99739  0.32106  1.0000
  H   H2736     1.0  0.59864  0.00357  0.36338  1.0000
  C   C2747     1.0  0.51225  0.37894  0.37588  1.0000
  H   H2737     1.0  0.59265  0.46680  0.32010  1.0000
  C   C2748     1.0  0.98340  0.13143  0.30609  1.0000
  H   H2738     1.0  0.77237  0.13726  0.33421  1.0000
  C   C2749     1.0  0.58415  0.02014  0.32707  1.0000
  C   C2750     1.0  0.85636  0.10667  0.35849  1.0000
  S   S910      1.0  0.50848  0.15555  0.35939  1.0000
  H   H2739     1.0  0.91783  0.20017  0.32755  1.0000
  H   H2740     1.0  0.55257  0.45033  0.37333  1.0000
  C   C2751     1.0  0.88904  0.00797  0.20217  1.0000
  C   C2752     1.0  0.85513  0.09850  0.24807  1.0000
  C   C2753     1.0  0.99180  0.09642  0.30915  1.0000
  N   N239      1.0  0.60034  0.13429  0.31101  1.0000
  C   C2754     1.0  0.60684  0.13749  0.32281  1.0000
  C   C2755     1.0  0.59111  0.14726  0.30108  1.0000
  C   C2756     1.0  0.60343  0.15389  0.32553  1.0000
  C   C2757     1.0  0.58735  0.16380  0.30353  1.0000
  C   C2758     1.0  0.59345  0.16707  0.31595  1.0000
  C   C2759     1.0  0.60387  0.11693  0.30865  1.0000
  H   H2741     1.0  0.61437  0.12723  0.33051  1.0000
  H   H2742     1.0  0.58628  0.14483  0.29143  1.0000
  C   C2760     1.0  0.50868  0.39984  0.26327  1.0000
  H   H2743     1.0  0.57958  0.17393  0.29596  1.0000
  C   C2761     1.0  0.87449  0.40466  0.27174  1.0000
  H   H2744     1.0  0.59430  0.11521  0.30259  1.0000
  H   H2745     1.0  0.61681  0.11380  0.30058  1.0000
  H   H2746     1.0  0.60309  0.10779  0.32107  1.0000
  C   C2762     1.0  0.89470  0.99816  0.21669  1.0000
  H   H2747     1.0  0.75472  0.12215  0.32681  1.0000
  C   C2763     1.0  0.85115  0.41634  0.25651  1.0000
  H   H2748     1.0  0.85496  0.07533  0.26700  1.0000
  H   H2749     1.0  0.95809  0.13126  0.33795  1.0000
  Fe  Fe451     1.0  0.87576  0.47483  0.28232  1.0000
  H   H2750     1.0  0.67467  0.46040  0.37977  1.0000
  H   H2751     1.0  0.97921  0.36889  0.33970  1.0000
  C   C2764     1.0  0.80766  0.01186  0.36529  1.0000
  H   H2752     1.0  0.87112  0.11426  0.27868  1.0000
  H   H2753     1.0  0.51653  0.04919  0.25823  1.0000
  S   S911      1.0  0.64100  0.45322  0.36790  1.0000
  C   C2765     1.0  0.97716  0.10595  0.30310  1.0000
  H   H2754     1.0  0.83118  0.10771  0.37455  1.0000
  H   H2755     1.0  0.61792  0.04907  0.19930  1.0000
  H   H2756     1.0  0.56252  0.47909  0.33250  1.0000
  H   H2757     1.0  0.61846  0.11271  0.36823  1.0000
  C   C2766     1.0  0.84405  0.41850  0.24261  1.0000
  Fe  Fe452     1.0  0.51142  0.47197  0.19087  1.0000
  H   H2758     1.0  0.82741  0.40007  0.38334  1.0000
  C   C2767     1.0  0.52191  0.05089  0.23131  1.0000
  C   C2768     1.0  0.86917  0.39952  0.23077  1.0000
  C   C2769     1.0  0.61293  0.13704  0.37460  1.0000
  C   C2770     1.0  0.73694  0.14427  0.36448  1.0000
  H   H2759     1.0  0.98036  0.14503  0.30461  1.0000
  C   C2771     1.0  0.53050  0.18532  0.38314  1.0000
  N   N240      1.0  0.97909  0.32716  0.35380  1.0000
  C   C2772     1.0  0.86872  0.13688  0.24982  1.0000
  H   H2760     1.0  0.50858  0.05471  0.23038  1.0000
  H   H2761     1.0  0.99397  0.08747  0.26401  1.0000
  C   C2773     1.0  0.87436  0.42270  0.34691  1.0000
  C   C2774     1.0  0.94865  0.43738  0.18624  1.0000
  C   C2775     1.0  0.72662  0.13585  0.36057  1.0000
  H   H2762     1.0  0.85748  0.12246  0.23138  1.0000
  H   H2763     1.0  0.89477  0.01855  0.19454  1.0000
  Fe  Fe453     1.0  0.87687  0.34197  0.37955  1.0000
  C   C2776     1.0  0.58986  0.47354  0.33017  1.0000
  C   C2777     1.0  0.85569  0.15138  0.37315  1.0000
  Fe  Fe454     1.0  0.56139  0.09045  0.19890  1.0000
  C   C2778     1.0  0.93116  0.43854  0.18789  1.0000
  C   C2779     1.0  0.50006  0.35226  0.35922  1.0000
  C   C2780     1.0  0.59110  0.01221  0.35459  1.0000
  H   H2764     1.0  0.50659  0.39255  0.27616  1.0000
  C   C2781     1.0  0.56879  0.03602  0.34859  1.0000
  S   S912      1.0  0.58407  0.06933  0.20254  1.0000
  S   S913      1.0  0.51859  0.00707  0.28498  1.0000
  H   H2765     1.0  0.85127  0.09398  0.23906  1.0000
  H   H2766     1.0  0.58612  0.01781  0.31454  1.0000
  Fe  Fe455     1.0  0.62071  0.43837  0.37346  1.0000
  H   H2767     1.0  0.85832  0.14581  0.25644  1.0000
  C   C2782     1.0  0.84180  0.12868  0.37395  1.0000
  H   H2768     1.0  0.60821  0.15625  0.33528  1.0000
  Fe  Fe456     1.0  0.54577  0.99712  0.27311  1.0000
  H   H2769     1.0  0.50729  0.44095  0.27538  1.0000
  C   C2783     1.0  0.85737  0.08800  0.26364  1.0000
  C   C2784     1.0  0.87589  0.39763  0.24488  1.0000
  C   C2785     1.0  0.84201  0.11379  0.36945  1.0000
  H   H2770     1.0  0.87064  0.14195  0.23594  1.0000
  S   S914      1.0  0.52104  0.12427  0.19221  1.0000
  C   C2786     1.0  0.96769  0.31536  0.35772  1.0000
  H   H2771     1.0  0.80539  0.01930  0.35307  1.0000
  C   C2787     1.0  0.94479  0.16232  0.32357  1.0000
  H   H2772     1.0  0.95970  0.34903  0.34778  1.0000
  H   H2773     1.0  0.88048  0.13546  0.35186  1.0000
  H   H2774     1.0  0.93221  0.09896  0.19724  1.0000
  H   H2775     1.0  0.49926  0.02582  0.32411  1.0000
  H   H2776     1.0  0.72531  0.12087  0.34408  1.0000
  H   H2777     1.0  0.95405  0.32172  0.36156  1.0000
  S   S915      1.0  0.84850  0.48110  0.27991  1.0000
  C   C2788     1.0  0.74952  0.12847  0.33733  1.0000
  C   C2789     1.0  0.73305  0.12777  0.34700  1.0000
  H   H2778     1.0  0.56369  0.04212  0.32354  1.0000
  H   H2779     1.0  0.88423  0.39273  0.27397  1.0000
  C   C2790     1.0  0.93115  0.18330  0.34646  1.0000
  C   C2791     1.0  0.86906  0.39866  0.36948  1.0000
  C   C2792     1.0  0.97310  0.34412  0.34833  1.0000
  H   H2780     1.0  0.57288  0.39860  0.34745  1.0000
  C   C2793     1.0  0.84602  0.42184  0.36410  1.0000
  H   H2781     1.0  0.87667  0.39355  0.22036  1.0000
  N   N241      1.0  0.75331  0.14433  0.35536  1.0000
  N   N242      1.0  0.85201  0.40603  0.37292  1.0000
  C   C2794     1.0  0.55192  0.04438  0.21814  1.0000
  S   S916      1.0  0.55387  0.99810  0.24530  1.0000
  H   H2782     1.0  0.86465  0.40485  0.28371  1.0000
  C   C2795     1.0  0.54716  0.40345  0.37255  1.0000
  H   H2783     1.0  0.57787  0.04639  0.23799  1.0000
  H   H2784     1.0  0.94580  0.11005  0.21369  1.0000
  H   H2785     1.0  0.88094  0.13623  0.25321  1.0000
  C   C2796     1.0  0.85871  0.11465  0.24377  1.0000
  H   H2786     1.0  0.77790  0.14784  0.35526  1.0000
  H   H2787     1.0  0.83260  0.42788  0.36715  1.0000
  H   H2788     1.0  0.57602  0.02432  0.24477  1.0000
  H   H2789     1.0  0.59801  0.42786  0.32800  1.0000
  C   C2797     1.0  0.98404  0.35543  0.34384  1.0000
  N   N243      1.0  0.55613  0.04125  0.23349  1.0000
  H   H2790     1.0  0.88861  0.38989  0.24536  1.0000
  H   H2791     1.0  0.85892  0.44800  0.18895  1.0000
  H   H2792     1.0  0.55266  0.22471  0.38280  1.0000
  N   N244      1.0  0.86464  0.12008  0.25459  1.0000
  H   H2793     1.0  0.53556  0.39794  0.26133  1.0000
  H   H2794     1.0  0.85676  0.16207  0.36200  1.0000
  H   H2795     1.0  0.88128  0.10931  0.34314  1.0000
  H   H2796     1.0  0.58281  0.03345  0.22283  1.0000
  H   H2797     1.0  0.90493  0.00099  0.22045  1.0000
  C   C2798     1.0  0.53475  0.04921  0.21682  1.0000
  C   C2799     1.0  0.50199  0.09670  0.25591  1.0000
  H   H2798     1.0  0.97126  0.12256  0.19919  1.0000
  C   C2800     1.0  0.86301  0.09379  0.27475  1.0000
  H   H2799     1.0  0.82187  0.37776  0.36762  1.0000
  C   C2801     1.0  0.94218  0.16765  0.35054  1.0000
  C   C2802     1.0  0.86360  0.44658  0.20016  1.0000
  C   C2803     1.0  0.87022  0.11461  0.35197  1.0000
  H   H2800     1.0  0.59041  0.17978  0.31819  1.0000
  H   H2801     1.0  0.85206  0.44266  0.34356  1.0000
  C   C2804     1.0  0.57295  0.48046  0.33713  1.0000
  C   C2805     1.0  0.86655  0.10998  0.27002  1.0000
  C   C2806     1.0  0.79619  0.98962  0.36134  1.0000
  H   H2802     1.0  0.84384  0.15527  0.38251  1.0000
  H   H2803     1.0  0.81686  0.03134  0.37023  1.0000
  S   S917      1.0  0.50240  0.08407  0.20186  1.0000
  N   N245      1.0  0.81043  0.35754  0.38289  1.0000
  C   C2807     1.0  0.51335  0.41952  0.23075  1.0000
  C   C2808     1.0  0.67320  0.47436  0.37723  1.0000
  C   C2809     1.0  0.81429  0.01870  0.37489  1.0000
  C   C2810     1.0  0.61766  0.05916  0.18813  1.0000
  S   S918      1.0  0.80975  0.08207  0.37407  1.0000
  C   C2811     1.0  0.52494  0.40275  0.25492  1.0000
  C   C2812     1.0  0.50314  0.45293  0.25027  1.0000
  H   H2804     1.0  0.83438  0.33976  0.38103  1.0000
  H   H2805     1.0  0.60395  0.99884  0.33447  1.0000
  H   H2806     1.0  0.97060  0.30478  0.36850  1.0000
  Fe  Fe457     1.0  0.78375  0.07568  0.38261  1.0000
  H   H2807     1.0  0.95507  0.42869  0.19587  1.0000
  H   H2808     1.0  0.85740  0.98971  0.18718  1.0000
  H   H2809     1.0  0.76086  0.16657  0.35506  1.0000
  H   H2810     1.0  0.60961  0.48354  0.35528  1.0000
  H   H2811     1.0  0.61621  0.46857  0.33197  1.0000
  H   H2812     1.0  0.50588  0.07980  0.27949  1.0000
  H   H2813     1.0  0.99336  0.11755  0.26148  1.0000
  H   H2814     1.0  0.50102  0.37605  0.34169  1.0000
  H   H2815     1.0  0.96915  0.31018  0.34650  1.0000
  C   C2813     1.0  0.99799  0.12187  0.31221  1.0000
  H   H2816     1.0  0.96548  0.35428  0.38314  1.0000
  C   C2814     1.0  0.56955  0.48847  0.35060  1.0000
  H   H2817     1.0  0.53589  0.15733  0.40784  1.0000
  S   S919      1.0  0.79950  0.10569  0.55713  1.0000
  N   N246      1.0  0.71215  0.16747  0.54933  1.0000
  S   S920      1.0  0.83351  0.09745  0.57340  1.0000
  Fe  Fe458     1.0  0.81728  0.12030  0.55987  1.0000
  S   S921      1.0  0.83091  0.13770  0.53790  1.0000
  Fe  Fe459     1.0  0.81416  0.08349  0.57305  1.0000
  S   S922      1.0  0.82297  0.05752  0.56696  1.0000
  C   C2815     1.0  0.50108  0.31189  0.54182  1.0000
  Fe  Fe460     1.0  0.86331  0.21215  0.54491  1.0000
  S   S923      1.0  0.88818  0.19501  0.53612  1.0000
  S   S924      1.0  0.83890  0.20282  0.55653  1.0000
  Fe  Fe461     1.0  0.87907  0.24312  0.53531  1.0000
  S   S925      1.0  0.90501  0.22848  0.52549  1.0000
  S   S926      1.0  0.87698  0.27102  0.53213  1.0000
  Fe  Fe462     1.0  0.89132  0.21668  0.51383  1.0000
  S   S927      1.0  0.90009  0.21624  0.48625  1.0000
  Fe  Fe463     1.0  0.89923  0.20853  0.54879  1.0000
  S   S928      1.0  0.92006  0.19498  0.56308  1.0000
  S   S929      1.0  0.86565  0.23299  0.52173  1.0000
  S   S930      1.0  0.87404  0.22401  0.55954  1.0000
  C   C2816     1.0  0.69084  0.14285  0.45309  1.0000
  Fe  Fe464     1.0  0.87437  0.16870  0.43802  1.0000
  S   S931      1.0  0.84851  0.18458  0.43568  1.0000
  S   S932      1.0  0.87849  0.16014  0.46466  1.0000
  Fe  Fe465     1.0  0.84864  0.16912  0.41791  1.0000
  S   S933      1.0  0.82409  0.16136  0.42029  1.0000
  Fe  Fe466     1.0  0.86252  0.20076  0.41333  1.0000
  S   S934      1.0  0.87329  0.15150  0.42233  1.0000
  S   S935      1.0  0.88858  0.18557  0.41654  1.0000
  Fe  Fe467     1.0  0.65060  0.43476  0.38980  1.0000
  H   H2818     1.0  0.53743  0.13432  0.39385  1.0000
  S   S936      1.0  0.82350  0.08919  0.41150  1.0000
  H   H2819     1.0  0.72756  0.11484  0.44162  1.0000
  S   S937      1.0  0.65598  0.45238  0.57356  1.0000
  H   H2820     1.0  0.51112  0.29292  0.42818  1.0000
  S   S938      1.0  0.97800  0.32237  0.56515  1.0000
  S   S939      1.0  0.86829  0.31987  0.39901  1.0000
  C   C2817     1.0  0.84253  0.33744  0.44503  1.0000
  H   H2821     1.0  0.52355  0.41066  0.55170  1.0000
  H   H2822     1.0  0.73558  0.09772  0.39614  1.0000
  H   H2823     1.0  0.51909  0.17728  0.53696  1.0000
  C   C2818     1.0  0.51399  0.41101  0.57811  1.0000
  C   C2819     1.0  0.78977  0.35253  0.40897  1.0000
  H   H2824     1.0  0.52415  0.39215  0.41240  1.0000
  H   H2825     1.0  0.59131  0.09882  0.39677  1.0000
  H   H2826     1.0  0.62913  0.48560  0.41174  1.0000
  C   C2820     1.0  0.53036  0.28891  0.44240  1.0000
  H   H2827     1.0  0.86540  0.13044  0.46450  1.0000
  S   S940      1.0  0.67870  0.42276  0.38665  1.0000
  C   C2821     1.0  0.85786  0.13275  0.49704  1.0000
  H   H2828     1.0  0.77744  0.35651  0.41703  1.0000
  C   C2822     1.0  0.96600  0.34104  0.38901  1.0000
  C   C2823     1.0  0.58083  0.21815  0.49403  1.0000
  Fe  Fe468     1.0  0.55572  0.37420  0.55867  1.0000
  S   S941      1.0  0.58150  0.35687  0.55815  1.0000
  S   S942      1.0  0.54856  0.38747  0.53374  1.0000
  H   H2829     1.0  0.71456  0.41365  0.38553  1.0000
  S   S943      1.0  0.85323  0.22848  0.41423  1.0000
  C   C2824     1.0  0.57469  0.22595  0.41034  1.0000
  Fe  Fe469     1.0  0.76657  0.10854  0.39386  1.0000
  C   C2825     1.0  0.89006  0.26475  0.39599  1.0000
  H   H2830     1.0  0.69043  0.99132  0.43614  1.0000
  Fe  Fe470     1.0  0.61480  0.43480  0.41111  1.0000
  S   S944      1.0  0.59946  0.42248  0.43563  1.0000
  N   N247      1.0  0.68102  0.47908  0.38845  1.0000
  H   H2831     1.0  0.51274  0.14671  0.51997  1.0000
  H   H2832     1.0  0.85986  0.18338  0.53139  1.0000
  H   H2833     1.0  0.60168  0.10954  0.40526  1.0000
  S   S945      1.0  0.63442  0.44962  0.40919  1.0000
  Fe  Fe471     1.0  0.53477  0.33949  0.47594  1.0000
  S   S946      1.0  0.56155  0.32479  0.46848  1.0000
  S   S947      1.0  0.52271  0.34084  0.50307  1.0000
  Fe  Fe472     1.0  0.52715  0.34486  0.44125  1.0000
  S   S948      1.0  0.55301  0.33001  0.43135  1.0000
  Fe  Fe473     1.0  0.54931  0.31186  0.45635  1.0000
  S   S949      1.0  0.55516  0.28348  0.46023  1.0000
  Fe  Fe474     1.0  0.56252  0.34456  0.44425  1.0000
  S   S950      1.0  0.58430  0.35619  0.42733  1.0000
  S   S951      1.0  0.53677  0.36054  0.45285  1.0000
  Fe  Fe475     1.0  0.64347  0.12513  0.57434  1.0000
  S   S952      1.0  0.66194  0.13869  0.57748  1.0000
  Fe  Fe476     1.0  0.64351  0.14377  0.53789  1.0000
  S   S953      1.0  0.66189  0.15915  0.53743  1.0000
  S   S954      1.0  0.62787  0.14448  0.51964  1.0000
  Fe  Fe477     1.0  0.67614  0.13492  0.55139  1.0000
  S   S955      1.0  0.70489  0.12865  0.54177  1.0000
  Fe  Fe478     1.0  0.64650  0.16173  0.56338  1.0000
  S   S956      1.0  0.63662  0.18605  0.57233  1.0000
  S   S957      1.0  0.65900  0.11920  0.54950  1.0000
  S   S958      1.0  0.62694  0.14859  0.56261  1.0000
  N   N248      1.0  0.57947  0.20330  0.49128  1.0000
  C   C2826     1.0  0.86240  0.29661  0.58378  1.0000
  Fe  Fe479     1.0  0.61570  0.13488  0.43916  1.0000
  S   S959      1.0  0.61142  0.16278  0.42879  1.0000
  S   S960      1.0  0.59606  0.12510  0.46110  1.0000
  Fe  Fe480     1.0  0.65012  0.12807  0.41452  1.0000
  S   S961      1.0  0.64833  0.15559  0.40218  1.0000
  C   C2827     1.0  0.68194  0.17910  0.55596  1.0000
  Fe  Fe481     1.0  0.63904  0.15951  0.42886  1.0000
  S   S962      1.0  0.64832  0.17473  0.44140  1.0000
  Fe  Fe482     1.0  0.62092  0.15552  0.40358  1.0000
  H   H2834     1.0  0.74597  0.03919  0.57918  1.0000
  S   S963      1.0  0.64273  0.13192  0.44099  1.0000
  S   S964      1.0  0.62335  0.12766  0.41408  1.0000
  Fe  Fe483     1.0  0.50907  0.23212  0.43363  1.0000
  C   C2828     1.0  0.57588  0.15399  0.55281  1.0000
  Fe  Fe484     1.0  0.52396  0.20194  0.41714  1.0000
  S   S965      1.0  0.51293  0.18375  0.43974  1.0000
  H   H2835     1.0  0.59295  0.21965  0.49534  1.0000
  Fe  Fe485     1.0  0.52107  0.19757  0.45451  1.0000
  S   S966      1.0  0.53282  0.18449  0.47696  1.0000
  S   S967      1.0  0.53443  0.21385  0.43185  1.0000
  Fe  Fe486     1.0  0.78702  0.40274  0.57013  1.0000
  S   S968      1.0  0.79170  0.42891  0.55883  1.0000
  H   H2836     1.0  0.73111  0.17564  0.52828  1.0000
  Fe  Fe487     1.0  0.81579  0.38745  0.54381  1.0000
  S   S969      1.0  0.82225  0.41245  0.53012  1.0000
  S   S970      1.0  0.83137  0.36502  0.53296  1.0000
  Fe  Fe488     1.0  0.81950  0.41630  0.55619  1.0000
  S   S971      1.0  0.84100  0.42434  0.56122  1.0000
  Fe  Fe489     1.0  0.79386  0.42229  0.53414  1.0000
  S   S972      1.0  0.77771  0.43883  0.51588  1.0000
  S   S973      1.0  0.81478  0.39056  0.56964  1.0000
  S   S974      1.0  0.78754  0.39682  0.54558  1.0000
  Fe  Fe490     1.0  0.78392  0.11165  0.58201  1.0000
  S   S975      1.0  0.93788  0.32026  0.54978  1.0000
  H   H2837     1.0  0.91707  0.41259  0.57603  1.0000
  H   H2838     1.0  0.82628  0.32208  0.40947  1.0000
  S   S976      1.0  0.93310  0.35625  0.56140  1.0000
  C   C2829     1.0  0.86958  0.16226  0.57713  1.0000
  Fe  Fe491     1.0  0.91962  0.34556  0.54823  1.0000
  S   S977      1.0  0.91063  0.35892  0.52432  1.0000
  Fe  Fe492     1.0  0.94970  0.33005  0.56524  1.0000
  H   H2839     1.0  0.75815  0.43207  0.54994  1.0000
  Fe  Fe493     1.0  0.52815  0.23536  0.53854  1.0000
  Fe  Fe494     1.0  0.75085  0.41778  0.42842  1.0000
  S   S978      1.0  0.77006  0.43303  0.41171  1.0000
  S   S979      1.0  0.72253  0.42943  0.43436  1.0000
  Fe  Fe495     1.0  0.77826  0.38598  0.43569  1.0000
  S   S980      1.0  0.79928  0.39844  0.41934  1.0000
  S   S981      1.0  0.78513  0.35941  0.45036  1.0000
  Fe  Fe496     1.0  0.78562  0.42028  0.43155  1.0000
  S   S982      1.0  0.80401  0.42904  0.44065  1.0000
  H   H2840     1.0  0.70871  0.08377  0.45575  1.0000
  S   S983      1.0  0.76545  0.40711  0.44927  1.0000
  S   S984      1.0  0.76178  0.39510  0.41659  1.0000
  H   H2841     1.0  0.71267  0.46346  0.41030  1.0000
  H   H2842     1.0  0.59235  0.20042  0.39549  1.0000
  H   H2843     1.0  0.70005  0.45615  0.39053  1.0000
  C   C2830     1.0  0.75112  0.05021  0.57761  1.0000
  C   C2831     1.0  0.59456  0.18934  0.49014  1.0000
  H   H2844     1.0  0.78660  0.04147  0.54837  1.0000
  H   H2845     1.0  0.77956  0.01505  0.43116  1.0000
  H   H2846     1.0  0.85878  0.17243  0.57442  1.0000
  S   S985      1.0  0.86439  0.32826  0.44329  1.0000
  C   C2832     1.0  0.82289  0.14294  0.46516  1.0000
  C   C2833     1.0  0.95172  0.33412  0.39154  1.0000
  C   C2834     1.0  0.83634  0.34835  0.43114  1.0000
  H   H2847     1.0  0.61470  0.20584  0.52038  1.0000
  H   H2848     1.0  0.61367  0.21814  0.57509  1.0000
  H   H2849     1.0  0.84159  0.15214  0.58076  1.0000
  C   C2835     1.0  0.80730  0.35143  0.44819  1.0000
  C   C2836     1.0  0.81354  0.34041  0.46197  1.0000
  C   C2837     1.0  0.83114  0.33365  0.46048  1.0000
  C   C2838     1.0  0.81876  0.35553  0.43281  1.0000
  H   H2850     1.0  0.80475  0.33716  0.47387  1.0000
  H   H2851     1.0  0.83588  0.32521  0.47123  1.0000
  H   H2852     1.0  0.81406  0.36374  0.42199  1.0000
  C   C2839     1.0  0.51495  0.36209  0.40390  1.0000
  H   H2853     1.0  0.97155  0.35864  0.55065  1.0000
  H   H2854     1.0  0.89105  0.27312  0.42612  1.0000
  C   C2840     1.0  0.78518  0.43589  0.49507  1.0000
  C   C2841     1.0  0.77349  0.43947  0.48467  1.0000
  C   C2842     1.0  0.77917  0.43710  0.46801  1.0000
  C   C2843     1.0  0.79663  0.43162  0.46157  1.0000
  C   C2844     1.0  0.80834  0.42814  0.47193  1.0000
  C   C2845     1.0  0.80260  0.43001  0.48875  1.0000
  H   H2855     1.0  0.76000  0.44405  0.48951  1.0000
  H   H2856     1.0  0.77009  0.43990  0.46002  1.0000
  H   H2857     1.0  0.82186  0.42393  0.46694  1.0000
  H   H2858     1.0  0.81169  0.42737  0.49666  1.0000
  C   C2846     1.0  0.85332  0.36370  0.53060  1.0000
  C   C2847     1.0  0.85915  0.36995  0.54131  1.0000
  C   C2848     1.0  0.87681  0.36800  0.53981  1.0000
  C   C2849     1.0  0.88859  0.36039  0.52716  1.0000
  C   C2850     1.0  0.88271  0.35443  0.51630  1.0000
  C   C2851     1.0  0.86514  0.35576  0.51823  1.0000
  H   H2859     1.0  0.85009  0.37598  0.55098  1.0000
  H   H2860     1.0  0.88130  0.37265  0.54823  1.0000
  H   H2861     1.0  0.89180  0.34855  0.50651  1.0000
  H   H2862     1.0  0.86072  0.35077  0.51002  1.0000
  H   H2863     1.0  0.85654  0.15780  0.52441  1.0000
  Fe  Fe497     1.0  0.87844  0.32874  0.41636  1.0000
  H   H2864     1.0  0.82323  0.02594  0.55993  1.0000
  H   H2865     1.0  0.65418  0.36754  0.39722  1.0000
  H   H2866     1.0  0.98997  0.37953  0.54365  1.0000
  H   H2867     1.0  0.56779  0.33947  0.52526  1.0000
  H   H2868     1.0  0.84500  0.13617  0.44599  1.0000
  C   C2852     1.0  0.51001  0.18901  0.53393  1.0000
  H   H2869     1.0  0.55788  0.32903  0.54601  1.0000
  S   S986      1.0  0.54042  0.19439  0.39333  1.0000
  H   H2870     1.0  0.91175  0.38432  0.57769  1.0000
  H   H2871     1.0  0.93860  0.27651  0.53045  1.0000
  C   C2853     1.0  0.81666  0.00954  0.39090  1.0000
  H   H2872     1.0  0.52199  0.15035  0.49756  1.0000
  C   C2854     1.0  0.53052  0.35255  0.39673  1.0000
  C   C2855     1.0  0.57851  0.14166  0.46536  1.0000
  C   C2856     1.0  0.57066  0.14277  0.48210  1.0000
  C   C2857     1.0  0.55682  0.15615  0.48558  1.0000
  C   C2858     1.0  0.55044  0.16813  0.47234  1.0000
  C   C2859     1.0  0.55815  0.16697  0.45559  1.0000
  C   C2860     1.0  0.57233  0.15385  0.45212  1.0000
  H   H2873     1.0  0.57546  0.13338  0.49234  1.0000
  H   H2874     1.0  0.55093  0.15707  0.49854  1.0000
  H   H2875     1.0  0.55332  0.17624  0.44532  1.0000
  H   H2876     1.0  0.57839  0.15302  0.43921  1.0000
  H   H2877     1.0  0.62749  0.36693  0.41968  1.0000
  C   C2861     1.0  0.86150  0.25926  0.40795  1.0000
  H   H2878     1.0  0.74909  0.44111  0.57715  1.0000
  C   C2862     1.0  0.63346  0.15389  0.49815  1.0000
  C   C2863     1.0  0.62469  0.15179  0.48712  1.0000
  C   C2864     1.0  0.62887  0.15874  0.46981  1.0000
  C   C2865     1.0  0.64184  0.16789  0.46338  1.0000
  C   C2866     1.0  0.65029  0.17050  0.47447  1.0000
  C   C2867     1.0  0.64618  0.16339  0.49188  1.0000
  H   H2879     1.0  0.61482  0.14448  0.49188  1.0000
  H   H2880     1.0  0.62211  0.15682  0.46144  1.0000
  H   H2881     1.0  0.66027  0.17765  0.46955  1.0000
  H   H2882     1.0  0.65288  0.16517  0.50041  1.0000
  C   C2868     1.0  0.62449  0.19709  0.54317  1.0000
  C   C2869     1.0  0.62428  0.20054  0.55858  1.0000
  C   C2870     1.0  0.61389  0.21544  0.56317  1.0000
  C   C2871     1.0  0.60360  0.22679  0.55242  1.0000
  N   N249      1.0  0.57505  0.11998  0.40672  1.0000
  C   C2872     1.0  0.65152  0.37443  0.40715  1.0000
  H   H2883     1.0  0.59539  0.23818  0.55610  1.0000
  C   C2873     1.0  0.54156  0.27696  0.45174  1.0000
  C   C2874     1.0  0.54191  0.25970  0.45431  1.0000
  C   C2875     1.0  0.53087  0.25441  0.44779  1.0000
  C   C2876     1.0  0.51974  0.26640  0.43838  1.0000
  H   H2884     1.0  0.55071  0.25045  0.46134  1.0000
  H   H2885     1.0  0.53103  0.24110  0.45000  1.0000
  H   H2886     1.0  0.82118  0.01499  0.39871  1.0000
  H   H2887     1.0  0.56993  0.24638  0.42322  1.0000
  H   H2888     1.0  0.53744  0.34209  0.40455  1.0000
  H   H2889     1.0  0.96804  0.29358  0.40986  1.0000
  C   C2877     1.0  0.68248  0.43097  0.41483  1.0000
  C   C2878     1.0  0.69240  0.43227  0.42536  1.0000
  C   C2879     1.0  0.71029  0.42692  0.42150  1.0000
  C   C2880     1.0  0.71821  0.42023  0.40711  1.0000
  C   C2881     1.0  0.59355  0.13064  0.56849  1.0000
  H   H2890     1.0  0.66873  0.43525  0.41782  1.0000
  H   H2891     1.0  0.68624  0.43758  0.43642  1.0000
  H   H2892     1.0  0.91042  0.15629  0.58152  1.0000
  C   C2882     1.0  0.54793  0.24530  0.39509  1.0000
  C   C2883     1.0  0.90211  0.25736  0.46322  1.0000
  C   C2884     1.0  0.59206  0.40574  0.43318  1.0000
  C   C2885     1.0  0.59511  0.40227  0.41718  1.0000
  C   C2886     1.0  0.59220  0.38723  0.41551  1.0000
  C   C2887     1.0  0.58551  0.37589  0.42976  1.0000
  C   C2888     1.0  0.58126  0.37987  0.44569  1.0000
  C   C2889     1.0  0.58470  0.39474  0.44742  1.0000
  H   H2893     1.0  0.60002  0.41100  0.40607  1.0000
  H   H2894     1.0  0.59540  0.38429  0.40314  1.0000
  H   H2895     1.0  0.57609  0.37114  0.45675  1.0000
  H   H2896     1.0  0.58219  0.39742  0.45984  1.0000
  H   H2897     1.0  0.80334  0.00621  0.57183  1.0000
  C   C2890     1.0  0.54143  0.37455  0.52511  1.0000
  C   C2891     1.0  0.53234  0.36246  0.53568  1.0000
  C   C2892     1.0  0.52649  0.35231  0.52876  1.0000
  C   C2893     1.0  0.53000  0.35396  0.51123  1.0000
  C   C2894     1.0  0.53921  0.36593  0.50059  1.0000
  C   C2895     1.0  0.54471  0.37639  0.50754  1.0000
  H   H2898     1.0  0.52954  0.36110  0.54919  1.0000
  H   H2899     1.0  0.51939  0.34305  0.53704  1.0000
  H   H2900     1.0  0.54200  0.36723  0.48703  1.0000
  H   H2901     1.0  0.55174  0.38575  0.49932  1.0000
  C   C2896     1.0  0.84264  0.30174  0.54711  1.0000
  H   H2902     1.0  0.85995  0.40691  0.53187  1.0000
  H   H2903     1.0  0.50728  0.38960  0.55252  1.0000
  H   H2904     1.0  0.71882  0.99162  0.41634  1.0000
  H   H2905     1.0  0.59899  0.17780  0.58075  1.0000
  C   C2897     1.0  0.77631  0.01751  0.41899  1.0000
  H   H2906     1.0  0.51088  0.19108  0.56892  1.0000
  C   C2898     1.0  0.89626  0.24760  0.39532  1.0000
  C   C2899     1.0  0.57398  0.28323  0.51881  1.0000
  C   C2900     1.0  0.54950  0.21445  0.49156  1.0000
  H   H2907     1.0  0.61055  0.40105  0.54400  1.0000
  C   C2901     1.0  0.74004  0.44441  0.56899  1.0000
  H   H2908     1.0  0.63224  0.18553  0.53963  1.0000
  H   H2909     1.0  0.85229  0.28061  0.57480  1.0000
  H   H2910     1.0  0.62106  0.42747  0.54032  1.0000
  H   H2911     1.0  0.77024  0.08845  0.57337  1.0000
  H   H2912     1.0  0.58063  0.32758  0.54031  1.0000
  S   S987      1.0  0.59023  0.23686  0.52408  1.0000
  C   C2902     1.0  0.86613  0.31251  0.58072  1.0000
  C   C2903     1.0  0.64992  0.39150  0.54960  1.0000
  C   C2904     1.0  0.56627  0.24176  0.41415  1.0000
  C   C2905     1.0  0.56568  0.28426  0.57657  1.0000
  C   C2906     1.0  0.56407  0.29848  0.51188  1.0000
  N   N250      1.0  0.72369  0.45322  0.57380  1.0000
  H   H2913     1.0  0.53851  0.32178  0.58154  1.0000
  H   H2914     1.0  0.62578  0.38164  0.54315  1.0000
  N   N251      1.0  0.70234  0.11035  0.44690  1.0000
  C   C2907     1.0  0.69257  0.12895  0.40838  1.0000
  C   C2908     1.0  0.69250  0.11376  0.40465  1.0000
  C   C2909     1.0  0.50053  0.29476  0.54561  1.0000
  H   H2915     1.0  0.55212  0.37240  0.41495  1.0000
  C   C2910     1.0  0.81258  0.99363  0.39704  1.0000
  H   H2916     1.0  0.68064  0.13752  0.41216  1.0000
  H   H2917     1.0  0.56258  0.11028  0.39352  1.0000
  C   C2911     1.0  0.55285  0.25148  0.40642  1.0000
  C   C2912     1.0  0.60403  0.22342  0.53689  1.0000
  C   C2913     1.0  0.87266  0.27053  0.40243  1.0000
  N   N252      1.0  0.94013  0.24824  0.56762  1.0000
  C   C2914     1.0  0.82442  0.14091  0.41854  1.0000
  C   C2915     1.0  0.83964  0.12867  0.41639  1.0000
  C   C2916     1.0  0.83927  0.11251  0.41490  1.0000
  C   C2917     1.0  0.82375  0.10873  0.41516  1.0000
  C   C2918     1.0  0.80857  0.12092  0.41757  1.0000
  C   C2919     1.0  0.80891  0.13693  0.41928  1.0000
  H   H2918     1.0  0.85170  0.13164  0.41571  1.0000
  H   H2919     1.0  0.85106  0.10310  0.41303  1.0000
  H   H2920     1.0  0.79650  0.11795  0.41829  1.0000
  H   H2921     1.0  0.79708  0.14631  0.42105  1.0000
  C   C2920     1.0  0.88762  0.27530  0.54536  1.0000
  C   C2921     1.0  0.89200  0.29107  0.54180  1.0000
  C   C2922     1.0  0.89975  0.29487  0.55280  1.0000
  C   C2923     1.0  0.90277  0.28303  0.56756  1.0000
  S   S988      1.0  0.60218  0.45376  0.39129  1.0000
  C   C2924     1.0  0.89107  0.26334  0.55988  1.0000
  H   H2922     1.0  0.88934  0.30039  0.53058  1.0000
  H   H2923     1.0  0.90309  0.30707  0.55001  1.0000
  C   C2925     1.0  0.57841  0.20317  0.39585  1.0000
  H   H2924     1.0  0.88770  0.25118  0.56275  1.0000
  C   C2926     1.0  0.89560  0.19952  0.48065  1.0000
  C   C2927     1.0  0.88795  0.18719  0.49286  1.0000
  C   C2928     1.0  0.88331  0.17470  0.48792  1.0000
  C   C2929     1.0  0.88602  0.17471  0.47076  1.0000
  C   C2930     1.0  0.89402  0.18683  0.45863  1.0000
  C   C2931     1.0  0.89889  0.19914  0.46355  1.0000
  H   H2925     1.0  0.88541  0.18736  0.50607  1.0000
  H   H2926     1.0  0.87727  0.16528  0.49738  1.0000
  H   H2927     1.0  0.89667  0.18664  0.44545  1.0000
  H   H2928     1.0  0.90502  0.20850  0.45405  1.0000
  H   H2929     1.0  0.73766  0.43866  0.53139  1.0000
  C   C2932     1.0  0.70806  0.10266  0.39992  1.0000
  C   C2933     1.0  0.70831  0.41879  0.39669  1.0000
  H   H2930     1.0  0.58472  0.13252  0.41984  1.0000
  C   C2934     1.0  0.88695  0.28502  0.45307  1.0000
  C   C2935     1.0  0.74143  0.11982  0.57673  1.0000
  C   C2936     1.0  0.93451  0.25115  0.53578  1.0000
  C   C2937     1.0  0.71242  0.12399  0.57289  1.0000
  C   C2938     1.0  0.71874  0.12409  0.55570  1.0000
  C   C2939     1.0  0.73648  0.12152  0.54917  1.0000
  C   C2940     1.0  0.74780  0.11955  0.55961  1.0000
  H   H2931     1.0  0.73888  0.15643  0.54244  1.0000
  H   H2932     1.0  0.74144  0.12150  0.53587  1.0000
  H   H2933     1.0  0.76140  0.11806  0.55436  1.0000
  C   C2941     1.0  0.66123  0.39774  0.55474  1.0000
  C   C2942     1.0  0.64349  0.42573  0.54920  1.0000
  H   H2934     1.0  0.85056  0.33066  0.54521  1.0000
  N   N253      1.0  0.63571  0.40215  0.54447  1.0000
  S   S989      1.0  0.86020  0.18671  0.39499  1.0000
  C   C2943     1.0  0.99088  0.33745  0.55910  1.0000
  S   S990      1.0  0.55877  0.38789  0.57674  1.0000
  H   H2935     1.0  0.67042  0.17819  0.58232  1.0000
  C   C2944     1.0  0.63245  0.41907  0.54416  1.0000
  H   H2936     1.0  0.57768  0.15235  0.52723  1.0000
  C   C2945     1.0  0.83277  0.15620  0.54259  1.0000
  C   C2946     1.0  0.82042  0.16363  0.55497  1.0000
  C   C2947     1.0  0.82227  0.17815  0.55887  1.0000
  C   C2948     1.0  0.83655  0.18525  0.55051  1.0000
  C   C2949     1.0  0.84884  0.17797  0.53796  1.0000
  C   C2950     1.0  0.84689  0.16352  0.53394  1.0000
  H   H2937     1.0  0.80929  0.15836  0.56142  1.0000
  H   H2938     1.0  0.86775  0.28369  0.40301  1.0000
  H   H2939     1.0  0.87262  0.43226  0.54465  1.0000
  S   S991      1.0  0.54073  0.25628  0.53680  1.0000
  H   H2940     1.0  0.51306  0.16784  0.50817  1.0000
  C   C2951     1.0  0.89825  0.41967  0.54714  1.0000
  H   H2941     1.0  0.59887  0.12522  0.52916  1.0000
  C   C2952     1.0  0.54690  0.14690  0.40739  1.0000
  C   C2953     1.0  0.67919  0.13293  0.45500  1.0000
  S   S992      1.0  0.90452  0.27843  0.38927  1.0000
  H   H2942     1.0  0.52133  0.41992  0.57802  1.0000
  C   C2954     1.0  0.76696  0.00832  0.39882  1.0000
  H   H2943     1.0  0.78302  0.06923  0.55348  1.0000
  H   H2944     1.0  0.57507  0.27181  0.51460  1.0000
  H   H2945     1.0  0.90067  0.25810  0.58248  1.0000
  H   H2946     1.0  0.69664  0.17748  0.53097  1.0000
  H   H2947     1.0  0.53726  0.21280  0.49071  1.0000
  H   H2948     1.0  0.69880  0.12582  0.57807  1.0000
  C   C2955     1.0  0.89715  0.40169  0.52448  1.0000
  S   S993      1.0  0.50613  0.26022  0.42964  1.0000
  C   C2956     1.0  0.91194  0.39824  0.53079  1.0000
  Fe  Fe498     1.0  0.78193  0.40960  0.40124  1.0000
  C   C2957     1.0  0.91246  0.40730  0.54220  1.0000
  C   C2958     1.0  0.85385  0.32107  0.55605  1.0000
  H   H2949     1.0  0.58750  0.09637  0.41948  1.0000
  H   H2950     1.0  0.70805  0.14459  0.41077  1.0000
  C   C2959     1.0  0.76469  0.07785  0.57449  1.0000
  H   H2951     1.0  0.88550  0.17943  0.57538  1.0000
  H   H2952     1.0  0.93505  0.22343  0.57346  1.0000
  C   C2960     1.0  0.69047  0.42424  0.40045  1.0000
  H   H2953     1.0  0.57754  0.15231  0.57829  1.0000
  C   C2961     1.0  0.93629  0.23499  0.56396  1.0000
  H   H2954     1.0  0.56692  0.16615  0.55198  1.0000
  C   C2962     1.0  0.50567  0.37511  0.39338  1.0000
  H   H2955     1.0  0.53716  0.25256  0.38943  1.0000
  C   C2963     1.0  0.69706  0.17489  0.54421  1.0000
  H   H2956     1.0  0.85436  0.13837  0.56672  1.0000
  C   C2964     1.0  0.98111  0.33082  0.39370  1.0000
  N   N254      1.0  0.89654  0.26962  0.45025  1.0000
  Fe  Fe499     1.0  0.58340  0.36881  0.57814  1.0000
  H   H2957     1.0  0.84153  0.28829  0.55026  1.0000
  H   H2958     1.0  0.78597  0.37392  0.38847  1.0000
  H   H2959     1.0  0.57640  0.37266  0.39040  1.0000
  H   H2960     1.0  0.69960  0.09062  0.43712  1.0000
  H   H2961     1.0  0.73198  0.41636  0.40385  1.0000
  H   H2962     1.0  0.66762  0.40090  0.41956  1.0000
  H   H2963     1.0  0.62547  0.11099  0.54980  1.0000
  C   C2965     1.0  0.72375  0.12183  0.58337  1.0000
  H   H2964     1.0  0.84484  0.38331  0.38868  1.0000
  C   C2966     1.0  0.72266  0.99500  0.42646  1.0000
  C   C2967     1.0  0.80947  0.04311  0.57643  1.0000
  C   C2968     1.0  0.56022  0.30108  0.57841  1.0000
  C   C2969     1.0  0.86178  0.32488  0.56681  1.0000
  C   C2970     1.0  0.98192  0.31367  0.40112  1.0000
  C   C2971     1.0  0.69550  0.48792  0.41006  1.0000
  H   H2965     1.0  0.67237  0.38930  0.55908  1.0000
  C   C2972     1.0  0.51399  0.18232  0.39024  1.0000
  H   H2966     1.0  0.73681  0.99099  0.42435  1.0000
  H   H2967     1.0  0.70804  0.09089  0.39701  1.0000
  H   H2968     1.0  0.58392  0.43447  0.57926  1.0000
  H   H2969     1.0  0.72598  0.15587  0.52878  1.0000
  H   H2970     1.0  0.72124  0.09159  0.43522  1.0000
  C   C2973     1.0  0.56402  0.20129  0.49017  1.0000
  H   H2971     1.0  0.81267  0.18379  0.56851  1.0000
  H   H2972     1.0  0.72455  0.15790  0.57021  1.0000
  C   C2974     1.0  0.55671  0.22952  0.39146  1.0000
  C   C2975     1.0  0.56428  0.38138  0.38909  1.0000
  H   H2973     1.0  0.51240  0.31617  0.53378  1.0000
  C   C2976     1.0  0.73363  0.44274  0.54331  1.0000
  S   S994      1.0  0.69268  0.41525  0.57679  1.0000
  S   S995      1.0  0.49978  0.22172  0.41675  1.0000
  C   C2977     1.0  0.55086  0.22973  0.49407  1.0000
  H   H2974     1.0  0.72602  0.40077  0.55971  1.0000
  S   S996      1.0  0.60831  0.37430  0.57882  1.0000
  H   H2975     1.0  0.53971  0.24007  0.49510  1.0000
  H   H2976     1.0  0.66558  0.13796  0.45874  1.0000
  S   S997      1.0  0.91189  0.28753  0.58191  1.0000
  N   N255      1.0  0.85858  0.22149  0.46670  1.0000
  C   C2978     1.0  0.85620  0.22279  0.48308  1.0000
  C   C2979     1.0  0.85264  0.20950  0.46313  1.0000
  C   C2980     1.0  0.84816  0.21151  0.49643  1.0000
  C   C2981     1.0  0.84473  0.19791  0.47615  1.0000
  C   C2982     1.0  0.84254  0.19891  0.49291  1.0000
  C   C2983     1.0  0.86704  0.23330  0.45278  1.0000
  H   H2977     1.0  0.86097  0.23224  0.48593  1.0000
  H   H2978     1.0  0.85440  0.20869  0.45011  1.0000
  H   H2979     1.0  0.84665  0.21228  0.50945  1.0000
  H   H2980     1.0  0.84072  0.18798  0.47323  1.0000
  H   H2981     1.0  0.83670  0.18982  0.50317  1.0000
  H   H2982     1.0  0.87465  0.22690  0.44227  1.0000
  H   H2983     1.0  0.85730  0.24406  0.44772  1.0000
  H   H2984     1.0  0.87610  0.23803  0.45694  1.0000
  H   H2985     1.0  0.77137  0.02867  0.55946  1.0000
  C   C2984     1.0  0.51954  0.28363  0.43565  1.0000
  H   H2986     1.0  0.76619  0.04630  0.54236  1.0000
  H   H2987     1.0  0.85733  0.14459  0.50078  1.0000
  H   H2988     1.0  0.62132  0.38337  0.44165  1.0000
  H   H2989     1.0  0.93076  0.22556  0.54509  1.0000
  C   C2985     1.0  0.84015  0.39727  0.38657  1.0000
  C   C2986     1.0  0.63998  0.40359  0.44436  1.0000
  H   H2990     1.0  0.53018  0.30224  0.44018  1.0000
  C   C2987     1.0  0.69476  0.46821  0.39426  1.0000
  H   H2991     1.0  0.87037  0.41470  0.51033  1.0000
  C   C2988     1.0  0.51525  0.40577  0.56340  1.0000
  H   H2992     1.0  0.55734  0.29897  0.50231  1.0000
  C   C2989     1.0  0.62414  0.39561  0.53870  1.0000
  C   C2990     1.0  0.50604  0.39397  0.56387  1.0000
  H   H2993     1.0  0.52808  0.20457  0.52943  1.0000
  C   C2991     1.0  0.89763  0.26022  0.47964  1.0000
  H   H2994     1.0  0.90998  0.24522  0.46097  1.0000
  Fe  Fe500     1.0  0.89537  0.30576  0.39164  1.0000
  C   C2992     1.0  0.72363  0.10653  0.39940  1.0000
  N   N256      1.0  0.56996  0.22010  0.39900  1.0000
  S   S998      1.0  0.50708  0.35827  0.42592  1.0000
  S   S999      1.0  0.80055  0.12801  0.58360  1.0000
  C   C2993     1.0  0.82172  0.34331  0.38873  1.0000
  C   C2994     1.0  0.93830  0.26464  0.53964  1.0000
  H   H2995     1.0  0.71756  0.14386  0.44673  1.0000
  C   C2995     1.0  0.88366  0.42275  0.54060  1.0000
  N   N257      1.0  0.84590  0.13607  0.48597  1.0000
  H   H2996     1.0  0.56781  0.24344  0.49729  1.0000
  C   C2996     1.0  0.71686  0.45134  0.54850  1.0000
  C   C2997     1.0  0.58179  0.14617  0.56765  1.0000
  H   H2997     1.0  0.82968  0.31000  0.54713  1.0000
  Fe  Fe501     1.0  0.54473  0.21172  0.56667  1.0000
  C   C2998     1.0  0.84036  0.13758  0.45898  1.0000
  H   H2998     1.0  0.90404  0.25294  0.43301  1.0000
  C   C2999     1.0  0.72361  0.12153  0.40356  1.0000
  H   H2999     1.0  0.82413  0.14270  0.50518  1.0000
  C   C3000     1.0  0.69763  0.16759  0.57823  1.0000
  H   H3000     1.0  0.90973  0.24304  0.39042  1.0000
  S   S1000     1.0  0.63206  0.41851  0.39347  1.0000
  H   H3001     1.0  0.61274  0.10033  0.56856  1.0000
  H   H3002     1.0  0.67596  0.10917  0.45290  1.0000
  H   H3003     1.0  0.84511  0.35128  0.41916  1.0000
  C   C3001     1.0  0.81719  0.33320  0.40478  1.0000
  C   C3002     1.0  0.66285  0.38399  0.40722  1.0000
  H   H3004     1.0  0.59282  0.17955  0.48450  1.0000
  C   C3003     1.0  0.95242  0.31704  0.39926  1.0000
  C   C3004     1.0  0.56290  0.31312  0.51736  1.0000
  H   H3005     1.0  0.54607  0.26366  0.40940  1.0000
  H   H3006     1.0  0.55992  0.15690  0.41999  1.0000
  H   H3007     1.0  0.87467  0.30061  0.47143  1.0000
  H   H3008     1.0  0.59008  0.27083  0.53673  1.0000
  H   H3009     1.0  0.81399  0.14572  0.45691  1.0000
  H   H3010     1.0  0.88280  0.29485  0.44273  1.0000
  C   C3005     1.0  0.56662  0.23164  0.49526  1.0000
  N   N258      1.0  0.57138  0.31259  0.52938  1.0000
  H   H3011     1.0  0.55524  0.32492  0.51186  1.0000
  C   C3006     1.0  0.71206  0.45650  0.56391  1.0000
  H   H3012     1.0  0.71907  0.00893  0.42521  1.0000
  Fe  Fe502     1.0  0.91946  0.31278  0.57395  1.0000
  H   H3013     1.0  0.87132  0.12819  0.49068  1.0000
  H   H3014     1.0  0.91310  0.27158  0.42594  1.0000
  H   H3015     1.0  0.88179  0.11996  0.58444  1.0000
  H   H3016     1.0  0.94155  0.31155  0.40110  1.0000
  H   H3017     1.0  0.51756  0.30577  0.58121  1.0000
  S   S1001     1.0  0.55854  0.23069  0.56792  1.0000
  C   C3007     1.0  0.51151  0.15531  0.50755  1.0000
  C   C3008     1.0  0.63657  0.37410  0.41971  1.0000
  H   H3018     1.0  0.65240  0.37805  0.55006  1.0000
  C   C3009     1.0  0.55059  0.38124  0.40311  1.0000
  H   H3019     1.0  0.59724  0.18322  0.50290  1.0000
  C   C3010     1.0  0.65895  0.39321  0.41982  1.0000
  S   S1002     1.0  0.52245  0.32541  0.46524  1.0000
  H   H3020     1.0  0.65108  0.40179  0.45009  1.0000
  C   C3011     1.0  0.89750  0.13655  0.58384  1.0000
  C   C3012     1.0  0.63310  0.38348  0.43212  1.0000
  C   C3013     1.0  0.77265  0.04190  0.55318  1.0000
  C   C3014     1.0  0.61276  0.10765  0.55538  1.0000
  C   C3015     1.0  0.77119  0.00503  0.41453  1.0000
  C   C3016     1.0  0.70811  0.13289  0.40768  1.0000
  C   C3017     1.0  0.70835  0.13622  0.44843  1.0000
  H   H3021     1.0  0.63642  0.41711  0.43803  1.0000
  N   N259      1.0  0.80201  0.38812  0.48474  1.0000
  C   C3018     1.0  0.81396  0.38488  0.49426  1.0000
  C   C3019     1.0  0.80684  0.38543  0.46863  1.0000
  C   C3020     1.0  0.83131  0.37909  0.48756  1.0000
  C   C3021     1.0  0.82408  0.37972  0.46152  1.0000
  C   C3022     1.0  0.83637  0.37646  0.47108  1.0000
  C   C3023     1.0  0.78381  0.39357  0.49214  1.0000
  H   H3022     1.0  0.81015  0.38675  0.50713  1.0000
  H   H3023     1.0  0.79737  0.38770  0.46116  1.0000
  H   H3024     1.0  0.84071  0.37658  0.49517  1.0000
  H   H3025     1.0  0.82783  0.37774  0.44870  1.0000
  H   H3026     1.0  0.84976  0.37183  0.46574  1.0000
  H   H3027     1.0  0.77783  0.38240  0.49744  1.0000
  H   H3028     1.0  0.78201  0.40045  0.50228  1.0000
  H   H3029     1.0  0.77701  0.40246  0.48243  1.0000
  C   C3024     1.0  0.77181  0.06692  0.56329  1.0000
  C   C3025     1.0  0.90146  0.26661  0.43306  1.0000
  S   S1003     1.0  0.51940  0.23004  0.56671  1.0000
  S   S1004     1.0  0.54142  0.35622  0.57862  1.0000
  H   H3030     1.0  0.88410  0.27819  0.49537  1.0000
  H   H3031     1.0  0.85444  0.12308  0.50864  1.0000
  C   C3026     1.0  0.83814  0.42885  0.58114  1.0000
  S   S1005     1.0  0.55225  0.21543  0.53852  1.0000
  H   H3032     1.0  0.62885  0.40071  0.45469  1.0000
  C   C3027     1.0  0.56036  0.14654  0.41444  1.0000
  N   N260      1.0  0.64420  0.39294  0.43199  1.0000
  Fe  Fe503     1.0  0.88511  0.16990  0.40041  1.0000
  H   H3033     1.0  0.84801  0.26384  0.41274  1.0000
  H   H3034     1.0  0.79752  0.33043  0.42758  1.0000
  H   H3035     1.0  0.75468  0.39468  0.56613  1.0000
  C   C3028     1.0  0.93366  0.23617  0.54794  1.0000
  H   H3036     1.0  0.85939  0.42915  0.52405  1.0000
  H   H3037     1.0  0.78241  0.04231  0.41073  1.0000
  Fe  Fe504     1.0  0.56752  0.33957  0.57933  1.0000
  C   C3029     1.0  0.88230  0.28834  0.46931  1.0000
  H   H3038     1.0  0.90187  0.25036  0.48993  1.0000
  H   H3039     1.0  0.66659  0.41990  0.55859  1.0000
  H   H3040     1.0  0.62650  0.39879  0.52470  1.0000
  H   H3041     1.0  0.58756  0.29717  0.54606  1.0000
  H   H3042     1.0  0.68622  0.15568  0.45511  1.0000
  H   H3043     1.0  0.80342  0.14894  0.48681  1.0000
  C   C3030     1.0  0.58103  0.29764  0.53634  1.0000
  C   C3031     1.0  0.56932  0.32793  0.53549  1.0000
  C   C3032     1.0  0.70828  0.09320  0.44366  1.0000
  C   C3033     1.0  0.88764  0.27580  0.48269  1.0000
  C   C3034     1.0  0.58248  0.28273  0.53117  1.0000
  C   C3035     1.0  0.86766  0.24217  0.40706  1.0000
  C   C3036     1.0  0.77430  0.03589  0.39151  1.0000
  C   C3037     1.0  0.59367  0.13076  0.54023  1.0000
  H   H3044     1.0  0.85074  0.30405  0.53414  1.0000
  C   C3038     1.0  0.81699  0.14479  0.48188  1.0000
  H   H3045     1.0  0.61421  0.48073  0.56999  1.0000
  S   S1006     1.0  0.52172  0.27177  0.57740  1.0000
  H   H3046     1.0  0.92278  0.38838  0.52702  1.0000
  H   H3047     1.0  0.88998  0.22318  0.40013  1.0000
  H   H3048     1.0  0.92382  0.40463  0.54729  1.0000
  C   C3039     1.0  0.77788  0.03295  0.40748  1.0000
  C   C3040     1.0  0.82876  0.14126  0.49218  1.0000
  H   H3049     1.0  0.89677  0.39442  0.51578  1.0000
  Fe  Fe505     1.0  0.80274  0.09176  0.39794  1.0000
  C   C3041     1.0  0.71393  0.11976  0.44556  1.0000
  C   C3042     1.0  0.58955  0.10541  0.40712  1.0000
  C   C3043     1.0  0.72732  0.40352  0.57107  1.0000
  S   S1007     1.0  0.57566  0.31203  0.57795  1.0000
  C   C3044     1.0  0.94119  0.26293  0.55569  1.0000
  S   S1008     1.0  0.77788  0.08284  0.40782  1.0000
  C   C3045     1.0  0.51507  0.20448  0.52979  1.0000
  S   S1009     1.0  0.50905  0.23902  0.52292  1.0000
  S   S1010     1.0  0.67309  0.10816  0.40663  1.0000
  H   H3050     1.0  0.56280  0.18951  0.48815  1.0000
  C   C3046     1.0  0.98451  0.35452  0.55259  1.0000
  C   C3047     1.0  0.53322  0.40367  0.38633  1.0000
  C   C3048     1.0  0.99497  0.36631  0.54857  1.0000
  N   N261      1.0  0.76514  0.05318  0.56509  1.0000
  H   H3051     1.0  0.55833  0.26243  0.57448  1.0000
  C   C3049     1.0  0.56193  0.12032  0.39963  1.0000
  C   C3050     1.0  0.81248  0.02842  0.57027  1.0000
  H   H3052     1.0  0.89839  0.42675  0.55612  1.0000
  C   C3051     1.0  0.68516  0.11664  0.45178  1.0000
  C   C3052     1.0  0.85178  0.13425  0.46957  1.0000
  C   C3053     1.0  0.53657  0.28304  0.57770  1.0000
  C   C3054     1.0  0.54770  0.13385  0.39976  1.0000
  Fe  Fe506     1.0  0.56403  0.23582  0.53968  1.0000
  C   C3055     1.0  0.79472  0.36235  0.39287  1.0000
  C   C3056     1.0  0.61454  0.20862  0.53224  1.0000
  C   C3057     1.0  0.65798  0.41497  0.55449  1.0000
  H   H3053     1.0  0.93199  0.25236  0.52347  1.0000
  Fe  Fe507     1.0  0.53395  0.24960  0.56507  1.0000
  C   C3058     1.0  0.58182  0.14624  0.53899  1.0000
  C   C3059     1.0  0.74526  0.43917  0.55365  1.0000
  H   H3054     1.0  0.59835  0.12481  0.57995  1.0000
  C   C3060     1.0  0.86751  0.41628  0.52356  1.0000
  H   H3055     1.0  0.60604  0.19402  0.48193  1.0000
  H   H3056     1.0  0.51166  0.28585  0.54065  1.0000
  C   C3061     1.0  0.50329  0.21969  0.52616  1.0000
  H   H3057     1.0  0.86476  0.33724  0.56418  1.0000
  C   C3062     1.0  0.71279  0.41058  0.58201  1.0000
  S   S1011     1.0  0.90494  0.31296  0.41062  1.0000
  C   C3063     1.0  0.53496  0.39241  0.40169  1.0000
  C   C3064     1.0  0.57437  0.13281  0.41415  1.0000
  C   C3065     1.0  0.74360  0.40016  0.57463  1.0000
  S   S1012     1.0  0.90023  0.33729  0.57123  1.0000
  C   C3066     1.0  0.88465  0.16632  0.57768  1.0000
  H   H3058     1.0  0.76295  0.99890  0.39526  1.0000
  H   H3059     1.0  0.50676  0.18642  0.40174  1.0000
  H   H3060     1.0  0.64065  0.43908  0.54934  1.0000
  N   N262      1.0  0.88326  0.41380  0.52941  1.0000
  C   C3067     1.0  0.80106  0.33783  0.41489  1.0000
  N   N263      1.0  0.59936  0.12317  0.55485  1.0000
  N   N264      1.0  0.85050  0.30536  0.55897  1.0000
  C   C3068     1.0  0.85283  0.14149  0.57912  1.0000
  H   H3061     1.0  0.70760  0.45388  0.54073  1.0000
  C   C3069     1.0  0.76852  0.02369  0.38735  1.0000
  H   H3062     1.0  0.61095  0.09927  0.54814  1.0000
  H   H3063     1.0  0.94362  0.27368  0.55877  1.0000
  H   H3064     1.0  0.67431  0.38475  0.39728  1.0000
  N   N265      1.0  0.86854  0.14572  0.57993  1.0000
  H   H3065     1.0  0.67003  0.18515  0.55183  1.0000
  H   H3066     1.0  0.57906  0.27811  0.57554  1.0000
  H   H3067     1.0  0.86472  0.42935  0.57746  1.0000
  C   C3070     1.0  0.72784  0.16371  0.53658  1.0000
  C   C3071     1.0  0.89842  0.26728  0.57106  1.0000
  C   C3072     1.0  0.71263  0.16393  0.56608  1.0000
  C   C3073     1.0  0.88510  0.23633  0.40084  1.0000
  S   S1013     1.0  0.74269  0.12616  0.40428  1.0000
  S   S1014     1.0  0.88478  0.35194  0.39767  1.0000
  H   H3068     1.0  0.50679  0.37009  0.48169  1.0000
  C   C3074     1.0  0.85458  0.29319  0.57267  1.0000
  C   C3075     1.0  0.96749  0.30684  0.40409  1.0000
  C   C3076     1.0  0.68221  0.17527  0.57309  1.0000
  H   H3069     1.0  0.58492  0.21830  0.41661  1.0000
  Fe  Fe508     1.0  0.91054  0.33540  0.39008  1.0000
  Fe  Fe509     1.0  0.62340  0.46710  0.38748  1.0000
  H   H3070     1.0  0.99210  0.33623  0.39154  1.0000
  C   C3077     1.0  0.70208  0.47236  0.40532  1.0000
  C   C3078     1.0  0.89864  0.15335  0.58112  1.0000
  C   C3079     1.0  0.55394  0.27536  0.57594  1.0000
  H   H3071     1.0  0.57257  0.19345  0.40589  1.0000
  H   H3072     1.0  0.58333  0.40634  0.57567  1.0000
  S   S1015     1.0  0.55104  0.18433  0.57957  1.0000
  C   C3080     1.0  0.60800  0.39433  0.58161  1.0000
  C   C3081     1.0  0.59421  0.40798  0.57921  1.0000
  H   H3073     1.0  0.69896  0.46312  0.56787  1.0000
  H   H3074     1.0  0.83854  0.40142  0.39846  1.0000
  C   C3082     1.0  0.53101  0.29980  0.57978  1.0000
  C   C3083     1.0  0.80131  0.01718  0.57707  1.0000
  C   C3084     1.0  0.54285  0.30888  0.57998  1.0000
  C   C3085     1.0  0.88237  0.13298  0.58287  1.0000
  S   S1016     1.0  0.79086  0.11796  0.38600  1.0000
  C   C3086     1.0  0.59460  0.42393  0.58117  1.0000
  H   H3075     1.0  0.50032  0.17522  0.48073  1.0000
  H   H3076     1.0  0.49910  0.38257  0.50615  1.0000
  H   H3077     1.0  0.57680  0.01519  0.38606  1.0000
  Fe  Fe510     1.0  0.91514  0.34571  0.58471  1.0000
  C   C3087     1.0  0.94186  0.24715  0.58477  1.0000
  H   H3078     1.0  0.94992  0.25576  0.58477  1.0000
  H   H3079     1.0  0.52111  0.41238  0.38501  1.0000
  C   C3088     1.0  0.53777  0.44878  0.76967  1.0000
  S   S1017     1.0  0.87899  0.11955  0.76889  1.0000
  S   S1018     1.0  0.54983  0.47724  0.76617  1.0000
  C   C3089     1.0  0.99070  0.09411  0.66355  1.0000
  C   C3090     1.0  0.97720  0.14619  0.65319  1.0000
  H   H3080     1.0  0.99000  0.08601  0.67604  1.0000
  S   S1019     1.0  0.82345  0.10320  0.62085  1.0000
  Fe  Fe511     1.0  0.91824  0.46344  0.76974  1.0000
  Fe  Fe512     1.0  0.89417  0.11151  0.67716  1.0000
  S   S1020     1.0  0.91348  0.09165  0.66485  1.0000
  S   S1021     1.0  0.87461  0.10424  0.70083  1.0000
  Fe  Fe513     1.0  0.90583  0.14033  0.64923  1.0000
  S   S1022     1.0  0.92652  0.12290  0.63474  1.0000
  S   S1023     1.0  0.89658  0.16846  0.64175  1.0000
  Fe  Fe514     1.0  0.90644  0.10749  0.64054  1.0000
  S   S1024     1.0  0.90116  0.09767  0.62037  1.0000
  Fe  Fe515     1.0  0.93170  0.10872  0.66036  1.0000
  S   S1025     1.0  0.95599  0.09782  0.67031  1.0000
  S   S1026     1.0  0.88565  0.12588  0.65327  1.0000
  S   S1027     1.0  0.91262  0.12761  0.67430  1.0000
  S   S1028     1.0  0.89480  0.48407  0.76745  1.0000
  Fe  Fe516     1.0  0.65105  0.44668  0.62124  1.0000
  S   S1029     1.0  0.64445  0.44503  0.64910  1.0000
  H   H3081     1.0  0.51807  0.19974  0.59857  1.0000
  Fe  Fe517     1.0  0.54886  0.45481  0.67699  1.0000
  S   S1030     1.0  0.55892  0.42939  0.69208  1.0000
  Fe  Fe518     1.0  0.54735  0.41956  0.67662  1.0000
  S   S1031     1.0  0.56222  0.39691  0.66590  1.0000
  Fe  Fe519     1.0  0.53290  0.43269  0.70907  1.0000
  H   H3082     1.0  0.50453  0.05323  0.61915  1.0000
  S   S1032     1.0  0.53931  0.44478  0.66002  1.0000
  H   H3083     1.0  0.70333  0.41903  0.60547  1.0000
  S   S1033     1.0  0.52707  0.37725  0.61852  1.0000
  C   C3091     1.0  0.55650  0.17498  0.62687  1.0000
  C   C3092     1.0  0.89790  0.19598  0.59399  1.0000
  C   C3093     1.0  0.71454  0.41391  0.59679  1.0000
  S   S1034     1.0  0.90192  0.35814  0.60666  1.0000
  H   H3084     1.0  0.62561  0.40209  0.63739  1.0000
  C   C3094     1.0  0.87152  0.41271  0.74795  1.0000
  C   C3095     1.0  0.57199  0.16815  0.61697  1.0000
  H   H3085     1.0  0.73216  0.41284  0.61193  1.0000
  H   H3086     1.0  0.81094  0.02060  0.62941  1.0000
  N   N266      1.0  0.90974  0.07880  0.74316  1.0000
  C   C3096     1.0  0.84054  0.38556  0.60183  1.0000
  H   H3087     1.0  0.87276  0.42152  0.76926  1.0000
  H   H3088     1.0  0.57396  0.47888  0.69796  1.0000
  Fe  Fe520     1.0  0.51657  0.13442  0.66083  1.0000
  S   S1035     1.0  0.53095  0.14512  0.67281  1.0000
  C   C3097     1.0  0.60875  0.42623  0.58560  1.0000
  Fe  Fe521     1.0  0.53029  0.09840  0.67777  1.0000
  S   S1036     1.0  0.54644  0.10604  0.69072  1.0000
  S   S1037     1.0  0.52673  0.07155  0.68452  1.0000
  Fe  Fe522     1.0  0.52329  0.12637  0.69655  1.0000
  S   S1038     1.0  0.51296  0.13434  0.72164  1.0000
  Fe  Fe523     1.0  0.55292  0.12408  0.66595  1.0000
  S   S1039     1.0  0.57796  0.13258  0.65602  1.0000
  S   S1040     1.0  0.50659  0.11766  0.68524  1.0000
  S   S1041     1.0  0.53905  0.11444  0.65228  1.0000
  C   C3098     1.0  0.53335  0.43729  0.76308  1.0000
  H   H3089     1.0  0.52032  0.02987  0.60439  1.0000
  C   C3099     1.0  0.55028  0.19246  0.62365  1.0000
  H   H3090     1.0  0.92765  0.15851  0.61773  1.0000
  S   S1042     1.0  0.53964  0.03161  0.62717  1.0000
  H   H3091     1.0  0.79340  0.05723  0.59493  1.0000
  C   C3100     1.0  0.82035  0.43385  0.60820  1.0000
  S   S1043     1.0  0.91050  0.44630  0.75824  1.0000
  H   H3092     1.0  0.80211  0.04464  0.64385  1.0000
  C   C3101     1.0  0.78449  0.03498  0.59663  1.0000
  H   H3093     1.0  0.70750  0.46950  0.59008  1.0000
  C   C3102     1.0  0.50672  0.03107  0.60991  1.0000
  H   H3094     1.0  0.84396  0.12613  0.69157  1.0000
  Fe  Fe524     1.0  0.88627  0.46605  0.75781  1.0000
  S   S1044     1.0  0.87329  0.47603  0.73567  1.0000
  H   H3095     1.0  0.99721  0.15566  0.63344  1.0000
  Fe  Fe525     1.0  0.88008  0.44071  0.65957  1.0000
  S   S1045     1.0  0.89764  0.45546  0.63945  1.0000
  S   S1046     1.0  0.88695  0.42847  0.68488  1.0000
  Fe  Fe526     1.0  0.85563  0.44553  0.63651  1.0000
  S   S1047     1.0  0.87092  0.46129  0.61494  1.0000
  S   S1048     1.0  0.83247  0.43844  0.63353  1.0000
  Fe  Fe527     1.0  0.89364  0.44160  0.62203  1.0000
  H   H3096     1.0  0.71877  0.12194  0.59665  1.0000
  Fe  Fe528     1.0  0.54692  0.36817  0.59684  1.0000
  C   C3103     1.0  0.86212  0.39597  0.63008  1.0000
  S   S1049     1.0  0.87814  0.42518  0.64262  1.0000
  S   S1050     1.0  0.85574  0.45949  0.65576  1.0000
  S   S1051     1.0  0.76587  0.40042  0.59342  1.0000
  H   H3097     1.0  0.53808  0.19787  0.63100  1.0000
  H   H3098     1.0  0.62361  0.37570  0.63065  1.0000
  H   H3099     1.0  0.58258  0.20374  0.59123  1.0000
  C   C3104     1.0  0.82214  0.43043  0.59229  1.0000
  H   H3100     1.0  0.80797  0.43505  0.61683  1.0000
  H   H3101     1.0  0.84399  0.38181  0.58979  1.0000
  H   H3102     1.0  0.86162  0.43493  0.60556  1.0000
  C   C3105     1.0  0.90534  0.38299  0.61962  1.0000
  C   C3106     1.0  0.90812  0.39895  0.61864  1.0000
  C   C3107     1.0  0.84527  0.13545  0.67976  1.0000
  H   H3103     1.0  0.90232  0.37468  0.63184  1.0000
  H   H3104     1.0  0.90761  0.40275  0.63007  1.0000
  C   C3108     1.0  0.87896  0.46355  0.72046  1.0000
  C   C3109     1.0  0.87189  0.46943  0.70605  1.0000
  C   C3110     1.0  0.87522  0.45914  0.69440  1.0000
  C   C3111     1.0  0.88531  0.44277  0.69734  1.0000
  C   C3112     1.0  0.89286  0.43715  0.71141  1.0000
  C   C3113     1.0  0.88975  0.44754  0.72290  1.0000
  H   H3105     1.0  0.56057  0.42689  0.62843  1.0000
  H   H3106     1.0  0.86944  0.46363  0.68350  1.0000
  H   H3107     1.0  0.90075  0.42453  0.71369  1.0000
  H   H3108     1.0  0.89518  0.44281  0.73397  1.0000
  H   H3109     1.0  0.86619  0.28678  0.59430  1.0000
  S   S1052     1.0  0.67538  0.45198  0.60303  1.0000
  N   N267      1.0  0.85266  0.43143  0.73034  1.0000
  C   C3114     1.0  0.54178  0.46712  0.74185  1.0000
  S   S1053     1.0  0.56489  0.47451  0.66767  1.0000
  H   H3110     1.0  0.94931  0.34712  0.60832  1.0000
  C   C3115     1.0  0.92298  0.08315  0.70853  1.0000
  H   H3111     1.0  0.98357  0.11966  0.69030  1.0000
  C   C3116     1.0  0.50270  0.39192  0.68105  1.0000
  C   C3117     1.0  0.97223  0.47552  0.76382  1.0000
  S   S1054     1.0  0.77116  0.00874  0.59669  1.0000
  C   C3118     1.0  0.86416  0.41651  0.73388  1.0000
  H   H3112     1.0  0.92819  0.47892  0.72582  1.0000
  H   H3113     1.0  0.57811  0.00073  0.66456  1.0000
  H   H3114     1.0  0.50355  0.36805  0.65453  1.0000
  C   C3119     1.0  0.61086  0.44259  0.65734  1.0000
  S   S1055     1.0  0.94333  0.47132  0.75758  1.0000
  C   C3120     1.0  0.52970  0.06109  0.66821  1.0000
  C   C3121     1.0  0.52465  0.04562  0.67213  1.0000
  C   C3122     1.0  0.52747  0.03660  0.65952  1.0000
  C   C3123     1.0  0.53522  0.04312  0.64292  1.0000
  C   C3124     1.0  0.53997  0.05874  0.63892  1.0000
  C   C3125     1.0  0.53729  0.06770  0.65158  1.0000
  H   H3115     1.0  0.51873  0.04048  0.68500  1.0000
  H   H3116     1.0  0.52371  0.02456  0.66267  1.0000
  H   H3117     1.0  0.54606  0.06375  0.62608  1.0000
  H   H3118     1.0  0.54136  0.07954  0.64849  1.0000
  C   C3126     1.0  0.59205  0.12503  0.63856  1.0000
  C   C3127     1.0  0.58954  0.11172  0.63320  1.0000
  C   C3128     1.0  0.60099  0.10597  0.61921  1.0000
  N   N268      1.0  0.85300  0.14852  0.67776  1.0000
  C   C3129     1.0  0.61698  0.12735  0.61541  1.0000
  C   C3130     1.0  0.60581  0.13281  0.62967  1.0000
  H   H3119     1.0  0.57898  0.10565  0.64000  1.0000
  H   H3120     1.0  0.57684  0.42066  0.72174  1.0000
  S   S1056     1.0  0.52349  0.45897  0.69520  1.0000
  H   H3121     1.0  0.60780  0.14311  0.63377  1.0000
  H   H3122     1.0  0.58106  0.44350  0.75988  1.0000
  H   H3123     1.0  0.57523  0.43783  0.61161  1.0000
  C   C3131     1.0  0.95643  0.47084  0.77095  1.0000
  S   S1057     1.0  0.56003  0.10943  0.77506  1.0000
  H   H3124     1.0  0.50731  0.09504  0.65544  1.0000
  C   C3132     1.0  0.71844  0.45837  0.59007  1.0000
  H   H3125     1.0  0.58433  0.44111  0.66305  1.0000
  C   C3133     1.0  0.95924  0.39373  0.59561  1.0000
  C   C3134     1.0  0.55564  0.00250  0.69312  1.0000
  C   C3135     1.0  0.53972  0.15868  0.60371  1.0000
  C   C3136     1.0  0.52857  0.15158  0.61791  1.0000
  C   C3137     1.0  0.51358  0.16173  0.62519  1.0000
  C   C3138     1.0  0.50959  0.17908  0.61801  1.0000
  C   C3139     1.0  0.52093  0.18629  0.60384  1.0000
  H   H3126     1.0  0.55130  0.15064  0.59828  1.0000
  H   H3127     1.0  0.53152  0.13816  0.62307  1.0000
  H   H3128     1.0  0.54723  0.04490  0.70653  1.0000
  H   H3129     1.0  0.85527  0.09261  0.59721  1.0000
  H   H3130     1.0  0.85434  0.14250  0.70386  1.0000
  C   C3140     1.0  0.85520  0.15989  0.66264  1.0000
  H   H3131     1.0  0.58302  0.12032  0.69229  1.0000
  S   S1058     1.0  0.91395  0.43031  0.60176  1.0000
  Fe  Fe529     1.0  0.53620  0.00484  0.63730  1.0000
  N   N269      1.0  0.50796  0.37891  0.67271  1.0000
  S   S1059     1.0  0.64905  0.42599  0.61027  1.0000
  H   H3132     1.0  0.73263  0.05849  0.59897  1.0000
  H   H3133     1.0  0.86814  0.40774  0.72547  1.0000
  C   C3141     1.0  0.55227  0.39179  0.65271  1.0000
  C   C3142     1.0  0.53697  0.40201  0.64860  1.0000
  C   C3143     1.0  0.52931  0.39761  0.63793  1.0000
  C   C3144     1.0  0.53702  0.38314  0.63124  1.0000
  C   C3145     1.0  0.55236  0.37303  0.63528  1.0000
  C   C3146     1.0  0.55985  0.37724  0.64615  1.0000
  H   H3134     1.0  0.53097  0.41320  0.65373  1.0000
  H   H3135     1.0  0.51738  0.40538  0.63491  1.0000
  H   H3136     1.0  0.55818  0.36164  0.63049  1.0000
  H   H3137     1.0  0.57157  0.36920  0.64949  1.0000
  C   C3147     1.0  0.62236  0.45299  0.65467  1.0000
  C   C3148     1.0  0.61615  0.46993  0.65587  1.0000
  C   C3149     1.0  0.84480  0.43517  0.71575  1.0000
  H   H3138     1.0  0.96736  0.15172  0.64586  1.0000
  Fe  Fe530     1.0  0.81560  0.10411  0.59695  1.0000
  C   C3150     1.0  0.97580  0.10109  0.65713  1.0000
  C   C3151     1.0  0.97684  0.11138  0.64090  1.0000
  H   H3139     1.0  0.96543  0.11675  0.63582  1.0000
  C   C3152     1.0  0.90341  0.17627  0.62003  1.0000
  C   C3153     1.0  0.98855  0.37976  0.58637  1.0000
  N   N270      1.0  0.84873  0.39344  0.62337  1.0000
  C   C3154     1.0  0.81919  0.39364  0.62581  1.0000
  H   H3140     1.0  0.88061  0.19585  0.61834  1.0000
  H   H3141     1.0  0.58418  0.46974  0.73850  1.0000
  C   C3155     1.0  0.84519  0.10058  0.62089  1.0000
  C   C3156     1.0  0.84940  0.10378  0.63458  1.0000
  C   C3157     1.0  0.86655  0.10246  0.63479  1.0000
  C   C3158     1.0  0.87965  0.09774  0.62138  1.0000
  C   C3159     1.0  0.87549  0.09361  0.60815  1.0000
  C   C3160     1.0  0.85830  0.09535  0.60771  1.0000
  H   H3142     1.0  0.83932  0.10736  0.64500  1.0000
  H   H3143     1.0  0.86960  0.10489  0.64542  1.0000
  C   C3161     1.0  0.50337  0.40448  0.59310  1.0000
  Fe  Fe531     1.0  0.51489  0.44623  0.67984  1.0000
  S   S1060     1.0  0.62886  0.10636  0.59282  1.0000
  C   C3162     1.0  0.53358  0.44053  0.74579  1.0000
  C   C3163     1.0  0.53766  0.45553  0.73524  1.0000
  C   C3164     1.0  0.82051  0.05826  0.62620  1.0000
  H   H3144     1.0  0.53806  0.45807  0.72190  1.0000
  C   C3165     1.0  0.54219  0.46362  0.75897  1.0000
  C   C3166     1.0  0.54562  0.11473  0.76159  1.0000
  C   C3167     1.0  0.53057  0.12711  0.76394  1.0000
  C   C3168     1.0  0.52055  0.13292  0.75167  1.0000
  C   C3169     1.0  0.52531  0.12610  0.73719  1.0000
  C   C3170     1.0  0.53994  0.11320  0.73523  1.0000
  C   C3171     1.0  0.55010  0.10758  0.74736  1.0000
  H   H3145     1.0  0.54287  0.15769  0.74446  1.0000
  H   H3146     1.0  0.50925  0.14293  0.75328  1.0000
  H   H3147     1.0  0.54360  0.10767  0.72429  1.0000
  H   H3148     1.0  0.56167  0.09791  0.74553  1.0000
  H   H3149     1.0  0.77351  0.03769  0.60668  1.0000
  H   H3150     1.0  0.97094  0.33698  0.60027  1.0000
  C   C3172     1.0  0.81228  0.04470  0.63257  1.0000
  H   H3151     1.0  0.58054  0.44715  0.70043  1.0000
  C   C3173     1.0  0.95434  0.37833  0.59861  1.0000
  C   C3174     1.0  0.87737  0.11546  0.75007  1.0000
  C   C3175     1.0  0.88767  0.12198  0.73477  1.0000
  C   C3176     1.0  0.88698  0.11854  0.71961  1.0000
  C   C3177     1.0  0.87577  0.10881  0.71962  1.0000
  C   C3178     1.0  0.86529  0.10247  0.73490  1.0000
  C   C3179     1.0  0.86616  0.10569  0.75012  1.0000
  H   H3152     1.0  0.89632  0.12960  0.73467  1.0000
  H   H3153     1.0  0.89509  0.12350  0.70797  1.0000
  H   H3154     1.0  0.85648  0.09503  0.73498  1.0000
  H   H3155     1.0  0.85791  0.10094  0.76181  1.0000
  H   H3156     1.0  0.50526  0.00885  0.60302  1.0000
  C   C3180     1.0  0.55917  0.03080  0.68685  1.0000
  C   C3181     1.0  0.56339  0.14019  0.70187  1.0000
  C   C3182     1.0  0.83456  0.43555  0.61305  1.0000
  C   C3183     1.0  0.58694  0.46607  0.66250  1.0000
  S   S1061     1.0  0.52222  0.42013  0.69518  1.0000
  C   C3184     1.0  0.85052  0.43394  0.60186  1.0000
  C   C3185     1.0  0.57886  0.43127  0.72539  1.0000
  H   H3157     1.0  0.92862  0.09137  0.74367  1.0000
  H   H3158     1.0  0.50953  0.39238  0.69014  1.0000
  C   C3186     1.0  0.57904  0.43020  0.74217  1.0000
  H   H3159     1.0  0.85664  0.40367  0.63990  1.0000
  C   C3187     1.0  0.85312  0.38801  0.60855  1.0000
  C   C3188     1.0  0.54980  0.03281  0.70300  1.0000
  H   H3160     1.0  0.56367  0.04155  0.67797  1.0000
  C   C3189     1.0  0.83206  0.39612  0.63209  1.0000
  H   H3161     1.0  0.86350  0.48180  0.70405  1.0000
  H   H3162     1.0  0.89214  0.06674  0.73911  1.0000
  C   C3190     1.0  0.90288  0.07289  0.73345  1.0000
  C   C3191     1.0  0.58311  0.45887  0.73457  1.0000
  H   H3163     1.0  0.54518  0.47859  0.73355  1.0000
  C   C3192     1.0  0.59846  0.47646  0.65980  1.0000
  H   H3164     1.0  0.54925  0.16670  0.63675  1.0000
  H   H3165     1.0  0.74488  0.08337  0.59606  1.0000
  H   H3166     1.0  0.63360  0.41425  0.59109  1.0000
  C   C3193     1.0  0.90931  0.07508  0.71598  1.0000
  H   H3167     1.0  0.60248  0.99367  0.59030  1.0000
  C   C3194     1.0  0.83352  0.05822  0.61168  1.0000
  H   H3168     1.0  0.52701  0.13272  0.77485  1.0000
  H   H3169     1.0  0.55761  0.14389  0.69096  1.0000
  N   N271      1.0  0.58252  0.45994  0.71821  1.0000
  N   N272      1.0  0.83000  0.03131  0.61001  1.0000
  H   H3170     1.0  0.94094  0.37790  0.60329  1.0000
  C   C3195     1.0  0.59314  0.44914  0.66120  1.0000
  C   C3196     1.0  0.61472  0.11377  0.61030  1.0000
  H   H3171     1.0  0.59878  0.15755  0.59486  1.0000
  H   H3172     1.0  0.59922  0.09544  0.61530  1.0000
  C   C3197     1.0  0.98317  0.36457  0.58963  1.0000
  H   H3173     1.0  0.85300  0.42814  0.70591  1.0000
  H   H3174     1.0  0.88100  0.40110  0.75049  1.0000
  C   C3198     1.0  0.81729  0.03118  0.62433  1.0000
  C   C3199     1.0  0.96062  0.34834  0.59770  1.0000
  H   H3175     1.0  0.94059  0.09536  0.71270  1.0000
  C   C3200     1.0  0.90644  0.37777  0.60488  1.0000
  S   S1062     1.0  0.63375  0.46717  0.60675  1.0000
  H   H3176     1.0  0.84507  0.00678  0.60837  1.0000
  H   H3177     1.0  0.59676  0.47404  0.69680  1.0000
  H   H3178     1.0  0.90824  0.12631  0.58669  1.0000
  H   H3179     1.0  0.90351  0.07088  0.70820  1.0000
  H   H3180     1.0  0.83212  0.43168  0.71980  1.0000
  C   C3201     1.0  0.73084  0.41030  0.60048  1.0000
  H   H3181     1.0  0.84813  0.04476  0.59225  1.0000
  H   H3182     1.0  0.83990  0.06877  0.60662  1.0000
  C   C3202     1.0  0.84960  0.15835  0.64900  1.0000
  H   H3183     1.0  0.87276  0.31509  0.58891  1.0000
  H   H3184     1.0  0.55498  0.21649  0.60814  1.0000
  C   C3203     1.0  0.52256  0.36524  0.67655  1.0000
  H   H3185     1.0  0.86187  0.16991  0.66086  1.0000
  H   H3186     1.0  0.55959  0.14521  0.75494  1.0000
  C   C3204     1.0  0.91930  0.16890  0.61116  1.0000
  C   C3205     1.0  0.83554  0.01669  0.60202  1.0000
  C   C3206     1.0  0.57156  0.01408  0.66500  1.0000
  H   H3187     1.0  0.54522  0.15866  0.71470  1.0000
  H   H3188     1.0  0.53023  0.42566  0.77127  1.0000
  C   C3207     1.0  0.58138  0.44400  0.74678  1.0000
  H   H3189     1.0  0.56260  0.01849  0.65626  1.0000
  C   C3208     1.0  0.83815  0.04457  0.60368  1.0000
  H   H3190     1.0  0.62760  0.13338  0.60863  1.0000
  C   C3209     1.0  0.74359  0.06101  0.58892  1.0000
  C   C3210     1.0  0.99265  0.11507  0.63137  1.0000
  C   C3211     1.0  0.82348  0.38839  0.61057  1.0000
  C   C3212     1.0  0.85229  0.43065  0.58595  1.0000
  H   H3191     1.0  0.92814  0.08489  0.69502  1.0000
  N   N273      1.0  0.56383  0.14383  0.72908  1.0000
  C   C3213     1.0  0.57795  0.13089  0.72990  1.0000
  C   C3214     1.0  0.55655  0.14855  0.71528  1.0000
  C   C3215     1.0  0.58502  0.12217  0.71676  1.0000
  C   C3216     1.0  0.57770  0.12691  0.70264  1.0000
  C   C3217     1.0  0.55700  0.15330  0.74263  1.0000
  H   H3192     1.0  0.58353  0.12695  0.74099  1.0000
  C   C3218     1.0  0.59755  0.17117  0.59428  1.0000
  H   H3193     1.0  0.59602  0.11172  0.71759  1.0000
  H   H3194     1.0  0.90385  0.08664  0.76654  1.0000
  C   C3219     1.0  0.84795  0.44268  0.74071  1.0000
  C   C3220     1.0  0.85501  0.43926  0.75489  1.0000
  C   C3221     1.0  0.98647  0.12816  0.67816  1.0000
  S   S1063     1.0  0.79741  0.08840  0.59773  1.0000
  S   S1064     1.0  0.57181  0.34984  0.59947  1.0000
  H   H3195     1.0  0.83764  0.14343  0.64036  1.0000
  C   C3222     1.0  0.90323  0.07593  0.76152  1.0000
  H   H3196     1.0  0.52907  0.35921  0.66557  1.0000
  H   H3197     1.0  0.96067  0.13343  0.67438  1.0000
  S   S1065     1.0  0.50014  0.15265  0.64343  1.0000
  H   H3198     1.0  0.57513  0.40093  0.61783  1.0000
  C   C3223     1.0  0.86019  0.14966  0.69138  1.0000
  H   H3199     1.0  0.84322  0.44883  0.70956  1.0000
  H   H3200     1.0  0.57701  0.41882  0.75164  1.0000
  H   H3201     1.0  0.88957  0.07502  0.76496  1.0000
  C   C3224     1.0  0.79570  0.04613  0.58991  1.0000
  C   C3225     1.0  0.84169  0.14505  0.65092  1.0000
  H   H3202     1.0  0.53822  0.44595  0.78288  1.0000
  H   H3203     1.0  0.85804  0.16303  0.69234  1.0000
  C   C3226     1.0  0.97342  0.13597  0.66924  1.0000
  H   H3204     1.0  0.51135  0.44283  0.64727  1.0000
  C   C3227     1.0  0.58397  0.47564  0.70550  1.0000
  C   C3228     1.0  0.57528  0.19561  0.60125  1.0000
  H   H3205     1.0  0.57273  0.43874  0.63336  1.0000
  N   N274      1.0  0.58109  0.17843  0.60427  1.0000
  H   H3206     1.0  0.89636  0.48541  0.64749  1.0000
  H   H3207     1.0  0.61570  0.42947  0.65648  1.0000
  H   H3208     1.0  0.81350  0.38680  0.60546  1.0000
  C   C3229     1.0  0.83945  0.13356  0.66641  1.0000
  H   H3209     1.0  0.91078  0.06401  0.76791  1.0000
  H   H3210     1.0  0.82446  0.01125  0.60284  1.0000
  C   C3230     1.0  0.53605  0.17604  0.59675  1.0000
  H   H3211     1.0  0.82854  0.40079  0.64364  1.0000
  H   H3212     1.0  0.71458  0.44772  0.60032  1.0000
  N   N275      1.0  0.56214  0.01573  0.68216  1.0000
  C   C3231     1.0  0.91092  0.38831  0.58909  1.0000
  H   H3213     1.0  0.51816  0.35549  0.68759  1.0000
  H   H3214     1.0  0.81678  0.06886  0.63243  1.0000
  C   C3232     1.0  0.99391  0.14845  0.64625  1.0000
  C   C3233     1.0  0.89283  0.19000  0.61148  1.0000
  H   H3215     1.0  0.86956  0.38354  0.63563  1.0000
  H   H3216     1.0  0.57651  0.15455  0.61942  1.0000
  C   C3234     1.0  0.92998  0.08903  0.71852  1.0000
  S   S1066     1.0  0.87292  0.45432  0.78351  1.0000
  H   H3217     1.0  0.58155  0.02176  0.66028  1.0000
  N   N276      1.0  0.58703  0.41542  0.62659  1.0000
  C   C3235     1.0  0.60118  0.41594  0.63158  1.0000
  C   C3236     1.0  0.58607  0.40115  0.62239  1.0000
  C   C3237     1.0  0.61448  0.40164  0.63328  1.0000
  C   C3238     1.0  0.59911  0.38661  0.62394  1.0000
  C   C3239     1.0  0.61336  0.38686  0.62952  1.0000
  C   C3240     1.0  0.57320  0.43050  0.62486  1.0000
  H   H3218     1.0  0.60226  0.42749  0.63418  1.0000
  H   H3219     1.0  0.99461  0.48007  0.76862  1.0000
  H   H3220     1.0  0.80592  0.39628  0.63247  1.0000
  H   H3221     1.0  0.86414  0.01925  0.77559  1.0000
  H   H3222     1.0  0.92901  0.25096  0.59278  1.0000
  S   S1067     1.0  0.51061  0.99785  0.64711  1.0000
  C   C3241     1.0  0.92318  0.08671  0.73595  1.0000
  C   C3242     1.0  0.58079  0.44629  0.71346  1.0000
  H   H3223     1.0  0.87418  0.14422  0.68882  1.0000
  H   H3224     1.0  0.83906  0.45464  0.73779  1.0000
  H   H3225     1.0  0.85188  0.16711  0.63690  1.0000
  H   H3226     1.0  0.87090  0.40298  0.61986  1.0000
  H   H3227     1.0  0.85162  0.44850  0.76272  1.0000
  H   H3228     1.0  0.83363  0.12298  0.66798  1.0000
  H   H3229     1.0  0.59826  0.37535  0.62054  1.0000
  C   C3243     1.0  0.54332  0.01933  0.71431  1.0000
  S   S1068     1.0  0.52922  0.42560  0.73739  1.0000
  H   H3230     1.0  0.99335  0.12330  0.61894  1.0000
  H   H3231     1.0  0.94969  0.40507  0.59796  1.0000
  C   C3244     1.0  0.55974  0.20289  0.61080  1.0000
  H   H3232     1.0  0.56295  0.16439  0.73955  1.0000
  C   C3245     1.0  0.86691  0.42419  0.75849  1.0000
  H   H3233     1.0  0.53236  0.37020  0.67940  1.0000
  Fe  Fe532     1.0  0.87315  0.47356  0.63460  1.0000
  H   H3234     1.0  0.81115  0.42907  0.58865  1.0000
  C   C3246     1.0  0.74544  0.40366  0.58927  1.0000
  H   H3235     1.0  0.53590  0.02074  0.72682  1.0000
  H   H3236     1.0  0.50619  0.43518  0.62294  1.0000
  C   C3247     1.0  0.92456  0.17518  0.59378  1.0000
  C   C3248     1.0  0.91185  0.40982  0.60294  1.0000
  H   H3237     1.0  0.86639  0.38580  0.60173  1.0000
  H   H3238     1.0  0.97651  0.47865  0.75022  1.0000
  C   C3249     1.0  0.98248  0.47631  0.77422  1.0000
  H   H3239     1.0  0.90693  0.48218  0.70886  1.0000
  N   N277      1.0  0.96624  0.36402  0.59562  1.0000
  H   H3240     1.0  0.72911  0.46202  0.59284  1.0000
  H   H3241     1.0  0.58211  0.48652  0.71138  1.0000
  C   C3250     1.0  0.54624  0.00408  0.70937  1.0000
  S   S1069     1.0  0.93269  0.32033  0.58970  1.0000
  H   H3242     1.0  0.60823  0.17246  0.59909  1.0000
  C   C3251     1.0  0.62256  0.41260  0.58789  1.0000
  H   H3243     1.0  0.50659  0.47368  0.78193  1.0000
  H   H3244     1.0  0.62504  0.47800  0.65370  1.0000
  H   H3245     1.0  0.50284  0.40827  0.60460  1.0000
  H   H3246     1.0  0.88561  0.08946  0.59798  1.0000
  C   C3252     1.0  0.91377  0.40430  0.58814  1.0000
  S   S1070     1.0  0.75502  0.11798  0.59021  1.0000
  Fe  Fe533     1.0  0.63352  0.44696  0.59423  1.0000
  Fe  Fe534     1.0  0.67182  0.43312  0.59057  1.0000
  H   H3247     1.0  0.88961  0.20643  0.58749  1.0000
  H   H3248     1.0  0.94791  0.23408  0.59050  1.0000
  C   C3253     1.0  0.78705  0.02070  0.58998  1.0000
  C   C3254     1.0  0.75047  0.07490  0.58733  1.0000
  H   H3249     1.0  0.69798  0.16438  0.59153  1.0000
  H   H3250     1.0  0.50277  0.16560  0.58916  1.0000
  H   H3251     1.0  0.84134  0.02038  0.58834  1.0000
  Fe  Fe535     1.0  0.65773  0.47078  0.58749  1.0000
  S   S1071     1.0  0.60897  0.44614  0.58834  1.0000
  H   H3252     1.0  0.59167  0.48081  0.59486  1.0000
  H   H3253     1.0  0.93687  0.16939  0.58697  1.0000
  H   H3254     1.0  0.84985  0.13046  0.58936  1.0000
  C   C3255     1.0  0.97647  0.39442  0.58937  1.0000
  H   H3255     1.0  0.54117  0.99357  0.71805  1.0000
  H   H3256     1.0  0.55765  0.99061  0.68939  1.0000
  H   H3257     1.0  0.63292  0.38620  0.58772  1.0000
  H   H3258     1.0  0.58121  0.48699  0.62356  1.0000
  H   H3259     1.0  0.99261  0.35331  0.58698  1.0000
  C   C3256     1.0  0.62220  0.39671  0.58587  1.0000
  H   H3260     1.0  0.98046  0.40632  0.58673  1.0000
  H   H3261     1.0  0.95712  0.34827  0.58591  1.0000
  C   C3257     1.0  0.91372  0.18847  0.58510  1.0000
  C   C3258     1.0  0.49927  0.37825  0.66132  1.0000
  H   H3262     1.0  0.63903  0.42540  0.97074  1.0000
  H   H3263     1.0  0.52829  0.21776  0.86777  1.0000
  H   H3264     1.0  0.93151  0.11932  0.86880  1.0000
  Fe  Fe536     1.0  0.87522  0.09036  0.82948  1.0000
  S   S1072     1.0  0.85447  0.10787  0.81698  1.0000
  S   S1073     1.0  0.88177  0.09634  0.85129  1.0000
  Fe  Fe537     1.0  0.84502  0.08429  0.82038  1.0000
  S   S1074     1.0  0.81707  0.08359  0.82934  1.0000
  S   S1075     1.0  0.86468  0.06707  0.83447  1.0000
  C   C3259     1.0  0.81969  0.13503  0.83895  1.0000
  Fe  Fe538     1.0  0.78741  0.08245  0.92026  1.0000
  S   S1076     1.0  0.77714  0.10740  0.90471  1.0000
  S   S1077     1.0  0.79946  0.05973  0.90875  1.0000
  Fe  Fe539     1.0  0.77831  0.09630  0.95217  1.0000
  S   S1078     1.0  0.76718  0.12254  0.93918  1.0000
  Fe  Fe540     1.0  0.75520  0.10922  0.92705  1.0000
  S   S1079     1.0  0.72735  0.11579  0.92572  1.0000
  Fe  Fe541     1.0  0.79025  0.11796  0.91818  1.0000
  S   S1080     1.0  0.80733  0.13532  0.90161  1.0000
  S   S1081     1.0  0.76458  0.08331  0.94171  1.0000
  S   S1082     1.0  0.80232  0.09275  0.93211  1.0000
  Fe  Fe542     1.0  0.90891  0.17716  0.89368  1.0000
  S   S1083     1.0  0.89770  0.19695  0.87339  1.0000
  S   S1084     1.0  0.93727  0.17010  0.89240  1.0000
  Fe  Fe543     1.0  0.87447  0.16864  0.91291  1.0000
  S   S1085     1.0  0.86060  0.18821  0.89435  1.0000
  S   S1086     1.0  0.85928  0.15200  0.93415  1.0000
  Fe  Fe544     1.0  0.88237  0.17808  0.87472  1.0000
  S   S1087     1.0  0.87840  0.17260  0.85135  1.0000
  Fe  Fe545     1.0  0.87721  0.20482  0.89519  1.0000
  S   S1088     1.0  0.86480  0.23118  0.89934  1.0000
  S   S1089     1.0  0.89542  0.15761  0.89322  1.0000
  S   S1090     1.0  0.88939  0.18608  0.91551  1.0000
  H   H3265     1.0  0.73998  0.39799  0.92646  1.0000
  N   N278      1.0  0.85259  0.10154  0.94235  1.0000
  H   H3266     1.0  0.83891  0.08773  0.93487  1.0000
  S   S1091     1.0  0.97359  0.23161  0.87396  1.0000
  S   S1092     1.0  0.50722  0.34187  0.91067  1.0000
  Fe  Fe546     1.0  0.51760  0.12127  0.82811  1.0000
  S   S1093     1.0  0.50776  0.44173  0.84308  1.0000
  H   H3267     1.0  0.91926  0.26074  0.90919  1.0000
  Fe  Fe547     1.0  0.55129  0.10225  0.83784  1.0000
  S   S1094     1.0  0.56641  0.11814  0.81637  1.0000
  S   S1095     1.0  0.56365  0.08347  0.85803  1.0000
  Fe  Fe548     1.0  0.54558  0.13984  0.82376  1.0000
  S   S1096     1.0  0.55458  0.16197  0.82577  1.0000
  C   C3260     1.0  0.83036  0.14104  0.84510  1.0000
  S   S1097     1.0  0.53146  0.12406  0.84627  1.0000
  S   S1098     1.0  0.53617  0.09776  0.82173  1.0000
  Fe  Fe549     1.0  0.68289  0.07468  0.88556  1.0000
  S   S1099     1.0  0.66899  0.06657  0.91223  1.0000
  S   S1100     1.0  0.71014  0.07762  0.87940  1.0000
  Fe  Fe550     1.0  0.65211  0.07804  0.87102  1.0000
  S   S1101     1.0  0.63596  0.06998  0.89650  1.0000
  S   S1102     1.0  0.64143  0.08534  0.84754  1.0000
  Fe  Fe551     1.0  0.64710  0.08704  0.90459  1.0000
  S   S1103     1.0  0.63025  0.10361  0.92227  1.0000
  Fe  Fe552     1.0  0.65926  0.05032  0.90148  1.0000
  S   S1104     1.0  0.65742  0.02388  0.91576  1.0000
  S   S1105     1.0  0.66186  0.09658  0.87869  1.0000
  S   S1106     1.0  0.67482  0.05680  0.87523  1.0000
  Fe  Fe553     1.0  0.55856  0.19767  0.93261  1.0000
  S   S1107     1.0  0.57926  0.21081  0.91581  1.0000
  C   C3261     1.0  0.91365  0.23582  0.91777  1.0000
  Fe  Fe554     1.0  0.54452  0.19670  0.90311  1.0000
  S   S1108     1.0  0.56361  0.21046  0.88428  1.0000
  S   S1109     1.0  0.52608  0.18687  0.89482  1.0000
  Fe  Fe555     1.0  0.58246  0.19297  0.89916  1.0000
  S   S1110     1.0  0.60674  0.17915  0.88488  1.0000
  Fe  Fe556     1.0  0.55826  0.22684  0.90282  1.0000
  S   S1111     1.0  0.55603  0.25479  0.89270  1.0000
  S   S1112     1.0  0.56367  0.17824  0.91704  1.0000
  S   S1113     1.0  0.53719  0.21481  0.92061  1.0000
  C   C3262     1.0  0.64046  0.99987  0.91697  1.0000
  C   C3263     1.0  0.84378  0.30286  0.87743  1.0000
  S   S1114     1.0  0.58615  0.45418  0.83349  1.0000
  Fe  Fe557     1.0  0.52648  0.45851  0.82912  1.0000
  H   H3268     1.0  0.93719  0.18697  0.92163  1.0000
  C   C3264     1.0  0.55136  0.41306  0.88663  1.0000
  Fe  Fe558     1.0  0.60175  0.44005  0.95446  1.0000
  S   S1115     1.0  0.62069  0.41578  0.95182  1.0000
  H   H3269     1.0  0.57557  0.27471  0.91891  1.0000
  Fe  Fe559     1.0  0.60612  0.45253  0.91645  1.0000
  S   S1116     1.0  0.62625  0.42956  0.91081  1.0000
  S   S1117     1.0  0.59477  0.47395  0.89723  1.0000
  Fe  Fe560     1.0  0.60837  0.41548  0.93146  1.0000
  S   S1118     1.0  0.60376  0.39126  0.92876  1.0000
  Fe  Fe561     1.0  0.63669  0.43217  0.93177  1.0000
  S   S1119     1.0  0.66351  0.42822  0.93553  1.0000
  S   S1120     1.0  0.58771  0.43824  0.93594  1.0000
  S   S1121     1.0  0.61827  0.45656  0.93541  1.0000
  Fe  Fe562     1.0  0.51910  0.32957  0.93322  1.0000
  H   H3270     1.0  0.61256  0.99228  0.85475  1.0000
  S   S1122     1.0  0.52161  0.30177  0.94521  1.0000
  Fe  Fe563     1.0  0.52630  0.35841  0.90323  1.0000
  S   S1123     1.0  0.55745  0.48842  0.80470  1.0000
  S   S1124     1.0  0.54060  0.36704  0.87680  1.0000
  Fe  Fe564     1.0  0.52182  0.36293  0.93862  1.0000
  S   S1125     1.0  0.52876  0.37762  0.95356  1.0000
  S   S1126     1.0  0.54011  0.34414  0.92414  1.0000
  H   H3271     1.0  0.65642  0.44487  0.96686  1.0000
  H   H3272     1.0  0.95814  0.19093  0.91710  1.0000
  H   H3273     1.0  0.56088  0.28501  0.94518  1.0000
  H   H3274     1.0  0.86310  0.44211  0.82678  1.0000
  C   C3265     1.0  0.52988  0.23098  0.97871  1.0000
  Fe  Fe565     1.0  0.54938  0.11592  0.80079  1.0000
  C   C3266     1.0  0.84757  0.00370  0.79346  1.0000
  H   H3275     1.0  0.84483  0.13609  0.86406  1.0000
  Fe  Fe566     1.0  0.77593  0.43624  0.89259  1.0000
  S   S1127     1.0  0.76984  0.43556  0.86850  1.0000
  S   S1128     1.0  0.78674  0.41294  0.91036  1.0000
  Fe  Fe567     1.0  0.76268  0.47420  0.88817  1.0000
  C   C3267     1.0  0.50526  0.22897  0.89278  1.0000
  C   C3268     1.0  0.97585  0.30183  0.87554  1.0000
  Fe  Fe568     1.0  0.74520  0.45333  0.87681  1.0000
  S   S1129     1.0  0.71974  0.45269  0.87264  1.0000
  Fe  Fe569     1.0  0.78102  0.45869  0.85789  1.0000
  S   S1130     1.0  0.75034  0.45224  0.90184  1.0000
  S   S1131     1.0  0.78900  0.45823  0.88139  1.0000
  H   H3276     1.0  0.93965  0.28090  0.85455  1.0000
  H   H3277     1.0  0.62193  0.48235  0.85880  1.0000
  Fe  Fe570     1.0  0.89179  0.31312  0.88826  1.0000
  S   S1132     1.0  0.90461  0.32663  0.89918  1.0000
  S   S1133     1.0  0.90641  0.28882  0.87962  1.0000
  Fe  Fe571     1.0  0.85926  0.34106  0.88954  1.0000
  S   S1134     1.0  0.86921  0.35650  0.90106  1.0000
  S   S1135     1.0  0.83404  0.34966  0.88143  1.0000
  Fe  Fe572     1.0  0.89352  0.35031  0.88194  1.0000
  S   S1136     1.0  0.90821  0.37065  0.86714  1.0000
  Fe  Fe573     1.0  0.87921  0.33151  0.91722  1.0000
  S   S1137     1.0  0.87716  0.32431  0.94546  1.0000
  S   S1138     1.0  0.88301  0.33631  0.86943  1.0000
  S   S1139     1.0  0.86696  0.31656  0.90729  1.0000
  C   C3269     1.0  0.92449  0.24722  0.91239  1.0000
  C   C3270     1.0  0.87387  0.34077  0.95590  1.0000
  C   C3271     1.0  0.87595  0.35698  0.94692  1.0000
  C   C3272     1.0  0.87388  0.36970  0.95566  1.0000
  C   C3273     1.0  0.59373  0.04974  0.90542  1.0000
  H   H3278     1.0  0.81857  0.09795  0.86766  1.0000
  C   C3274     1.0  0.84936  0.03088  0.79649  1.0000
  H   H3279     1.0  0.87934  0.35967  0.93326  1.0000
  H   H3280     1.0  0.87559  0.38220  0.94866  1.0000
  H   H3281     1.0  0.61431  0.03138  0.92636  1.0000
  H   H3282     1.0  0.95874  0.26460  0.85254  1.0000
  C   C3275     1.0  0.90459  0.38110  0.84679  1.0000
  C   C3276     1.0  0.89385  0.37625  0.83962  1.0000
  C   C3277     1.0  0.89107  0.38477  0.82346  1.0000
  C   C3278     1.0  0.89868  0.39847  0.81446  1.0000
  C   C3279     1.0  0.90921  0.40357  0.82168  1.0000
  C   C3280     1.0  0.91228  0.39480  0.83775  1.0000
  H   H3283     1.0  0.88764  0.36597  0.84648  1.0000
  H   H3284     1.0  0.88285  0.38080  0.81798  1.0000
  H   H3285     1.0  0.91524  0.41406  0.81479  1.0000
  H   H3286     1.0  0.92057  0.39867  0.84323  1.0000
  H   H3287     1.0  0.80725  0.11459  0.84236  1.0000
  H   H3288     1.0  0.86168  0.41797  0.97761  1.0000
  C   C3281     1.0  0.55311  0.26650  0.97624  1.0000
  H   H3289     1.0  0.82160  0.07969  0.96373  1.0000
  C   C3282     1.0  0.79960  0.39536  0.90214  1.0000
  C   C3283     1.0  0.81106  0.38354  0.91135  1.0000
  C   C3284     1.0  0.82179  0.36960  0.90496  1.0000
  C   C3285     1.0  0.82083  0.36719  0.88949  1.0000
  C   C3286     1.0  0.80915  0.37883  0.88040  1.0000
  C   C3287     1.0  0.79867  0.39299  0.88662  1.0000
  H   H3290     1.0  0.81178  0.38525  0.92340  1.0000
  H   H3291     1.0  0.83057  0.36055  0.91219  1.0000
  H   H3292     1.0  0.80836  0.37699  0.86843  1.0000
  H   H3293     1.0  0.78986  0.40195  0.87943  1.0000
  H   H3294     1.0  0.56929  0.48778  0.87704  1.0000
  C   C3288     1.0  0.82178  0.11012  0.86144  1.0000
  H   H3295     1.0  0.85513  0.04187  0.79179  1.0000
  H   H3296     1.0  0.89995  0.24043  0.91887  1.0000
  H   H3297     1.0  0.90736  0.18867  0.83724  1.0000
  H   H3298     1.0  0.85557  0.32411  0.86451  1.0000
  H   H3299     1.0  0.64547  0.99303  0.92810  1.0000
  C   C3289     1.0  0.67815  0.43690  0.91815  1.0000
  C   C3290     1.0  0.67513  0.44124  0.90181  1.0000
  C   C3291     1.0  0.68782  0.44656  0.88794  1.0000
  C   C3292     1.0  0.70349  0.44763  0.89037  1.0000
  C   C3293     1.0  0.70627  0.44375  0.90677  1.0000
  C   C3294     1.0  0.69363  0.43840  0.92062  1.0000
  H   H3300     1.0  0.66321  0.44011  0.89982  1.0000
  H   H3301     1.0  0.68559  0.44956  0.87527  1.0000
  H   H3302     1.0  0.71827  0.44444  0.90880  1.0000
  H   H3303     1.0  0.69596  0.43517  0.93325  1.0000
  C   C3295     1.0  0.59439  0.07234  0.91833  1.0000
  C   C3296     1.0  0.59561  0.01693  0.85182  1.0000
  H   H3304     1.0  0.53921  0.23477  0.86150  1.0000
  S   S1140     1.0  0.86769  0.38222  0.98406  1.0000
  H   H3305     1.0  0.56439  0.12284  0.85734  1.0000
  C   C3297     1.0  0.81534  0.11949  0.84717  1.0000
  H   H3306     1.0  0.61469  0.46410  0.96624  1.0000
  C   C3298     1.0  0.82449  0.47410  0.81058  1.0000
  C   C3299     1.0  0.84088  0.09181  0.94523  1.0000
  H   H3307     1.0  0.98281  0.26505  0.86295  1.0000
  C   C3300     1.0  0.58281  0.38776  0.93569  1.0000
  C   C3301     1.0  0.57951  0.37326  0.93317  1.0000
  C   C3302     1.0  0.56288  0.37021  0.93836  1.0000
  C   C3303     1.0  0.54955  0.38147  0.94641  1.0000
  C   C3304     1.0  0.55288  0.39585  0.94916  1.0000
  C   C3305     1.0  0.56943  0.39912  0.94360  1.0000
  H   H3308     1.0  0.58985  0.36434  0.92720  1.0000
  H   H3309     1.0  0.56051  0.35890  0.93654  1.0000
  H   H3310     1.0  0.54262  0.40457  0.95546  1.0000
  H   H3311     1.0  0.57182  0.41027  0.94569  1.0000
  C   C3306     1.0  0.51699  0.42095  0.85232  1.0000
  H   H3312     1.0  0.51890  0.23786  0.85579  1.0000
  H   H3313     1.0  0.59392  0.03595  0.90936  1.0000
  C   C3307     1.0  0.53125  0.38757  0.86718  1.0000
  C   C3308     1.0  0.54156  0.39752  0.85467  1.0000
  C   C3309     1.0  0.53449  0.41424  0.84745  1.0000
  H   H3314     1.0  0.82792  0.28254  0.90332  1.0000
  H   H3315     1.0  0.55509  0.39238  0.85072  1.0000
  H   H3316     1.0  0.54262  0.42182  0.83799  1.0000
  C   C3310     1.0  0.58705  0.45876  0.85228  1.0000
  H   H3317     1.0  0.95150  0.31956  0.87867  1.0000
  C   C3311     1.0  0.57776  0.47685  0.87260  1.0000
  C   C3312     1.0  0.59108  0.46735  0.88074  1.0000
  C   C3313     1.0  0.60217  0.45342  0.87479  1.0000
  C   C3314     1.0  0.60025  0.44924  0.86050  1.0000
  C   C3315     1.0  0.58833  0.14544  0.86457  1.0000
  C   C3316     1.0  0.61393  0.46041  0.97966  1.0000
  H   H3318     1.0  0.61268  0.44627  0.88075  1.0000
  H   H3319     1.0  0.60920  0.43875  0.85564  1.0000
  C   C3317     1.0  0.54563  0.26770  0.90731  1.0000
  C   C3318     1.0  0.54468  0.28516  0.90208  1.0000
  C   C3319     1.0  0.53692  0.29574  0.91360  1.0000
  C   C3320     1.0  0.52999  0.28888  0.93037  1.0000
  C   C3321     1.0  0.53054  0.27144  0.93554  1.0000
  C   C3322     1.0  0.53839  0.26084  0.92402  1.0000
  H   H3320     1.0  0.55023  0.29051  0.88915  1.0000
  H   H3321     1.0  0.53662  0.30917  0.90956  1.0000
  H   H3322     1.0  0.52527  0.26608  0.94854  1.0000
  H   H3323     1.0  0.53914  0.24735  0.92815  1.0000
  H   H3324     1.0  0.58559  0.04972  0.85036  1.0000
  C   C3323     1.0  0.53751  0.21953  0.96792  1.0000
  C   C3324     1.0  0.95017  0.29788  0.87037  1.0000
  H   H3325     1.0  0.53424  0.22208  0.95577  1.0000
  C   C3325     1.0  0.64462  0.01544  0.90821  1.0000
  C   C3326     1.0  0.63778  0.02451  0.89409  1.0000
  C   C3327     1.0  0.62661  0.01809  0.88890  1.0000
  H   H3326     1.0  0.64103  0.03650  0.88720  1.0000
  H   H3327     1.0  0.62129  0.02518  0.87801  1.0000
  C   C3328     1.0  0.62230  0.12427  0.91187  1.0000
  C   C3329     1.0  0.62595  0.12887  0.89422  1.0000
  C   C3330     1.0  0.62138  0.14580  0.88603  1.0000
  C   C3331     1.0  0.61233  0.15807  0.89543  1.0000
  C   C3332     1.0  0.60787  0.15338  0.91306  1.0000
  C   C3333     1.0  0.61302  0.13650  0.92129  1.0000
  H   H3328     1.0  0.63236  0.11945  0.88684  1.0000
  H   H3329     1.0  0.62470  0.14937  0.87238  1.0000
  H   H3330     1.0  0.60089  0.16284  0.92039  1.0000
  H   H3331     1.0  0.61004  0.13302  0.93495  1.0000
  C   C3334     1.0  0.58505  0.08467  0.85491  1.0000
  C   C3335     1.0  0.59128  0.08521  0.86855  1.0000
  C   C3336     1.0  0.60846  0.08586  0.86631  1.0000
  C   C3337     1.0  0.61960  0.08549  0.85052  1.0000
  C   C3338     1.0  0.61323  0.08531  0.83680  1.0000
  C   C3339     1.0  0.59596  0.08496  0.83897  1.0000
  H   H3332     1.0  0.58270  0.08547  0.88075  1.0000
  H   H3333     1.0  0.61297  0.08699  0.87668  1.0000
  H   H3334     1.0  0.62172  0.08525  0.82451  1.0000
  H   H3335     1.0  0.59120  0.08459  0.82836  1.0000
  C   C3340     1.0  0.54620  0.16897  0.84484  1.0000
  C   C3341     1.0  0.53077  0.16558  0.85546  1.0000
  C   C3342     1.0  0.52456  0.17123  0.87072  1.0000
  C   C3343     1.0  0.53390  0.18006  0.87553  1.0000
  C   C3344     1.0  0.54934  0.18333  0.86490  1.0000
  C   C3345     1.0  0.55536  0.17800  0.84955  1.0000
  H   H3336     1.0  0.52346  0.15887  0.85178  1.0000
  H   H3337     1.0  0.86007  0.16644  0.96508  1.0000
  H   H3338     1.0  0.55681  0.18984  0.86847  1.0000
  H   H3339     1.0  0.56732  0.18064  0.84141  1.0000
  H   H3340     1.0  0.57596  0.37468  0.89904  1.0000
  S   S1141     1.0  0.53623  0.47243  0.84257  1.0000
  H   H3341     1.0  0.98732  0.19543  0.87749  1.0000
  C   C3346     1.0  0.51977  0.25163  0.88442  1.0000
  C   C3347     1.0  0.56566  0.38324  0.89278  1.0000
  H   H3342     1.0  0.84003  0.39824  0.89070  1.0000
  H   H3343     1.0  0.94505  0.19043  0.93822  1.0000
  C   C3348     1.0  0.62248  0.00249  0.89764  1.0000
  C   C3349     1.0  0.73475  0.40086  0.91528  1.0000
  C   C3350     1.0  0.87188  0.99262  0.82546  1.0000
  H   H3344     1.0  0.50653  0.45000  0.80705  1.0000
  H   H3345     1.0  0.84696  0.10695  0.98211  1.0000
  C   C3351     1.0  0.87777  0.24579  0.89518  1.0000
  C   C3352     1.0  0.89338  0.24462  0.88339  1.0000
  C   C3353     1.0  0.90232  0.25775  0.87887  1.0000
  C   C3354     1.0  0.89568  0.27200  0.88615  1.0000
  C   C3355     1.0  0.88048  0.27271  0.89844  1.0000
  C   C3356     1.0  0.87154  0.25968  0.90292  1.0000
  H   H3346     1.0  0.89825  0.23392  0.87735  1.0000
  H   H3347     1.0  0.91417  0.25704  0.86944  1.0000
  H   H3348     1.0  0.87550  0.28333  0.90446  1.0000
  H   H3349     1.0  0.85960  0.26051  0.91223  1.0000
  C   C3357     1.0  0.94749  0.18728  0.88546  1.0000
  C   C3358     1.0  0.96533  0.18428  0.88312  1.0000
  C   C3359     1.0  0.97360  0.19785  0.87889  1.0000
  C   C3360     1.0  0.96400  0.21447  0.87706  1.0000
  C   C3361     1.0  0.94620  0.21748  0.87900  1.0000
  C   C3362     1.0  0.93795  0.20392  0.88321  1.0000
  H   H3350     1.0  0.97277  0.17141  0.88489  1.0000
  H   H3351     1.0  0.56668  0.03091  0.82725  1.0000
  H   H3352     1.0  0.93871  0.23031  0.87766  1.0000
  H   H3353     1.0  0.92417  0.20636  0.88517  1.0000
  C   C3363     1.0  0.72270  0.10483  0.91309  1.0000
  C   C3364     1.0  0.70616  0.10200  0.91617  1.0000
  C   C3365     1.0  0.70212  0.09377  0.90579  1.0000
  C   C3366     1.0  0.71463  0.08837  0.89230  1.0000
  C   C3367     1.0  0.73113  0.09129  0.88917  1.0000
  C   C3368     1.0  0.73517  0.09945  0.89958  1.0000
  H   H3354     1.0  0.69644  0.10623  0.92656  1.0000
  H   H3355     1.0  0.68932  0.09171  0.90818  1.0000
  H   H3356     1.0  0.74081  0.08724  0.87867  1.0000
  H   H3357     1.0  0.74785  0.10185  0.89692  1.0000
  C   C3369     1.0  0.59398  0.13183  0.84074  1.0000
  H   H3358     1.0  0.53972  0.43971  0.88104  1.0000
  H   H3359     1.0  0.79202  0.11830  0.96388  1.0000
  C   C3370     1.0  0.82143  0.13971  0.91117  1.0000
  C   C3371     1.0  0.81936  0.13617  0.92876  1.0000
  C   C3372     1.0  0.83081  0.14014  0.93594  1.0000
  C   C3373     1.0  0.84458  0.14720  0.92552  1.0000
  C   C3374     1.0  0.84689  0.15008  0.90799  1.0000
  C   C3375     1.0  0.83518  0.14669  0.90085  1.0000
  H   H3360     1.0  0.80872  0.13078  0.93678  1.0000
  H   H3361     1.0  0.82895  0.13776  0.94950  1.0000
  H   H3362     1.0  0.85774  0.15491  0.89981  1.0000
  H   H3363     1.0  0.83682  0.14956  0.88727  1.0000
  Fe  Fe574     1.0  0.56131  0.46502  0.82498  1.0000
  C   C3376     1.0  0.86710  0.00652  0.83317  1.0000
  C   C3377     1.0  0.87409  0.02092  0.82547  1.0000
  H   H3364     1.0  0.85786  0.00623  0.84506  1.0000
  H   H3365     1.0  0.87029  0.03159  0.83148  1.0000
  C   C3378     1.0  0.81142  0.07555  0.85119  1.0000
  C   C3379     1.0  0.82290  0.06279  0.85956  1.0000
  C   C3380     1.0  0.81891  0.05759  0.87721  1.0000
  C   C3381     1.0  0.80353  0.06532  0.88659  1.0000
  C   C3382     1.0  0.79172  0.07761  0.87819  1.0000
  C   C3383     1.0  0.79556  0.08255  0.86049  1.0000
  H   H3366     1.0  0.83482  0.05681  0.85249  1.0000
  H   H3367     1.0  0.82796  0.04788  0.88364  1.0000
  H   H3368     1.0  0.77959  0.08330  0.88527  1.0000
  H   H3369     1.0  0.78649  0.09222  0.85407  1.0000
  C   C3384     1.0  0.88008  0.11768  0.85122  1.0000
  C   C3385     1.0  0.87806  0.13048  0.83682  1.0000
  C   C3386     1.0  0.87708  0.14737  0.83713  1.0000
  C   C3387     1.0  0.87806  0.15156  0.85183  1.0000
  C   C3388     1.0  0.87965  0.13878  0.86631  1.0000
  C   C3389     1.0  0.88080  0.12190  0.86597  1.0000
  H   H3370     1.0  0.87749  0.12734  0.82537  1.0000
  H   H3371     1.0  0.87582  0.15718  0.82586  1.0000
  H   H3372     1.0  0.88014  0.14183  0.87776  1.0000
  H   H3373     1.0  0.88225  0.11207  0.87717  1.0000
  N   N279      1.0  0.67202  0.13930  0.90133  1.0000
  C   C3390     1.0  0.68650  0.14289  0.90301  1.0000
  C   C3391     1.0  0.67254  0.13213  0.88839  1.0000
  C   C3392     1.0  0.70201  0.13940  0.89145  1.0000
  C   C3393     1.0  0.68788  0.12826  0.87674  1.0000
  C   C3394     1.0  0.70269  0.13194  0.87830  1.0000
  C   C3395     1.0  0.65580  0.14274  0.91354  1.0000
  H   H3374     1.0  0.68629  0.14815  0.91350  1.0000
  H   H3375     1.0  0.66108  0.12919  0.88718  1.0000
  H   H3376     1.0  0.71358  0.14176  0.89315  1.0000
  H   H3377     1.0  0.68838  0.12205  0.86681  1.0000
  H   H3378     1.0  0.71477  0.12854  0.86965  1.0000
  H   H3379     1.0  0.64567  0.15111  0.90689  1.0000
  H   H3380     1.0  0.65170  0.13068  0.92038  1.0000
  H   H3381     1.0  0.65681  0.14912  0.92307  1.0000
  C   C3396     1.0  0.80114  0.12382  0.98304  1.0000
  S   S1142     1.0  0.51906  0.48154  0.80942  1.0000
  H   H3382     1.0  0.95669  0.46497  0.81252  1.0000
  H   H3383     1.0  0.56554  0.48000  0.85205  1.0000
  S   S1143     1.0  0.58981  0.44287  0.98127  1.0000
  C   C3397     1.0  0.54912  0.20464  0.97310  1.0000
  H   H3384     1.0  0.62597  0.04159  0.94478  1.0000
  H   H3385     1.0  0.61130  0.48125  0.83445  1.0000
  H   H3386     1.0  0.53918  0.26844  0.97697  1.0000
  H   H3387     1.0  0.60009  0.02071  0.86091  1.0000
  H   H3388     1.0  0.82105  0.05204  0.81713  1.0000
  H   H3389     1.0  0.50566  0.38658  0.88161  1.0000
  S   S1144     1.0  0.79704  0.46250  0.83154  1.0000
  H   H3390     1.0  0.59716  0.09181  0.92914  1.0000
  N   N280      1.0  0.59921  0.05559  0.91759  1.0000
  H   H3391     1.0  0.95072  0.24981  0.90659  1.0000
  H   H3392     1.0  0.93665  0.30243  0.87024  1.0000
  N   N281      1.0  0.83774  0.02921  0.81158  1.0000
  C   C3398     1.0  0.85728  0.27690  0.86876  1.0000
  C   C3399     1.0  0.87022  0.28435  0.85722  1.0000
  C   C3400     1.0  0.86977  0.30137  0.85583  1.0000
  H   H3393     1.0  0.85782  0.26359  0.86989  1.0000
  H   H3394     1.0  0.88072  0.27686  0.84968  1.0000
  H   H3395     1.0  0.84663  0.48235  0.79364  1.0000
  C   C3401     1.0  0.95097  0.46676  0.78853  1.0000
  H   H3396     1.0  0.87028  0.39401  0.87450  1.0000
  H   H3397     1.0  0.54138  0.40935  0.88331  1.0000
  H   H3398     1.0  0.55337  0.37969  0.90018  1.0000
  C   C3402     1.0  0.60273  0.00079  0.84838  1.0000
  H   H3399     1.0  0.71059  0.38170  0.93810  1.0000
  C   C3403     1.0  0.94858  0.22368  0.91514  1.0000
  H   H3400     1.0  0.91208  0.20967  0.92548  1.0000
  C   C3404     1.0  0.89111  0.00735  0.80257  1.0000
  S   S1145     1.0  0.89417  0.03971  0.79962  1.0000
  C   C3405     1.0  0.86954  0.33738  0.97361  1.0000
  C   C3406     1.0  0.57384  0.26577  0.93096  1.0000
  C   C3407     1.0  0.56847  0.13021  0.86368  1.0000
  H   H3401     1.0  0.84483  0.47494  0.84658  1.0000
  C   C3408     1.0  0.92965  0.13206  0.86113  1.0000
  S   S1146     1.0  0.98907  0.47432  0.80492  1.0000
  H   H3402     1.0  0.59129  0.12065  0.83815  1.0000
  H   H3403     1.0  0.85173  0.99351  0.78666  1.0000
  C   C3409     1.0  0.95849  0.30761  0.87521  1.0000
  N   N282      1.0  0.93788  0.21258  0.92008  1.0000
  C   C3410     1.0  0.83552  0.00225  0.80871  1.0000
  N   N283      1.0  0.95893  0.28291  0.86580  1.0000
  C   C3411     1.0  0.97588  0.27703  0.86633  1.0000
  C   C3412     1.0  0.94987  0.27272  0.86115  1.0000
  N   N284      1.0  0.58316  0.02772  0.84392  1.0000
  N   N285      1.0  0.51708  0.23742  0.88151  1.0000
  C   C3413     1.0  0.84772  0.47887  0.81964  1.0000
  H   H3404     1.0  0.92962  0.18970  0.83283  1.0000
  C   C3414     1.0  0.84544  0.10241  0.97182  1.0000
  S   S1147     1.0  0.89311  0.08508  0.80523  1.0000
  C   C3415     1.0  0.57600  0.23702  0.94704  1.0000
  H   H3405     1.0  0.86756  0.32495  0.98058  1.0000
  C   C3416     1.0  0.58378  0.00652  0.82938  1.0000
  S   S1148     1.0  0.86820  0.48316  0.81460  1.0000
  Fe  Fe575     1.0  0.54543  0.47372  0.79435  1.0000
  C   C3417     1.0  0.85497  0.10685  0.95539  1.0000
  S   S1149     1.0  0.52990  0.13930  0.80608  1.0000
  C   C3418     1.0  0.94489  0.19434  0.92455  1.0000
  H   H3406     1.0  0.83460  0.14669  0.97219  1.0000
  C   C3419     1.0  0.92067  0.18233  0.83213  1.0000
  C   C3420     1.0  0.61190  0.06733  0.93857  1.0000
  N   N286      1.0  0.92431  0.16487  0.84180  1.0000
  H   H3407     1.0  0.78817  0.48227  0.90254  1.0000
  H   H3408     1.0  0.83401  0.15302  0.83876  1.0000
  H   H3409     1.0  0.50461  0.08849  0.83810  1.0000
  C   C3421     1.0  0.57581  0.04453  0.84780  1.0000
  C   C3422     1.0  0.61676  0.05027  0.93773  1.0000
  H   H3410     1.0  0.60785  0.12885  0.84080  1.0000
  H   H3411     1.0  0.81673  0.46677  0.85344  1.0000
  H   H3412     1.0  0.58026  0.36184  0.98151  1.0000
  H   H3413     1.0  0.81498  0.14229  0.82773  1.0000
  C   C3423     1.0  0.99613  0.41012  0.82700  1.0000
  H   H3414     1.0  0.81485  0.16171  0.97687  1.0000
  C   C3424     1.0  0.85293  0.16812  0.97763  1.0000
  H   H3415     1.0  0.87988  0.30727  0.84718  1.0000
  H   H3416     1.0  0.85412  0.11155  0.91607  1.0000
  C   C3425     1.0  0.70732  0.39562  0.93342  1.0000
  C   C3426     1.0  0.51095  0.25737  0.89921  1.0000
  C   C3427     1.0  0.52628  0.23173  0.86584  1.0000
  H   H3417     1.0  0.96232  0.21907  0.91378  1.0000
  C   C3428     1.0  0.71156  0.40397  0.90249  1.0000
  H   H3418     1.0  0.86397  0.11489  0.95307  1.0000
  C   C3429     1.0  0.58389  0.38697  0.97862  1.0000
  H   H3419     1.0  0.57876  0.00238  0.82090  1.0000
  C   C3430     1.0  0.56803  0.24321  0.96173  1.0000
  C   C3431     1.0  0.86980  0.36622  0.97338  1.0000
  N   N287      1.0  0.85141  0.42312  0.84466  1.0000
  C   C3432     1.0  0.83476  0.42558  0.85347  1.0000
  C   C3433     1.0  0.83046  0.41684  0.87021  1.0000
  C   C3434     1.0  0.85601  0.43248  0.82722  1.0000
  H   H3420     1.0  0.82468  0.43429  0.84759  1.0000
  H   H3421     1.0  0.81730  0.41898  0.87724  1.0000
  H   H3422     1.0  0.84455  0.43906  0.82179  1.0000
  H   H3423     1.0  0.86428  0.42370  0.81901  1.0000
  N   N288      1.0  0.74037  0.05632  0.91692  1.0000
  C   C3435     1.0  0.73219  0.06191  0.93149  1.0000
  C   C3436     1.0  0.73217  0.04907  0.90964  1.0000
  C   C3437     1.0  0.71524  0.06059  0.93898  1.0000
  C   C3438     1.0  0.71521  0.04755  0.91679  1.0000
  C   C3439     1.0  0.70672  0.05336  0.93155  1.0000
  C   C3440     1.0  0.75822  0.05759  0.90942  1.0000
  H   H3424     1.0  0.73862  0.06778  0.93720  1.0000
  H   H3425     1.0  0.73849  0.04494  0.89790  1.0000
  H   H3426     1.0  0.70868  0.06546  0.95028  1.0000
  H   H3427     1.0  0.70855  0.04238  0.91060  1.0000
  H   H3428     1.0  0.69348  0.05251  0.93706  1.0000
  H   H3429     1.0  0.76097  0.06886  0.91179  1.0000
  H   H3430     1.0  0.76704  0.04615  0.91489  1.0000
  H   H3431     1.0  0.76111  0.05904  0.89547  1.0000
  S   S1150     1.0  0.55875  0.18974  0.96029  1.0000
  H   H3432     1.0  0.87725  0.41058  0.84532  1.0000
  H   H3433     1.0  0.58430  0.41228  0.97887  1.0000
  H   H3434     1.0  0.89616  0.30557  0.98051  1.0000
  H   H3435     1.0  0.50453  0.28098  0.97773  1.0000
  C   C3441     1.0  0.57667  0.42277  0.89515  1.0000
  H   H3436     1.0  0.55448  0.14828  0.89795  1.0000
  H   H3437     1.0  0.55600  0.27866  0.97620  1.0000
  C   C3442     1.0  0.82895  0.16024  0.97233  1.0000
  C   C3443     1.0  0.85629  0.31077  0.86575  1.0000
  H   H3438     1.0  0.60252  0.05214  0.89284  1.0000
  S   S1151     1.0  0.50945  0.37818  0.91714  1.0000
  C   C3444     1.0  0.93494  0.14471  0.86495  1.0000
  H   H3439     1.0  0.93593  0.17099  0.85843  1.0000
  H   H3440     1.0  0.94094  0.14194  0.87563  1.0000
  S   S1152     1.0  0.75578  0.47642  0.86368  1.0000
  S   S1153     1.0  0.90793  0.45117  0.79661  1.0000
  C   C3445     1.0  0.60056  0.07843  0.92890  1.0000
  C   C3446     1.0  0.96109  0.46782  0.79893  1.0000
  H   H3441     1.0  0.57089  0.05381  0.83705  1.0000
  H   H3442     1.0  0.81972  0.28081  0.88614  1.0000
  C   C3447     1.0  0.59691  0.99566  0.83694  1.0000
  H   H3443     1.0  0.90042  0.00763  0.79072  1.0000
  C   C3448     1.0  0.61020  0.04458  0.92716  1.0000
  H   H3444     1.0  0.66342  0.44710  0.98423  1.0000
  H   H3445     1.0  0.54576  0.13060  0.88370  1.0000
  C   C3449     1.0  0.81601  0.46964  0.82741  1.0000
  H   H3446     1.0  0.91223  0.15564  0.82787  1.0000
  C   C3450     1.0  0.83238  0.04273  0.82104  1.0000
  C   C3451     1.0  0.94209  0.24113  0.91103  1.0000
  S   S1154     1.0  0.55195  0.44951  0.81291  1.0000
  C   C3452     1.0  0.57890  0.24841  0.93155  1.0000
  N   N289      1.0  0.56284  0.26026  0.96099  1.0000
  H   H3447     1.0  0.91708  0.12635  0.84470  1.0000
  H   H3448     1.0  0.81894  0.47374  0.80048  1.0000
  C   C3453     1.0  0.57813  0.14986  0.87960  1.0000
  H   H3449     1.0  0.92191  0.18261  0.81859  1.0000
  H   H3450     1.0  0.93879  0.46315  0.79412  1.0000
  H   H3451     1.0  0.71637  0.41201  0.87527  1.0000
  H   H3452     1.0  0.87190  0.09463  0.92149  1.0000
  H   H3453     1.0  0.82151  0.01385  0.82961  1.0000
  H   H3454     1.0  0.56806  0.38098  0.87985  1.0000
  H   H3455     1.0  0.75846  0.40578  0.89843  1.0000
  C   C3454     1.0  0.57697  0.02259  0.83308  1.0000
  C   C3455     1.0  0.55791  0.13447  0.87866  1.0000
  C   C3456     1.0  0.92166  0.13597  0.84755  1.0000
  H   H3456     1.0  0.83354  0.31030  0.88530  1.0000
  H   H3457     1.0  0.69826  0.40394  0.90354  1.0000
  H   H3458     1.0  0.52078  0.24238  0.97479  1.0000
  N   N290      1.0  0.58351  0.13560  0.85690  1.0000
  C   C3457     1.0  0.82316  0.47026  0.84042  1.0000
  C   C3458     1.0  0.83067  0.01522  0.81763  1.0000
  H   H3459     1.0  0.58469  0.24385  0.91996  1.0000
  S   S1155     1.0  0.50183  0.34725  0.94957  1.0000
  C   C3459     1.0  0.83647  0.13138  0.85945  1.0000
  C   C3460     1.0  0.83117  0.08712  0.96149  1.0000
  C   C3461     1.0  0.98459  0.28641  0.87116  1.0000
  Fe  Fe576     1.0  0.88375  0.47046  0.79328  1.0000
  C   C3462     1.0  0.85450  0.01814  0.78725  1.0000
  C   C3463     1.0  0.62948  0.99335  0.91164  1.0000
  C   C3464     1.0  0.88398  0.99301  0.81018  1.0000
  H   H3460     1.0  0.67435  0.42953  0.97384  1.0000
  C   C3465     1.0  0.86271  0.10604  0.92517  1.0000
  H   H3461     1.0  0.98250  0.43593  0.81947  1.0000
  C   C3466     1.0  0.88602  0.02142  0.81008  1.0000
  C   C3467     1.0  0.93207  0.16117  0.85515  1.0000
  C   C3468     1.0  0.84324  0.40530  0.87781  1.0000
  H   H3462     1.0  0.56510  0.04386  0.85909  1.0000
  C   C3469     1.0  0.86758  0.35005  0.98234  1.0000
  H   H3463     1.0  0.69346  0.39949  0.93314  1.0000
  H   H3464     1.0  0.50283  0.21793  0.89032  1.0000
  C   C3470     1.0  0.86017  0.40294  0.86875  1.0000
  Fe  Fe577     1.0  0.88028  0.06364  0.80885  1.0000
  H   H3465     1.0  0.84280  0.04954  0.81882  1.0000
  H   H3466     1.0  0.56223  0.44830  0.88921  1.0000
  C   C3471     1.0  0.56559  0.27151  0.94587  1.0000
  H   H3467     1.0  0.61726  0.07208  0.94630  1.0000
  N   N291      1.0  0.56480  0.40109  0.89187  1.0000
  C   C3472     1.0  0.83133  0.27796  0.89138  1.0000
  C   C3473     1.0  0.74531  0.40522  0.89942  1.0000
  N   N292      1.0  0.83210  0.11617  0.86746  1.0000
  C   C3474     1.0  0.83906  0.47488  0.83653  1.0000
  H   H3468     1.0  0.83589  0.26396  0.89474  1.0000
  C   C3475     1.0  0.55028  0.43023  0.88544  1.0000
  C   C3476     1.0  0.86406  0.41220  0.85218  1.0000
  H   H3469     1.0  0.74657  0.41288  0.87254  1.0000
  N   N293      1.0  0.83654  0.16563  0.98323  1.0000
  C   C3477     1.0  0.91904  0.15255  0.83800  1.0000
  C   C3478     1.0  0.73870  0.40908  0.88493  1.0000
  C   C3479     1.0  0.72175  0.40844  0.88644  1.0000
  H   H3470     1.0  0.57957  0.22346  0.94769  1.0000
  C   C3480     1.0  0.99348  0.42603  0.81611  1.0000
  H   H3471     1.0  0.58181  0.15796  0.88544  1.0000
  S   S1156     1.0  0.77817  0.08843  0.97999  1.0000
  H   H3472     1.0  0.87001  0.11573  0.92407  1.0000
  C   C3481     1.0  0.57753  0.40577  0.89582  1.0000
  H   H3473     1.0  0.85004  0.09564  0.87796  1.0000
  H   H3474     1.0  0.56576  0.23427  0.97368  1.0000
  H   H3475     1.0  0.59110  0.14286  0.83032  1.0000
  N   N294      1.0  0.84456  0.28604  0.87902  1.0000
  C   C3482     1.0  0.56296  0.43506  0.88991  1.0000
  H   H3476     1.0  0.58841  0.39636  0.89960  1.0000
  C   C3483     1.0  0.83915  0.10579  0.88206  1.0000
  H   H3477     1.0  0.82912  0.10003  0.89187  1.0000
  H   H3478     1.0  0.84369  0.11355  0.88799  1.0000
  C   C3484     1.0  0.92059  0.21844  0.92155  1.0000
  C   C3485     1.0  0.57560  0.47243  0.85849  1.0000
  H   H3479     1.0  0.70918  0.40207  0.94248  1.0000
  N   N295      1.0  0.71806  0.40043  0.91665  1.0000
  C   C3486     1.0  0.56281  0.14436  0.88665  1.0000
  H   H3480     1.0  0.59996  0.15019  0.85892  1.0000
  H   H3481     1.0  0.58664  0.42636  0.89861  1.0000
  H   H3482     1.0  0.51257  0.16868  0.87883  1.0000
  H   H3483     1.0  0.59286  0.38694  0.96651  1.0000
  C   C3487     1.0  0.49931  0.24851  0.91104  1.0000
  H   H3484     1.0  0.82912  0.03761  0.83488  1.0000
  Fe  Fe578     1.0  0.87146  0.10091  0.79299  1.0000
  C   C3488     1.0  0.84025  0.47880  0.80671  1.0000
  S   S1157     1.0  0.60818  0.99483  0.89126  1.0000
  H   H3485     1.0  0.52904  0.25844  0.87544  1.0000
  H   H3486     1.0  0.83141  0.16784  0.95918  1.0000
  H   H3487     1.0  0.98254  0.30925  0.87919  1.0000
  H   H3488     1.0  0.94392  0.26440  0.87269  1.0000
  C   C3489     1.0  0.50660  0.41087  0.86459  1.0000
  H   H3489     1.0  0.80603  0.13450  0.97464  1.0000
  H   H3490     1.0  0.87368  0.17478  0.98355  1.0000
  H   H3491     1.0  0.58610  0.08119  0.91040  1.0000
  H   H3492     1.0  0.63403  0.47259  0.97851  1.0000
  C   C3490     1.0  0.51374  0.39427  0.87214  1.0000
  C   C3491     1.0  0.83363  0.09232  0.97486  1.0000
  H   H3493     1.0  0.58047  0.05643  0.90416  1.0000
  C   C3492     1.0  0.79323  0.11466  0.97692  1.0000
  C   C3493     1.0  0.66175  0.43761  0.97816  1.0000
  S   S1158     1.0  0.89454  0.40901  0.79438  1.0000
  H   H3494     1.0  0.98697  0.40775  0.83887  1.0000
  C   C3494     1.0  0.63940  0.42160  0.98404  1.0000
  H   H3495     1.0  0.83038  0.99089  0.81385  1.0000
  H   H3496     1.0  0.83247  0.43576  0.97905  1.0000
  S   S1159     1.0  0.85977  0.07920  0.79505  1.0000
  C   C3495     1.0  0.97682  0.47262  0.79176  1.0000
  H   H3497     1.0  0.51339  0.26847  0.90158  1.0000
  H   H3498     1.0  0.72314  0.48430  0.90019  1.0000
  H   H3499     1.0  0.99807  0.28177  0.87143  1.0000
  H   H3500     1.0  0.71565  0.48871  0.88097  1.0000
  Fe  Fe579     1.0  0.89789  0.43589  0.78491  1.0000
  Fe  Fe580     1.0  0.81024  0.90503  0.08402  1.0000
  S   S1160     1.0  0.80988  0.93244  0.07241  1.0000
  S   S1161     1.0  0.82407  0.89331  0.10541  1.0000
  Fe  Fe581     1.0  0.79483  0.90069  0.05657  1.0000
  S   S1162     1.0  0.78734  0.88421  0.04383  1.0000
  Fe  Fe582     1.0  0.82009  0.92347  0.04813  1.0000
  Fe  Fe583     1.0  0.78382  0.93312  0.06886  1.0000
  S   S1163     1.0  0.76026  0.95362  0.07347  1.0000
  S   S1164     1.0  0.82170  0.89602  0.05978  1.0000
  S   S1165     1.0  0.78332  0.90620  0.08248  1.0000
  Fe  Fe584     1.0  0.84282  0.94893  0.15488  1.0000
  S   S1166     1.0  0.86217  0.96178  0.13537  1.0000
  S   S1167     1.0  0.81928  0.94661  0.14805  1.0000
  H   H3501     1.0  0.95693  0.67035  0.13629  1.0000
  S   S1168     1.0  0.88254  0.95650  0.16577  1.0000
  S   S1169     1.0  0.50246  0.94921  0.18411  1.0000
  Fe  Fe585     1.0  0.86140  0.97570  0.15488  1.0000
  C   C3496     1.0  0.77986  0.89026  0.01255  1.0000
  Fe  Fe586     1.0  0.88134  0.94130  0.14783  1.0000
  S   S1170     1.0  0.90398  0.92801  0.13068  1.0000
  H   H3502     1.0  0.51012  0.89401  0.13222  1.0000
  S   S1171     1.0  0.86184  0.92762  0.16636  1.0000
  Fe  Fe587     1.0  0.91213  0.82434  0.07429  1.0000
  S   S1172     1.0  0.93181  0.83283  0.05159  1.0000
  S   S1173     1.0  0.90176  0.80059  0.08127  1.0000
  Fe  Fe588     1.0  0.90907  0.85419  0.08956  1.0000
  S   S1174     1.0  0.92858  0.86534  0.06836  1.0000
  S   S1175     1.0  0.89194  0.86494  0.11156  1.0000
  Fe  Fe589     1.0  0.91544  0.85892  0.05170  1.0000
  C   C3497     1.0  0.77462  0.53089  0.10579  1.0000
  Fe  Fe590     1.0  0.94350  0.83847  0.06994  1.0000
  S   S1176     1.0  0.97209  0.82902  0.06678  1.0000
  S   S1177     1.0  0.89462  0.84994  0.07270  1.0000
  S   S1178     1.0  0.92511  0.82783  0.09281  1.0000
  Fe  Fe591     1.0  0.55391  0.86360  0.06669  1.0000
  S   S1179     1.0  0.53128  0.88373  0.06019  1.0000
  S   S1180     1.0  0.55058  0.83689  0.07873  1.0000
  Fe  Fe592     1.0  0.57723  0.88873  0.05685  1.0000
  S   S1181     1.0  0.55652  0.91071  0.04919  1.0000
  S   S1182     1.0  0.60424  0.89040  0.05563  1.0000
  Fe  Fe593     1.0  0.53975  0.89933  0.07288  1.0000
  S   S1183     1.0  0.52054  0.91674  0.08858  1.0000
  Fe  Fe594     1.0  0.55018  0.89314  0.03727  1.0000
  S   S1184     1.0  0.54416  0.90262  0.01154  1.0000
  S   S1185     1.0  0.56084  0.87835  0.08149  1.0000
  S   S1186     1.0  0.57240  0.87192  0.04275  1.0000
  Fe  Fe595     1.0  0.52603  0.94824  0.16337  1.0000
  S   S1187     1.0  0.51557  0.97236  0.14684  1.0000
  S   S1188     1.0  0.54057  0.92572  0.15223  1.0000
  H   H3503     1.0  0.57983  0.57214  0.16842  1.0000
  C   C3498     1.0  0.98743  0.65727  0.14269  1.0000
  S   S1189     1.0  0.64150  0.94579  0.08989  1.0000
  S   S1190     1.0  0.61479  0.96265  0.05464  1.0000
  Fe  Fe596     1.0  0.66780  0.95140  0.07934  1.0000
  S   S1191     1.0  0.69237  0.93164  0.07609  1.0000
  C   C3499     1.0  0.58902  0.97571  0.14843  1.0000
  Fe  Fe597     1.0  0.57155  0.75592  0.04364  1.0000
  S   S1192     1.0  0.56979  0.74598  0.02210  1.0000
  S   S1193     1.0  0.58018  0.78076  0.03506  1.0000
  Fe  Fe598     1.0  0.55775  0.72715  0.06998  1.0000
  S   S1194     1.0  0.55436  0.71549  0.05055  1.0000
  C   C3500     1.0  0.60706  0.90029  0.99452  1.0000
  Fe  Fe599     1.0  0.58032  0.72042  0.03677  1.0000
  S   S1195     1.0  0.59798  0.70017  0.02348  1.0000
  Fe  Fe600     1.0  0.54428  0.74205  0.03778  1.0000
  H   H3504     1.0  0.88979  0.69017  0.99919  1.0000
  S   S1196     1.0  0.58450  0.73056  0.05705  1.0000
  S   S1197     1.0  0.54517  0.75351  0.05850  1.0000
  Fe  Fe601     1.0  0.68114  0.60464  0.03221  1.0000
  S   S1198     1.0  0.69701  0.61814  0.03932  1.0000
  S   S1199     1.0  0.68878  0.59506  0.00824  1.0000
  Fe  Fe602     1.0  0.65557  0.60305  0.06592  1.0000
  S   S1200     1.0  0.66936  0.61616  0.07624  1.0000
  S   S1201     1.0  0.62982  0.59645  0.07738  1.0000
  Fe  Fe603     1.0  0.67172  0.63340  0.05048  1.0000
  S   S1202     1.0  0.66629  0.66147  0.04883  1.0000
  Fe  Fe604     1.0  0.69338  0.59975  0.06423  1.0000
  S   S1203     1.0  0.71667  0.58523  0.07473  1.0000
  S   S1204     1.0  0.65617  0.62150  0.04102  1.0000
  S   S1205     1.0  0.67928  0.58499  0.05628  1.0000
  H   H3505     1.0  0.75728  0.93699  0.01304  1.0000
  S   S1206     1.0  0.52990  0.64501  0.12409  1.0000
  C   C3501     1.0  0.51774  0.80753  0.01135  1.0000
  Fe  Fe605     1.0  0.56928  0.60897  0.16099  1.0000
  S   S1207     1.0  0.59784  0.59982  0.15397  1.0000
  S   S1208     1.0  0.55118  0.60269  0.14937  1.0000
  H   H3506     1.0  0.50549  0.94093  0.10969  1.0000
  H   H3507     1.0  0.79866  0.92335  0.11200  1.0000
  C   C3502     1.0  0.55005  0.96986  0.10832  1.0000
  C   C3503     1.0  0.53679  0.67358  0.12829  1.0000
  H   H3508     1.0  0.69933  0.95888  0.03683  1.0000
  C   C3504     1.0  0.58445  0.94436  0.13135  1.0000
  Fe  Fe606     1.0  0.86133  0.94436  0.18324  1.0000
  Fe  Fe607     1.0  0.79005  0.62086  0.07985  1.0000
  S   S1209     1.0  0.80689  0.61168  0.05690  1.0000
  S   S1210     1.0  0.76172  0.63153  0.08194  1.0000
  Fe  Fe608     1.0  0.82012  0.61569  0.09633  1.0000
  S   S1211     1.0  0.83927  0.60582  0.07491  1.0000
  S   S1212     1.0  0.82757  0.62070  0.11806  1.0000
  Fe  Fe609     1.0  0.82456  0.62707  0.05824  1.0000
  S   S1213     1.0  0.83907  0.64268  0.03530  1.0000
  Fe  Fe610     1.0  0.81982  0.59134  0.07580  1.0000
  S   S1214     1.0  0.82769  0.56348  0.07578  1.0000
  S   S1215     1.0  0.80664  0.63798  0.07966  1.0000
  S   S1216     1.0  0.80170  0.59950  0.09875  1.0000
  Fe  Fe611     1.0  0.91300  0.70661  0.04189  1.0000
  S   S1217     1.0  0.88976  0.72461  0.05255  1.0000
  S   S1218     1.0  0.93317  0.69033  0.05607  1.0000
  S   S1219     1.0  0.88012  0.73420  0.01515  1.0000
  Fe  Fe612     1.0  0.89600  0.74258  0.02770  1.0000
  S   S1220     1.0  0.89749  0.77000  0.02210  1.0000
  Fe  Fe613     1.0  0.87634  0.71431  0.03894  1.0000
  S   S1221     1.0  0.85052  0.70789  0.05067  1.0000
  S   S1222     1.0  0.92030  0.72531  0.01794  1.0000
  S   S1223     1.0  0.89922  0.69489  0.03017  1.0000
  H   H3509     1.0  0.90066  0.64079  0.99996  1.0000
  S   S1224     1.0  0.91934  0.59791  0.16368  1.0000
  Fe  Fe614     1.0  0.91818  0.64557  0.14674  1.0000
  S   S1225     1.0  0.93590  0.62616  0.13270  1.0000
  S   S1226     1.0  0.91637  0.67336  0.13598  1.0000
  Fe  Fe615     1.0  0.91293  0.61448  0.13938  1.0000
  S   S1227     1.0  0.90582  0.60425  0.12064  1.0000
  Fe  Fe616     1.0  0.94048  0.61178  0.15836  1.0000
  S   S1228     1.0  0.96519  0.59805  0.16662  1.0000
  S   S1229     1.0  0.89495  0.63491  0.15174  1.0000
  S   S1230     1.0  0.92440  0.63219  0.17202  1.0000
  H   H3510     1.0  0.61516  0.85480  0.05049  1.0000
  H   H3511     1.0  0.83339  0.69922  0.01596  1.0000
  C   C3505     1.0  0.56370  0.53891  0.16881  1.0000
  C   C3506     1.0  0.52830  0.71792  0.02218  1.0000
  S   S1231     1.0  0.77706  0.53571  0.05157  1.0000
  Fe  Fe617     1.0  0.63430  0.96511  0.06735  1.0000
  H   H3512     1.0  0.79710  0.94409  0.12867  1.0000
  C   C3507     1.0  0.98454  0.60346  0.15426  1.0000
  C   C3508     1.0  0.92069  0.67781  0.11381  1.0000
  C   C3509     1.0  0.93560  0.66903  0.10476  1.0000
  C   C3510     1.0  0.93929  0.67303  0.08703  1.0000
  C   C3511     1.0  0.92789  0.68552  0.07827  1.0000
  C   C3512     1.0  0.91278  0.69407  0.08732  1.0000
  C   C3513     1.0  0.90931  0.69039  0.10507  1.0000
  H   H3513     1.0  0.94450  0.65940  0.11138  1.0000
  H   H3514     1.0  0.95099  0.66639  0.08009  1.0000
  H   H3515     1.0  0.90390  0.70369  0.08071  1.0000
  H   H3516     1.0  0.89774  0.69717  0.11206  1.0000
  C   C3514     1.0  0.79135  0.54306  0.05832  1.0000
  C   C3515     1.0  0.80497  0.53192  0.06500  1.0000
  C   C3516     1.0  0.81641  0.53830  0.06990  1.0000
  C   C3517     1.0  0.81397  0.55577  0.06854  1.0000
  C   C3518     1.0  0.80012  0.56680  0.06222  1.0000
  C   C3519     1.0  0.78898  0.56048  0.05692  1.0000
  H   H3517     1.0  0.80688  0.51845  0.06609  1.0000
  H   H3518     1.0  0.82705  0.52970  0.07490  1.0000
  H   H3519     1.0  0.79801  0.58021  0.06134  1.0000
  H   H3520     1.0  0.77846  0.56914  0.05179  1.0000
  C   C3520     1.0  0.84194  0.66110  0.03923  1.0000
  C   C3521     1.0  0.85672  0.66728  0.03066  1.0000
  C   C3522     1.0  0.85944  0.68165  0.03408  1.0000
  C   C3523     1.0  0.84732  0.69003  0.04594  1.0000
  C   C3524     1.0  0.83224  0.68423  0.05401  1.0000
  C   C3525     1.0  0.82956  0.66981  0.05066  1.0000
  H   H3521     1.0  0.86620  0.66089  0.02152  1.0000
  H   H3522     1.0  0.87075  0.68639  0.02729  1.0000
  H   H3523     1.0  0.82264  0.69084  0.06297  1.0000
  H   H3524     1.0  0.81777  0.66562  0.05677  1.0000
  C   C3526     1.0  0.84962  0.61718  0.11696  1.0000
  C   C3527     1.0  0.85545  0.62676  0.12459  1.0000
  C   C3528     1.0  0.87273  0.62312  0.12543  1.0000
  C   C3529     1.0  0.88426  0.60972  0.11887  1.0000
  C   C3530     1.0  0.87855  0.60048  0.11074  1.0000
  C   C3531     1.0  0.86124  0.60418  0.10980  1.0000
  H   H3525     1.0  0.84653  0.63692  0.13001  1.0000
  H   H3526     1.0  0.87703  0.63073  0.13112  1.0000
  H   H3527     1.0  0.88743  0.59017  0.10552  1.0000
  H   H3528     1.0  0.85680  0.59658  0.10409  1.0000
  C   C3532     1.0  0.98457  0.84418  0.06213  1.0000
  C   C3533     1.0  0.77816  0.89673  0.02675  1.0000
  N   N296      1.0  0.71759  0.98545  0.04636  1.0000
  N   N297      1.0  0.56672  0.95984  0.11152  1.0000
  H   H3529     1.0  0.61067  0.93409  0.12057  1.0000
  Fe  Fe618     1.0  0.77634  0.50820  0.06084  1.0000
  H   H3530     1.0  0.53334  0.69172  0.02080  1.0000
  C   C3534     1.0  0.78063  0.54559  0.10307  1.0000
  C   C3535     1.0  0.50200  0.80463  0.02160  1.0000
  H   H3531     1.0  0.76307  0.53149  0.10181  1.0000
  H   H3532     1.0  0.74435  0.98212  0.04494  1.0000
  C   C3536     1.0  0.77340  0.90071  0.99850  1.0000
  C   C3537     1.0  0.73225  0.89870  0.02251  1.0000
  C   C3538     1.0  0.52327  0.53904  0.15787  1.0000
  C   C3539     1.0  0.52747  0.55475  0.14971  1.0000
  C   C3540     1.0  0.52748  0.56613  0.15915  1.0000
  C   C3541     1.0  0.76936  0.91339  0.02711  1.0000
  C   C3542     1.0  0.72196  0.91084  0.01232  1.0000
  H   H3533     1.0  0.53080  0.55809  0.13605  1.0000
  H   H3534     1.0  0.53074  0.57820  0.15276  1.0000
  C   C3543     1.0  0.72912  0.59793  0.07715  1.0000
  C   C3544     1.0  0.74648  0.59127  0.07750  1.0000
  C   C3545     1.0  0.75661  0.60139  0.07919  1.0000
  C   C3546     1.0  0.74927  0.61807  0.08095  1.0000
  C   C3547     1.0  0.73183  0.62453  0.08102  1.0000
  C   C3548     1.0  0.72185  0.61462  0.07878  1.0000
  H   H3535     1.0  0.75213  0.57833  0.07629  1.0000
  H   H3536     1.0  0.77006  0.59632  0.07915  1.0000
  H   H3537     1.0  0.72601  0.63729  0.08274  1.0000
  H   H3538     1.0  0.70842  0.61975  0.07873  1.0000
  C   C3549     1.0  0.62120  0.59762  0.09860  1.0000
  C   C3550     1.0  0.60339  0.60106  0.10436  1.0000
  C   C3551     1.0  0.59613  0.60222  0.12122  1.0000
  C   C3552     1.0  0.60666  0.59940  0.13256  1.0000
  C   C3553     1.0  0.62450  0.59593  0.12681  1.0000
  C   C3554     1.0  0.63178  0.59525  0.10979  1.0000
  H   H3539     1.0  0.59517  0.60304  0.09568  1.0000
  H   H3540     1.0  0.58239  0.60518  0.12542  1.0000
  H   H3541     1.0  0.63270  0.59379  0.13554  1.0000
  H   H3542     1.0  0.64555  0.59256  0.10543  1.0000
  N   N298      1.0  0.57099  0.53689  0.15261  1.0000
  S   S1232     1.0  0.62063  0.96753  0.12839  1.0000
  S   S1233     1.0  0.52027  0.62473  0.17360  1.0000
  H   H3543     1.0  0.54145  0.71762  0.02184  1.0000
  H   H3544     1.0  0.83787  0.58744  0.14757  1.0000
  C   C3555     1.0  0.61717  0.68991  0.03030  1.0000
  C   C3556     1.0  0.62259  0.69576  0.04159  1.0000
  C   C3557     1.0  0.63786  0.68716  0.04698  1.0000
  C   C3558     1.0  0.64771  0.67262  0.04121  1.0000
  C   C3559     1.0  0.64242  0.66692  0.02973  1.0000
  C   C3560     1.0  0.62719  0.67554  0.02431  1.0000
  H   H3545     1.0  0.61514  0.70699  0.04604  1.0000
  H   H3546     1.0  0.64197  0.69173  0.05574  1.0000
  H   H3547     1.0  0.65024  0.65612  0.02472  1.0000
  H   H3548     1.0  0.62320  0.67110  0.01539  1.0000
  C   C3561     1.0  0.53131  0.79493  0.03454  1.0000
  C   C3562     1.0  0.54633  0.68640  0.09353  1.0000
  C   C3563     1.0  0.54162  0.67065  0.09948  1.0000
  C   C3564     1.0  0.53677  0.66424  0.11687  1.0000
  H   H3549     1.0  0.55012  0.69113  0.08014  1.0000
  H   H3550     1.0  0.54174  0.66341  0.09060  1.0000
  C   C3565     1.0  0.51580  0.79178  0.04512  1.0000
  C   C3566     1.0  0.82492  0.90435  0.01155  1.0000
  H   H3551     1.0  0.69178  0.98522  0.04731  1.0000
  C   C3567     1.0  0.72541  0.95702  0.08096  1.0000
  H   H3552     1.0  0.56359  0.93196  1.00000  1.0000
  N   N299      1.0  0.97278  0.65210  0.15215  1.0000
  C   C3568     1.0  0.86135  0.91599  0.02781  1.0000
  H   H3553     1.0  0.55904  0.79442  0.00911  1.0000
  S   S1234     1.0  0.84193  0.93102  0.02748  1.0000
  C   C3569     1.0  0.55754  0.82174  0.06605  1.0000
  C   C3570     1.0  0.55582  0.80502  0.07343  1.0000
  C   C3571     1.0  0.56245  0.79237  0.06396  1.0000
  C   C3572     1.0  0.57104  0.79637  0.04711  1.0000
  C   C3573     1.0  0.57251  0.81315  0.03964  1.0000
  C   C3574     1.0  0.56565  0.82584  0.04903  1.0000
  H   H3554     1.0  0.54954  0.80178  0.08660  1.0000
  H   H3555     1.0  0.56127  0.77945  0.06982  1.0000
  H   H3556     1.0  0.57903  0.81632  0.02655  1.0000
  H   H3557     1.0  0.56692  0.83870  0.04318  1.0000
  C   C3575     1.0  0.54071  0.88636  0.00444  1.0000
  C   C3576     1.0  0.54118  0.68948  0.12232  1.0000
  C   C3577     1.0  0.51583  0.73276  0.02357  1.0000
  S   S1235     1.0  0.52380  0.52496  0.14568  1.0000
  C   C3578     1.0  0.53714  0.85759  0.00943  1.0000
  C   C3579     1.0  0.54084  0.87026  0.01491  1.0000
  H   H3558     1.0  0.56599  0.67168  0.99349  1.0000
  H   H3559     1.0  0.53710  0.84521  0.01765  1.0000
  H   H3560     1.0  0.54354  0.86761  0.02735  1.0000
  C   C3580     1.0  0.52734  0.92070  0.10488  1.0000
  C   C3581     1.0  0.51706  0.93322  0.11362  1.0000
  C   C3582     1.0  0.52130  0.93529  0.12787  1.0000
  C   C3583     1.0  0.53585  0.92482  0.13342  1.0000
  C   C3584     1.0  0.54638  0.91269  0.12438  1.0000
  C   C3585     1.0  0.54218  0.91069  0.11010  1.0000
  C   C3586     1.0  0.51097  0.65904  0.99350  1.0000
  H   H3561     1.0  0.72979  0.94411  0.03006  1.0000
  H   H3562     1.0  0.55766  0.90459  0.12861  1.0000
  H   H3563     1.0  0.55022  0.90110  0.10344  1.0000
  C   C3587     1.0  0.60696  0.91037  0.05615  1.0000
  C   C3588     1.0  0.59419  0.92489  0.05321  1.0000
  C   C3589     1.0  0.59680  0.94081  0.05275  1.0000
  C   C3590     1.0  0.61206  0.94233  0.05564  1.0000
  C   C3591     1.0  0.62476  0.92779  0.05903  1.0000
  C   C3592     1.0  0.62228  0.91186  0.05907  1.0000
  H   H3564     1.0  0.58234  0.92399  0.05109  1.0000
  H   H3565     1.0  0.58692  0.95200  0.05018  1.0000
  H   H3566     1.0  0.63660  0.92887  0.06125  1.0000
  H   H3567     1.0  0.63225  0.90068  0.06138  1.0000
  C   C3593     1.0  0.90008  0.79255  0.06472  1.0000
  C   C3594     1.0  0.90478  0.80071  0.04786  1.0000
  C   C3595     1.0  0.90375  0.79376  0.03487  1.0000
  C   C3596     1.0  0.89823  0.77853  0.03869  1.0000
  C   C3597     1.0  0.89352  0.77038  0.05557  1.0000
  C   C3598     1.0  0.89425  0.77750  0.06856  1.0000
  H   H3568     1.0  0.90917  0.81239  0.04479  1.0000
  H   H3569     1.0  0.90733  0.80014  0.02182  1.0000
  H   H3570     1.0  0.88909  0.75873  0.05862  1.0000
  H   H3571     1.0  0.89049  0.77120  0.08161  1.0000
  H   H3572     1.0  0.61924  0.89134  0.99290  1.0000
  C   C3599     1.0  0.97714  0.86078  0.06402  1.0000
  H   H3573     1.0  0.74841  0.87494  0.04338  1.0000
  H   H3574     1.0  0.96348  0.86453  0.06841  1.0000
  S   S1236     1.0  0.53957  0.96004  0.17528  1.0000
  S   S1237     1.0  0.62704  0.98749  0.07954  1.0000
  H   H3575     1.0  0.87684  0.94302  0.10794  1.0000
  C   C3600     1.0  0.76340  0.92391  0.01296  1.0000
  S   S1238     1.0  0.91215  0.87724  0.02724  1.0000
  C   C3601     1.0  0.57272  0.69320  0.99738  1.0000
  S   S1239     1.0  0.55722  0.63664  0.15812  1.0000
  N   N300      1.0  0.82081  0.90030  0.99744  1.0000
  C   C3602     1.0  0.83939  0.70562  0.00362  1.0000
  C   C3603     1.0  0.90129  0.90983  0.12594  1.0000
  C   C3604     1.0  0.91411  0.90142  0.11442  1.0000
  C   C3605     1.0  0.91157  0.88749  0.10988  1.0000
  C   C3606     1.0  0.89632  0.88175  0.11716  1.0000
  C   C3607     1.0  0.88376  0.88994  0.12887  1.0000
  C   C3608     1.0  0.88612  0.90404  0.13302  1.0000
  H   H3576     1.0  0.92591  0.90584  0.10885  1.0000
  H   H3577     1.0  0.92139  0.88117  0.10087  1.0000
  H   H3578     1.0  0.87204  0.88546  0.13465  1.0000
  H   H3579     1.0  0.87609  0.91046  0.14160  1.0000
  C   C3609     1.0  0.74139  0.94670  0.07590  1.0000
  C   C3610     1.0  0.74214  0.93151  0.07168  1.0000
  C   C3611     1.0  0.72702  0.92674  0.07235  1.0000
  C   C3612     1.0  0.71103  0.93728  0.07691  1.0000
  C   C3613     1.0  0.71028  0.95240  0.08132  1.0000
  C   C3614     1.0  0.89246  0.89192  0.02765  1.0000
  H   H3580     1.0  0.75438  0.92356  0.06757  1.0000
  H   H3581     1.0  0.72779  0.91496  0.06913  1.0000
  H   H3582     1.0  0.76702  0.91818  0.03837  1.0000
  C   C3615     1.0  0.87930  0.89133  0.04216  1.0000
  C   C3616     1.0  0.86381  0.90341  0.04228  1.0000
  H   H3583     1.0  0.88110  0.88168  0.05334  1.0000
  H   H3584     1.0  0.85395  0.90318  0.05367  1.0000
  C   C3617     1.0  0.82255  0.90782  0.11765  1.0000
  C   C3618     1.0  0.83550  0.90576  0.12624  1.0000
  C   C3619     1.0  0.83488  0.91778  0.13532  1.0000
  C   C3620     1.0  0.82102  0.93165  0.13622  1.0000
  C   C3621     1.0  0.80791  0.93346  0.12793  1.0000
  C   C3622     1.0  0.80878  0.92172  0.11848  1.0000
  H   H3585     1.0  0.84620  0.89507  0.12549  1.0000
  H   H3586     1.0  0.84505  0.91629  0.14167  1.0000
  N   N301      1.0  0.61126  0.65273  0.08790  1.0000
  C   C3623     1.0  0.60218  0.66903  0.08445  1.0000
  C   C3624     1.0  0.60812  0.64284  0.10379  1.0000
  C   C3625     1.0  0.58924  0.67565  0.09701  1.0000
  C   C3626     1.0  0.59507  0.64892  0.11657  1.0000
  C   C3627     1.0  0.58556  0.66545  0.11311  1.0000
  C   C3628     1.0  0.62510  0.64614  0.07474  1.0000
  H   H3587     1.0  0.60491  0.67702  0.07195  1.0000
  H   H3588     1.0  0.61571  0.63015  0.10668  1.0000
  H   H3589     1.0  0.58211  0.68862  0.09425  1.0000
  H   H3590     1.0  0.57543  0.67037  0.12292  1.0000
  H   H3591     1.0  0.62706  0.63218  0.07675  1.0000
  H   H3592     1.0  0.62208  0.65162  0.06203  1.0000
  H   H3593     1.0  0.63721  0.64930  0.07481  1.0000
  H   H3594     1.0  0.99023  0.84719  0.10599  1.0000
  C   C3629     1.0  0.85252  0.94565  0.10175  1.0000
  H   H3595     1.0  0.58705  0.54582  0.12911  1.0000
  H   H3596     1.0  0.84730  0.72240  0.01395  1.0000
  C   C3630     1.0  0.82532  0.88390  0.99555  1.0000
  C   C3631     1.0  0.64814  0.49608  0.09248  1.0000
  S   S1240     1.0  0.75960  0.50089  0.08622  1.0000
  C   C3632     1.0  0.59885  0.97779  0.13189  1.0000
  C   C3633     1.0  0.82156  0.52822  0.11829  1.0000
  C   C3634     1.0  0.87585  0.58460  0.15718  1.0000
  H   H3597     1.0  0.64831  0.61199  0.01254  1.0000
  H   H3598     1.0  0.90015  0.90513  0.00198  1.0000
  Fe  Fe619     1.0  0.90398  0.71553  0.00725  1.0000
  N   N302      1.0  0.59153  0.83469  0.08585  1.0000
  C   C3635     1.0  0.59161  0.82065  0.08057  1.0000
  C   C3636     1.0  0.59991  0.84682  0.07523  1.0000
  C   C3637     1.0  0.60034  0.81840  0.06433  1.0000
  C   C3638     1.0  0.58169  0.83701  0.10270  1.0000
  H   H3599     1.0  0.58435  0.81140  0.08872  1.0000
  C   C3639     1.0  0.87454  0.91660  0.01333  1.0000
  H   H3600     1.0  0.58498  0.84716  0.10655  1.0000
  H   H3601     1.0  0.56777  0.84052  0.10274  1.0000
  H   H3602     1.0  0.58422  0.82513  0.11230  1.0000
  C   C3640     1.0  0.50901  0.71865  0.08889  1.0000
  H   H3603     1.0  0.87277  0.92635  0.00213  1.0000
  H   H3604     1.0  0.53294  0.66877  0.14174  1.0000
  H   H3605     1.0  0.94562  0.66066  0.15626  1.0000
  S   S1241     1.0  0.79412  0.92768  0.04298  1.0000
  H   H3606     1.0  0.77480  0.89571  0.98752  1.0000
  S   S1242     1.0  0.66110  0.96875  0.05556  1.0000
  C   C3641     1.0  0.73904  0.88438  0.05024  1.0000
  H   H3607     1.0  0.63620  0.64202  0.00133  1.0000
  C   C3642     1.0  0.56975  0.71088  0.99386  1.0000
  C   C3643     1.0  0.95358  0.88518  0.02830  1.0000
  H   H3608     1.0  0.69809  0.96059  0.08492  1.0000
  C   C3644     1.0  0.84243  0.60322  0.16156  1.0000
  C   C3645     1.0  0.52375  0.70332  0.02142  1.0000
  C   C3646     1.0  0.99252  0.82364  0.09916  1.0000
  C   C3647     1.0  0.84709  0.58996  0.15304  1.0000
  H   H3609     1.0  0.63555  0.49721  0.10156  1.0000
  C   C3648     1.0  0.50666  0.70354  0.02225  1.0000
  C   C3649     1.0  0.50285  0.53122  0.11125  1.0000
  H   H3610     1.0  0.59996  0.80743  0.06008  1.0000
  N   N303      1.0  0.93572  0.74619  0.05594  1.0000
  C   C3650     1.0  0.93682  0.76026  0.06044  1.0000
  C   C3651     1.0  0.92943  0.73341  0.06790  1.0000
  C   C3652     1.0  0.93211  0.76150  0.07740  1.0000
  C   C3653     1.0  0.92447  0.73429  0.08497  1.0000
  C   C3654     1.0  0.92583  0.74845  0.08971  1.0000
  C   C3655     1.0  0.94044  0.74524  0.03808  1.0000
  H   H3611     1.0  0.94100  0.77078  0.05088  1.0000
  H   H3612     1.0  0.92817  0.72247  0.06427  1.0000
  H   H3613     1.0  0.93270  0.77282  0.08089  1.0000
  H   H3614     1.0  0.91949  0.72411  0.09441  1.0000
  H   H3615     1.0  0.92174  0.74948  0.10285  1.0000
  H   H3616     1.0  0.94448  0.73187  0.03662  1.0000
  H   H3617     1.0  0.92931  0.75161  0.03210  1.0000
  H   H3618     1.0  0.95130  0.75149  0.03117  1.0000
  N   N304      1.0  0.80507  0.52918  0.11452  1.0000
  C   C3656     1.0  0.79874  0.51489  0.11816  1.0000
  H   H3619     1.0  0.59307  0.56829  0.13916  1.0000
  S   S1243     1.0  0.66259  0.97186  0.09353  1.0000
  C   C3657     1.0  0.57162  0.98361  0.15168  1.0000
  H   H3620     1.0  0.95522  0.64870  0.13992  1.0000
  H   H3621     1.0  0.98857  0.62398  0.18442  1.0000
  H   H3622     1.0  0.81949  0.53206  0.13042  1.0000
  N   N305      1.0  0.89287  0.65037  0.08583  1.0000
  C   C3658     1.0  0.88187  0.66586  0.08490  1.0000
  C   C3659     1.0  0.88852  0.63711  0.08273  1.0000
  C   C3660     1.0  0.86568  0.66814  0.08158  1.0000
  C   C3661     1.0  0.87244  0.63895  0.07939  1.0000
  C   C3662     1.0  0.86090  0.65450  0.07904  1.0000
  C   C3663     1.0  0.90965  0.64824  0.08957  1.0000
  H   H3623     1.0  0.88553  0.67651  0.08684  1.0000
  H   H3624     1.0  0.89732  0.62487  0.08328  1.0000
  H   H3625     1.0  0.54082  0.69680  0.13123  1.0000
  H   H3626     1.0  0.86880  0.62830  0.07741  1.0000
  H   H3627     1.0  0.84827  0.65594  0.07683  1.0000
  H   H3628     1.0  0.90844  0.65478  0.09980  1.0000
  H   H3629     1.0  0.91539  0.63468  0.09410  1.0000
  H   H3630     1.0  0.91851  0.65359  0.07806  1.0000
  C   C3664     1.0  0.95906  0.86868  0.02575  1.0000
  C   C3665     1.0  0.50187  0.78348  0.99098  1.0000
  C   C3666     1.0  0.52304  0.56193  0.17679  1.0000
  C   C3667     1.0  0.73445  0.97751  0.04250  1.0000
  H   H3631     1.0  0.70850  0.90323  0.06094  1.0000
  H   H3632     1.0  0.99854  0.80099  0.08975  1.0000
  C   C3668     1.0  0.57736  0.56223  0.16401  1.0000
  C   C3669     1.0  0.50816  0.71975  0.07229  1.0000
  C   C3670     1.0  0.97308  0.64034  0.16701  1.0000
  H   H3633     1.0  0.74642  0.89149  0.05395  1.0000
  H   H3634     1.0  0.83712  0.62971  0.17411  1.0000
  H   H3635     1.0  0.58390  0.49468  0.11374  1.0000
  H   H3636     1.0  0.52351  0.51094  0.11843  1.0000
  C   C3671     1.0  0.86645  0.62563  0.00097  1.0000
  C   C3672     1.0  0.71236  0.90527  0.04727  1.0000
  H   H3637     1.0  0.54835  0.80950  0.99354  1.0000
  H   H3638     1.0  0.50410  0.84750  0.02401  1.0000
  N   N306      1.0  0.86890  0.91820  0.08671  1.0000
  C   C3673     1.0  0.85215  0.92554  0.08622  1.0000
  C   C3674     1.0  0.87782  0.92472  0.09392  1.0000
  C   C3675     1.0  0.84372  0.93940  0.09369  1.0000
  C   C3676     1.0  0.56388  0.68538  0.99089  1.0000
  H   H3639     1.0  0.98741  0.66601  0.13055  1.0000
  C   C3677     1.0  0.87756  0.90384  0.07865  1.0000
  H   H3640     1.0  0.84513  0.92048  0.08034  1.0000
  H   H3641     1.0  0.89123  0.91924  0.09385  1.0000
  H   H3642     1.0  0.83029  0.94491  0.09368  1.0000
  C   C3678     1.0  0.86974  0.93835  0.10176  1.0000
  S   S1244     1.0  0.52116  0.75047  0.02626  1.0000
  H   H3643     1.0  0.88855  0.89596  0.08429  1.0000
  H   H3644     1.0  0.86870  0.89539  0.08045  1.0000
  H   H3645     1.0  0.88238  0.90854  0.06495  1.0000
  C   C3679     1.0  0.78359  0.51544  0.11358  1.0000
  C   C3680     1.0  0.51894  0.53476  0.17551  1.0000
  H   H3646     1.0  0.51538  0.89858  0.15802  1.0000
  H   H3647     1.0  0.85552  0.62120  0.00981  1.0000
  H   H3648     1.0  0.88911  0.57781  0.15502  1.0000
  H   H3649     1.0  0.85690  0.68040  0.08096  1.0000
  C   C3681     1.0  0.89048  0.69153  0.98590  1.0000
  C   C3682     1.0  0.64259  0.61527  0.00163  1.0000
  H   H3650     1.0  0.54061  0.96160  0.11248  1.0000
  N   N307      1.0  0.83966  0.70062  0.98938  1.0000
  H   H3651     1.0  0.64618  0.49454  0.08046  1.0000
  H   H3652     1.0  0.80554  0.50290  0.12440  1.0000
  H   H3653     1.0  0.55070  0.97578  0.09471  1.0000
  H   H3654     1.0  0.80801  0.92560  0.98841  1.0000
  H   H3655     1.0  0.97882  0.82424  0.10240  1.0000
  C   C3683     1.0  0.70512  0.97907  0.04404  1.0000
  C   C3684     1.0  0.56764  0.52367  0.14639  1.0000
  H   H3656     1.0  0.59487  0.96790  0.15877  1.0000
  C   C3685     1.0  0.50358  0.90518  0.15384  1.0000
  H   H3657     1.0  0.51523  0.78556  0.05831  1.0000
  C   C3686     1.0  0.58478  0.56006  0.14755  1.0000
  H   H3658     1.0  0.60967  0.90553  0.01735  1.0000
  H   H3659     1.0  0.67693  0.49587  0.10140  1.0000
  N   N308      1.0  0.72893  0.55124  0.05455  1.0000
  C   C3687     1.0  0.71684  0.55016  0.04688  1.0000
  C   C3688     1.0  0.73927  0.56259  0.04693  1.0000
  C   C3689     1.0  0.71508  0.56043  0.03102  1.0000
  C   C3690     1.0  0.73792  0.57297  0.03105  1.0000
  C   C3691     1.0  0.72573  0.57187  0.02308  1.0000
  C   C3692     1.0  0.72994  0.54103  0.07153  1.0000
  H   H3660     1.0  0.70837  0.54146  0.05313  1.0000
  H   H3661     1.0  0.74840  0.56389  0.05329  1.0000
  H   H3662     1.0  0.70530  0.55981  0.02505  1.0000
  H   H3663     1.0  0.74616  0.58193  0.02514  1.0000
  H   H3664     1.0  0.72433  0.58005  0.01088  1.0000
  H   H3665     1.0  0.72736  0.52833  0.07309  1.0000
  H   H3666     1.0  0.74292  0.53902  0.07394  1.0000
  H   H3667     1.0  0.72049  0.54766  0.08108  1.0000
  N   N309      1.0  0.85155  0.84596  0.09591  1.0000
  C   C3693     1.0  0.86134  0.83064  0.09296  1.0000
  C   C3694     1.0  0.83867  0.85425  0.08751  1.0000
  C   C3695     1.0  0.85833  0.82330  0.08129  1.0000
  C   C3696     1.0  0.83533  0.84729  0.07573  1.0000
  C   C3697     1.0  0.84528  0.83172  0.07260  1.0000
  C   C3698     1.0  0.85492  0.85386  0.10785  1.0000
  H   H3668     1.0  0.87173  0.82409  0.09942  1.0000
  H   H3669     1.0  0.83090  0.86634  0.08987  1.0000
  H   H3670     1.0  0.86619  0.81122  0.07890  1.0000
  H   H3671     1.0  0.82511  0.85398  0.06907  1.0000
  H   H3672     1.0  0.84294  0.82618  0.06343  1.0000
  H   H3673     1.0  0.84311  0.85689  0.11756  1.0000
  H   H3674     1.0  0.86513  0.84560  0.11446  1.0000
  H   H3675     1.0  0.85916  0.86585  0.10107  1.0000
  N   N310      1.0  0.74275  0.64599  0.04286  1.0000
  C   C3699     1.0  0.72949  0.64360  0.03773  1.0000
  C   C3700     1.0  0.74017  0.65847  0.05145  1.0000
  C   C3701     1.0  0.71311  0.65380  0.04121  1.0000
  C   C3702     1.0  0.72387  0.66873  0.05537  1.0000
  C   C3703     1.0  0.71027  0.66632  0.05022  1.0000
  C   C3704     1.0  0.75976  0.63507  0.03898  1.0000
  H   H3676     1.0  0.73147  0.63363  0.03106  1.0000
  H   H3677     1.0  0.75059  0.66020  0.05582  1.0000
  H   H3678     1.0  0.70259  0.65195  0.03712  1.0000
  H   H3679     1.0  0.72178  0.67827  0.06259  1.0000
  H   H3680     1.0  0.69747  0.67402  0.05326  1.0000
  H   H3681     1.0  0.75895  0.62155  0.04384  1.0000
  H   H3682     1.0  0.76494  0.63740  0.02513  1.0000
  H   H3683     1.0  0.76899  0.63726  0.04513  1.0000
  C   C3705     1.0  0.58008  0.95632  0.09836  1.0000
  C   C3706     1.0  0.59600  0.94685  0.10143  1.0000
  C   C3707     1.0  0.59824  0.94102  0.11802  1.0000
  C   C3708     1.0  0.50203  0.69109  0.09674  1.0000
  H   H3684     1.0  0.60653  0.94418  0.09095  1.0000
  C   C3709     1.0  0.98508  0.61497  0.13870  1.0000
  C   C3710     1.0  0.85485  0.72716  0.98669  1.0000
  H   H3685     1.0  0.51562  0.52267  0.18187  1.0000
  H   H3686     1.0  0.97367  0.62003  0.13362  1.0000
  H   H3687     1.0  0.82943  0.61069  0.16275  1.0000
  H   H3688     1.0  0.81732  0.89845  0.02370  1.0000
  C   C3711     1.0  0.79591  0.54451  0.10768  1.0000
  H   H3689     1.0  0.82969  0.51519  0.11913  1.0000
  H   H3690     1.0  0.83185  0.87404  0.00440  1.0000
  H   H3691     1.0  0.65259  0.50806  0.08973  1.0000
  C   C3712     1.0  0.76541  0.91766  0.99863  1.0000
  H   H3692     1.0  0.57655  0.71684  0.99912  1.0000
  C   C3713     1.0  0.60875  0.84499  0.05890  1.0000
  C   C3714     1.0  0.58136  0.54731  0.14199  1.0000
  H   H3693     1.0  0.59243  0.64087  0.12908  1.0000
  H   H3694     1.0  0.59964  0.85814  0.07923  1.0000
  H   H3695     1.0  0.77382  0.55768  0.09696  1.0000
  H   H3696     1.0  0.82896  0.53663  0.10800  1.0000
  C   C3715     1.0  0.87803  0.63063  0.00685  1.0000
  C   C3716     1.0  0.82024  0.91070  0.17977  1.0000
  N   N311      1.0  0.53218  0.80255  0.01785  1.0000
  C   C3717     1.0  0.89002  0.90458  0.01323  1.0000
  C   C3718     1.0  0.96565  0.89464  0.02648  1.0000
  H   H3697     1.0  0.72602  0.91300  0.99862  1.0000
  H   H3698     1.0  0.78641  0.87727  0.01228  1.0000
  H   H3699     1.0  0.87612  0.63001  0.02027  1.0000
  H   H3700     1.0  0.80074  0.55592  0.10514  1.0000
  H   H3701     1.0  0.51343  0.77857  0.99596  1.0000
  C   C3719     1.0  0.56867  0.95379  0.12784  1.0000
  H   H3702     1.0  0.58603  0.93995  0.14431  1.0000
  H   H3703     1.0  0.66435  0.58280  0.99248  1.0000
  C   C3720     1.0  0.87070  0.59785  0.16576  1.0000
  C   C3721     1.0  0.56665  0.55168  0.17470  1.0000
  H   H3704     1.0  0.50370  0.90857  0.02175  1.0000
  C   C3722     1.0  0.72645  0.95595  0.03418  1.0000
  H   H3705     1.0  0.93997  0.89057  0.03172  1.0000
  H   H3706     1.0  0.88003  0.60091  0.17062  1.0000
  H   H3707     1.0  0.55803  0.95641  0.13827  1.0000
  Fe  Fe620     1.0  0.53534  0.59802  0.17569  1.0000
  C   C3723     1.0  0.98746  0.87261  0.06023  1.0000
  C   C3724     1.0  0.89183  0.63670  0.99531  1.0000
  H   H3708     1.0  0.68972  0.92462  0.04361  1.0000
  H   H3709     1.0  0.55182  0.81638  0.01051  1.0000
  C   C3725     1.0  0.95693  0.65824  0.14583  1.0000
  H   H3710     1.0  0.72476  0.96876  0.08430  1.0000
  Fe  Fe621     1.0  0.63553  0.96831  0.10157  1.0000
  H   H3711     1.0  0.75246  0.95606  0.03399  1.0000
  C   C3726     1.0  0.50425  0.70635  0.06827  1.0000
  H   H3712     1.0  0.74409  0.89137  0.01652  1.0000
  N   N312      1.0  0.72748  0.89617  0.03975  1.0000
  C   C3727     1.0  0.70934  0.96421  0.03799  1.0000
  C   C3728     1.0  0.53344  0.86096  0.99342  1.0000
  H   H3713     1.0  0.82204  0.91822  0.01081  1.0000
  H   H3714     1.0  0.67594  0.63164  0.00159  1.0000
  H   H3715     1.0  0.84592  0.95598  0.10814  1.0000
  H   H3716     1.0  0.94972  0.86125  0.02717  1.0000
  H   H3717     1.0  0.98166  0.88553  0.06144  1.0000
  H   H3718     1.0  0.81232  0.91358  0.17060  1.0000
  H   H3719     1.0  0.51964  0.64746  0.98961  1.0000
  H   H3720     1.0  0.98072  0.84894  0.01956  1.0000
  C   C3729     1.0  0.58617  0.91996  0.00995  1.0000
  H   H3721     1.0  0.54270  0.79113  0.03971  1.0000
  C   C3730     1.0  0.65094  0.58539  0.99981  1.0000
  C   C3731     1.0  0.60890  0.83070  0.05342  1.0000
  C   C3732     1.0  0.67862  0.62729  0.98999  1.0000
  C   C3733     1.0  0.63579  0.63229  0.99531  1.0000
  C   C3734     1.0  0.54584  0.69601  0.10493  1.0000
  H   H3722     1.0  0.50450  0.65532  0.00695  1.0000
  H   H3723     1.0  0.86789  0.57080  0.14361  1.0000
  H   H3724     1.0  0.83661  0.88890  0.17048  1.0000
  H   H3725     1.0  0.73175  0.87730  0.06187  1.0000
  C   C3735     1.0  0.70657  0.92025  0.01989  1.0000
  C   C3736     1.0  0.73914  0.96268  0.03630  1.0000
  C   C3737     1.0  0.98824  0.63374  0.17295  1.0000
  H   H3726     1.0  0.83878  0.89965  0.01158  1.0000
  S   S1245     1.0  0.55053  0.71632  0.09794  1.0000
  H   H3727     1.0  0.51885  0.66814  0.99265  1.0000
  H   H3728     1.0  0.57861  0.96090  0.08537  1.0000
  N   N313      1.0  0.85424  0.60711  0.16764  1.0000
  Fe  Fe622     1.0  0.53797  0.62999  0.14826  1.0000
  H   H3729     1.0  0.61541  0.82927  0.04067  1.0000
  Fe  Fe623     1.0  0.52184  0.49828  0.15961  1.0000
  C   C3738     1.0  0.70167  0.91741  0.03748  1.0000
  C   C3739     1.0  0.50514  0.50201  0.11113  1.0000
  N   N314      1.0  0.98836  0.87125  0.01949  1.0000
  H   H3730     1.0  0.65130  0.58285  0.01340  1.0000
  H   H3731     1.0  0.69845  0.92969  0.01212  1.0000
  C   C3740     1.0  0.83206  0.68629  0.99095  1.0000
  H   H3732     1.0  0.50237  0.88646  0.00821  1.0000
  S   S1246     1.0  0.84028  0.96451  0.17350  1.0000
  Fe  Fe624     1.0  0.90292  0.61931  0.17562  1.0000
  C   C3741     1.0  0.84714  0.71882  0.00253  1.0000
  C   C3742     1.0  0.68571  0.61020  0.98972  1.0000
  H   H3733     1.0  0.51286  0.94442  0.13495  1.0000
  C   C3743     1.0  0.54863  0.80585  0.00720  1.0000
  H   H3734     1.0  0.56097  0.52951  0.13573  1.0000
  C   C3744     1.0  0.60175  0.90830  0.00816  1.0000
  C   C3745     1.0  0.50053  0.90266  0.13925  1.0000
  H   H3735     1.0  0.51066  0.73083  0.06255  1.0000
  C   C3746     1.0  0.86394  0.58067  0.15077  1.0000
  H   H3736     1.0  0.96153  0.90741  0.02865  1.0000
  C   C3747     1.0  0.84928  0.62097  0.17663  1.0000
  C   C3748     1.0  0.98310  0.88748  0.02191  1.0000
  N   N315      1.0  0.58104  0.91504  0.98511  1.0000
  N   N316      1.0  0.64267  0.60300  0.99376  1.0000
  H   H3737     1.0  0.96170  0.63557  0.17406  1.0000
  H   H3738     1.0  0.54470  0.74335  0.99172  1.0000
  Fe  Fe625     1.0  0.52737  0.98442  0.16006  1.0000
  H   H3739     1.0  0.99244  0.89484  0.02071  1.0000
  H   H3740     1.0  0.90730  0.77486  0.98638  1.0000
  C   C3749     1.0  0.97660  0.86185  0.02135  1.0000
  H   H3741     1.0  0.58174  0.68568  0.00521  1.0000
  C   C3750     1.0  0.57590  0.92319  0.99826  1.0000
  H   H3742     1.0  0.51831  0.81382  0.99818  1.0000
  C   C3751     1.0  0.53707  0.88972  0.98843  1.0000
  H   H3743     1.0  0.58200  0.92635  0.02042  1.0000
  C   C3752     1.0  0.51172  0.51439  0.11394  1.0000
  S   S1247     1.0  0.76349  0.49744  0.04731  1.0000
  N   N317      1.0  0.50155  0.69214  0.08037  1.0000
  H   H3744     1.0  0.85929  0.62860  0.17256  1.0000
  H   H3745     1.0  0.54551  0.98022  0.11540  1.0000
  H   H3746     1.0  0.87433  0.67393  0.99003  1.0000
  H   H3747     1.0  0.69071  0.49440  0.06257  1.0000
  H   H3748     1.0  0.57981  0.51495  0.14205  1.0000
  H   H3749     1.0  0.56420  0.98202  0.16452  1.0000
  H   H3750     1.0  0.50004  0.67977  0.10635  1.0000
  H   H3751     1.0  0.83453  0.67632  0.00236  1.0000
  H   H3752     1.0  0.50655  0.70328  0.11415  1.0000
  H   H3753     1.0  0.81805  0.69064  0.99188  1.0000
  Fe  Fe626     1.0  0.54078  0.62892  0.18376  1.0000
  H   H3754     1.0  0.51254  0.72870  0.09214  1.0000
  H   H3755     1.0  0.64395  0.57650  0.99838  1.0000
  H   H3756     1.0  0.50681  0.60542  0.15398  1.0000
  C   C3753     1.0  0.81213  0.91269  0.98659  1.0000
  C   C3754     1.0  0.83397  0.89668  0.17967  1.0000
  C   C3755     1.0  0.50567  0.70436  0.10126  1.0000
  H   H3757     1.0  0.79476  0.93635  0.18216  1.0000
  H   H3758     1.0  0.50767  0.54084  0.11381  1.0000
  S   S1248     1.0  0.71961  0.49392  0.07505  1.0000
  S   S1249     1.0  0.50062  0.68478  0.02363  1.0000
  H   H3759     1.0  0.50537  0.66581  0.08160  1.0000
  S   S1250     1.0  0.52781  0.84530  0.98719  1.0000
  H   H3760     1.0  0.83670  0.49211  0.09536  1.0000
  H   H3761     1.0  0.50354  0.70734  0.05539  1.0000
  C   C3756     1.0  0.50108  0.79658  0.03855  1.0000
  H   H3762     1.0  0.77902  0.50390  0.11589  1.0000
  H   H3763     1.0  0.86122  0.73719  0.98567  1.0000
  C   C3757     1.0  0.59119  0.98802  0.11862  1.0000
  C   C3758     1.0  0.49887  0.73314  0.02373  1.0000
  H   H3764     1.0  0.55923  0.51594  0.15630  1.0000
  H   H3765     1.0  0.50071  0.67909  0.06206  1.0000
  H   H3766     1.0  0.55529  0.53083  0.17721  1.0000
  H   H3767     1.0  0.51186  0.48888  0.11372  1.0000
  H   H3768     1.0  0.95701  0.88144  0.30160  1.0000
  H   H3769     1.0  0.61482  0.58259  0.32874  1.0000
  H   H3770     1.0  0.53257  0.59032  0.33926  1.0000
  H   H3771     1.0  0.51198  0.96331  0.25524  1.0000
  S   S1251     1.0  0.53144  0.64349  0.20454  1.0000
  H   H3772     1.0  0.60372  0.95746  0.33939  1.0000
  H   H3773     1.0  0.83076  0.50103  0.30513  1.0000
  H   H3774     1.0  0.56324  0.70317  0.35884  1.0000
  H   H3775     1.0  0.79519  0.93639  0.20341  1.0000
  C   C3759     1.0  0.61446  0.59136  0.31665  1.0000
  H   H3776     1.0  0.84388  0.51851  0.27838  1.0000
  N   N318      1.0  0.74607  0.62231  0.37318  1.0000
  S   S1252     1.0  0.61913  0.49551  0.37934  1.0000
  C   C3760     1.0  0.96523  0.88527  0.28898  1.0000
  C   C3761     1.0  0.87455  0.56628  0.38179  1.0000
  C   C3762     1.0  0.61065  0.65881  0.37145  1.0000
  S   S1253     1.0  0.78760  0.94512  0.36355  1.0000
  H   H3777     1.0  0.55414  0.80509  0.36198  1.0000
  C   C3763     1.0  0.90925  0.77566  0.38406  1.0000
  Fe  Fe627     1.0  0.89969  0.92979  0.28364  1.0000
  S   S1254     1.0  0.90635  0.94218  0.30098  1.0000
  S   S1255     1.0  0.90392  0.94148  0.25558  1.0000
  Fe  Fe628     1.0  0.89128  0.90006  0.31145  1.0000
  S   S1256     1.0  0.89739  0.90984  0.33063  1.0000
  S   S1257     1.0  0.88142  0.87615  0.32211  1.0000
  Fe  Fe629     1.0  0.88280  0.93492  0.31931  1.0000
  S   S1258     1.0  0.86602  0.94894  0.33944  1.0000
  Fe  Fe630     1.0  0.92034  0.91604  0.31096  1.0000
  S   S1259     1.0  0.94490  0.90848  0.32048  1.0000
  S   S1260     1.0  0.87487  0.92479  0.30123  1.0000
  S   S1261     1.0  0.91550  0.90399  0.29249  1.0000
  S   S1262     1.0  0.66505  0.56968  0.38172  1.0000
  C   C3764     1.0  0.57866  0.97651  0.37130  1.0000
  Fe  Fe631     1.0  0.55940  0.63444  0.28559  1.0000
  S   S1263     1.0  0.54417  0.61689  0.30488  1.0000
  S   S1264     1.0  0.57406  0.62615  0.26137  1.0000
  Fe  Fe632     1.0  0.55134  0.65909  0.30888  1.0000
  S   S1265     1.0  0.53483  0.64371  0.32960  1.0000
  S   S1266     1.0  0.55788  0.68206  0.31239  1.0000
  Fe  Fe633     1.0  0.55577  0.62161  0.32372  1.0000
  S   S1267     1.0  0.56449  0.60035  0.34449  1.0000
  Fe  Fe634     1.0  0.52482  0.64077  0.30863  1.0000
  H   H3778     1.0  0.89135  0.97699  0.23775  1.0000
  S   S1268     1.0  0.57300  0.63703  0.30408  1.0000
  S   S1269     1.0  0.53940  0.65822  0.28824  1.0000
  H   H3779     1.0  0.58654  0.50847  0.36713  1.0000
  N   N319      1.0  0.82743  0.51921  0.31971  1.0000
  H   H3780     1.0  0.53739  0.75155  0.36669  1.0000
  H   H3781     1.0  0.59107  0.95659  0.26657  1.0000
  C   C3765     1.0  0.73475  0.60153  0.36745  1.0000
  C   C3766     1.0  0.50769  0.93383  0.33405  1.0000
  N   N320      1.0  0.52884  0.73071  0.34182  1.0000
  S   S1270     1.0  0.54474  0.89732  0.35332  1.0000
  C   C3767     1.0  0.54824  0.80175  0.37524  1.0000
  H   H3782     1.0  0.56588  0.74162  0.31826  1.0000
  N   N321      1.0  0.51379  0.60260  0.23075  1.0000
  S   S1271     1.0  0.58089  0.97449  0.31705  1.0000
  C   C3768     1.0  0.58377  0.94793  0.27580  1.0000
  S   S1272     1.0  0.54864  0.97330  0.29285  1.0000
  Fe  Fe635     1.0  0.55750  0.98775  0.30638  1.0000
  H   H3783     1.0  0.98796  0.64537  0.34949  1.0000
  H   H3784     1.0  0.90753  0.88060  0.38252  1.0000
  H   H3785     1.0  0.51060  0.71525  0.35397  1.0000
  S   S1273     1.0  0.89861  0.66780  0.35201  1.0000
  H   H3786     1.0  0.94761  0.57324  0.23287  1.0000
  S   S1274     1.0  0.88267  0.61292  0.19897  1.0000
  Fe  Fe636     1.0  0.88612  0.59375  0.29422  1.0000
  S   S1275     1.0  0.89690  0.57257  0.31404  1.0000
  S   S1276     1.0  0.90419  0.59882  0.26885  1.0000
  Fe  Fe637     1.0  0.85305  0.60416  0.31875  1.0000
  S   S1277     1.0  0.86122  0.58396  0.34008  1.0000
  S   S1278     1.0  0.82823  0.62174  0.32690  1.0000
  Fe  Fe638     1.0  0.88647  0.59136  0.33074  1.0000
  S   S1279     1.0  0.89757  0.59293  0.35166  1.0000
  Fe  Fe639     1.0  0.87060  0.56721  0.32153  1.0000
  S   S1280     1.0  0.86488  0.54122  0.33133  1.0000
  S   S1281     1.0  0.87775  0.61299  0.31054  1.0000
  S   S1282     1.0  0.86036  0.58685  0.30052  1.0000
  H   H3787     1.0  0.52826  0.97874  0.26426  1.0000
  H   H3788     1.0  0.85386  0.92699  0.24723  1.0000
  C   C3769     1.0  0.87278  0.52849  0.31628  1.0000
  H   H3789     1.0  0.85345  0.90662  0.33366  1.0000
  C   C3770     1.0  0.88285  0.50872  0.29176  1.0000
  C   C3771     1.0  0.88672  0.52476  0.28779  1.0000
  C   C3772     1.0  0.88159  0.53471  0.30000  1.0000
  H   H3790     1.0  0.89350  0.52954  0.27519  1.0000
  H   H3791     1.0  0.88432  0.54720  0.29679  1.0000
  C   C3773     1.0  0.89894  0.64675  0.35215  1.0000
  C   C3774     1.0  0.90067  0.64226  0.33683  1.0000
  C   C3775     1.0  0.90031  0.62573  0.33659  1.0000
  C   C3776     1.0  0.89825  0.61362  0.35169  1.0000
  C   C3777     1.0  0.89665  0.61804  0.36701  1.0000
  C   C3778     1.0  0.89686  0.63461  0.36725  1.0000
  H   H3792     1.0  0.90233  0.65158  0.32510  1.0000
  H   H3793     1.0  0.90196  0.62231  0.32469  1.0000
  H   H3794     1.0  0.80928  0.91058  0.35569  1.0000
  C   C3779     1.0  0.99298  0.89335  0.27755  1.0000
  C   C3780     1.0  0.81184  0.62206  0.35982  1.0000
  C   C3781     1.0  0.81838  0.61248  0.34734  1.0000
  C   C3782     1.0  0.81795  0.59529  0.35154  1.0000
  H   H3795     1.0  0.81217  0.63535  0.35666  1.0000
  H   H3796     1.0  0.82286  0.58787  0.34190  1.0000
  C   C3783     1.0  0.88799  0.61046  0.21849  1.0000
  C   C3784     1.0  0.87648  0.60558  0.23363  1.0000
  C   C3785     1.0  0.88101  0.60254  0.24929  1.0000
  C   C3786     1.0  0.89711  0.60430  0.24981  1.0000
  C   C3787     1.0  0.90845  0.60946  0.23467  1.0000
  C   C3788     1.0  0.90389  0.61260  0.21907  1.0000
  H   H3797     1.0  0.86412  0.60398  0.23325  1.0000
  H   H3798     1.0  0.87220  0.59856  0.26091  1.0000
  H   H3799     1.0  0.92088  0.61090  0.23503  1.0000
  C   C3789     1.0  0.50619  0.59358  0.22477  1.0000
  S   S1283     1.0  0.85622  0.93478  0.21156  1.0000
  C   C3790     1.0  0.82080  0.50808  0.33550  1.0000
  H   H3800     1.0  0.81594  0.51460  0.34624  1.0000
  Fe  Fe640     1.0  0.51485  0.96364  0.19449  1.0000
  C   C3791     1.0  0.53316  0.91687  0.34409  1.0000
  C   C3792     1.0  0.98916  0.87329  0.30356  1.0000
  C   C3793     1.0  0.53122  0.94678  0.33143  1.0000
  C   C3794     1.0  0.54031  0.93120  0.33908  1.0000
  H   H3801     1.0  0.53676  0.95780  0.32784  1.0000
  H   H3802     1.0  0.55277  0.93030  0.34130  1.0000
  H   H3803     1.0  0.75698  0.64309  0.37158  1.0000
  C   C3795     1.0  0.59248  0.96613  0.36265  1.0000
  C   C3796     1.0  0.59284  0.96527  0.34614  1.0000
  H   H3804     1.0  0.55301  0.92726  0.27977  1.0000
  H   H3805     1.0  0.85592  0.66487  0.38067  1.0000
  H   H3806     1.0  0.60108  0.63696  0.27165  1.0000
  H   H3807     1.0  0.60317  0.95917  0.36845  1.0000
  C   C3797     1.0  0.51528  0.60982  0.35142  1.0000
  C   C3798     1.0  0.88987  0.54769  0.36201  1.0000
  H   H3808     1.0  0.82521  0.92579  0.21081  1.0000
  H   H3809     1.0  0.62303  0.66122  0.36418  1.0000
  H   H3810     1.0  0.86817  0.97067  0.22891  1.0000
  C   C3799     1.0  0.84116  0.90350  0.20255  1.0000
  C   C3800     1.0  0.52079  0.97032  0.24589  1.0000
  H   H3811     1.0  0.51113  0.90722  0.34569  1.0000
  H   H3812     1.0  0.51921  0.60633  0.26919  1.0000
  H   H3813     1.0  0.52099  0.62732  0.28385  1.0000
  C   C3801     1.0  0.61429  0.60556  0.35351  1.0000
  C   C3802     1.0  0.60804  0.59084  0.36148  1.0000
  C   C3803     1.0  0.59225  0.58953  0.35940  1.0000
  C   C3804     1.0  0.58268  0.60300  0.34950  1.0000
  C   C3805     1.0  0.58841  0.61810  0.34262  1.0000
  C   C3806     1.0  0.60428  0.61931  0.34442  1.0000
  C   C3807     1.0  0.99233  0.91861  0.30433  1.0000
  Fe  Fe641     1.0  0.89832  0.67373  0.37662  1.0000
  H   H3814     1.0  0.58075  0.62883  0.33570  1.0000
  H   H3815     1.0  0.60892  0.63083  0.33848  1.0000
  C   C3808     1.0  0.86928  0.51231  0.32037  1.0000
  C   C3809     1.0  0.56153  0.69290  0.33878  1.0000
  C   C3810     1.0  0.55224  0.68449  0.33342  1.0000
  C   C3811     1.0  0.53785  0.67922  0.34454  1.0000
  H   H3816     1.0  0.57265  0.69704  0.33021  1.0000
  H   H3817     1.0  0.53022  0.67333  0.34036  1.0000
  C   C3812     1.0  0.87036  0.93549  0.22348  1.0000
  H   H3818     1.0  0.53640  0.60377  0.23751  1.0000
  C   C3813     1.0  0.82739  0.91748  0.20222  1.0000
  C   C3814     1.0  0.96244  0.91751  0.30841  1.0000
  C   C3815     1.0  0.96164  0.92890  0.29291  1.0000
  C   C3816     1.0  0.97622  0.93507  0.28312  1.0000
  C   C3817     1.0  0.84199  0.89042  0.38422  1.0000
  H   H3819     1.0  0.95915  0.89855  0.28382  1.0000
  C   C3818     1.0  0.97777  0.91249  0.31414  1.0000
  H   H3820     1.0  0.94985  0.93288  0.28840  1.0000
  H   H3821     1.0  0.97558  0.94380  0.27108  1.0000
  H   H3822     1.0  0.93674  0.59318  0.19895  1.0000
  H   H3823     1.0  0.97848  0.90369  0.32612  1.0000
  C   C3819     1.0  0.53444  0.97960  0.21666  1.0000
  H   H3824     1.0  0.84231  0.95086  0.37104  1.0000
  C   C3820     1.0  0.85348  0.65615  0.37464  1.0000
  H   H3825     1.0  0.91274  0.61653  0.20752  1.0000
  H   H3826     1.0  0.54407  0.72685  0.31771  1.0000
  H   H3827     1.0  0.72198  0.62757  0.36625  1.0000
  H   H3828     1.0  0.57079  0.96128  0.24862  1.0000
  C   C3821     1.0  0.53895  0.74610  0.35594  1.0000
  C   C3822     1.0  0.53261  0.68257  0.36083  1.0000
  C   C3823     1.0  0.55304  0.74761  0.34253  1.0000
  C   C3824     1.0  0.80945  0.94610  0.35709  1.0000
  C   C3825     1.0  0.81832  0.94806  0.36811  1.0000
  C   C3826     1.0  0.83564  0.94900  0.36254  1.0000
  C   C3827     1.0  0.84439  0.94743  0.34607  1.0000
  C   C3828     1.0  0.83564  0.94516  0.33511  1.0000
  C   C3829     1.0  0.81816  0.94472  0.34055  1.0000
  H   H3829     1.0  0.73644  0.64899  0.36618  1.0000
  H   H3830     1.0  0.52678  0.58601  0.24933  1.0000
  H   H3831     1.0  0.84222  0.94421  0.32230  1.0000
  H   H3832     1.0  0.81137  0.94331  0.33190  1.0000
  Fe  Fe642     1.0  0.52249  0.98441  0.30608  1.0000
  C   C3830     1.0  0.85909  0.55047  0.37433  1.0000
  C   C3831     1.0  0.62688  0.52345  0.38365  1.0000
  S   S1284     1.0  0.56051  0.76868  0.37215  1.0000
  C   C3832     1.0  0.51948  0.59750  0.34189  1.0000
  H   H3833     1.0  0.53866  0.58671  0.22767  1.0000
  H   H3834     1.0  0.86250  0.50746  0.33295  1.0000
  H   H3835     1.0  0.59311  0.60350  0.28482  1.0000
  C   C3833     1.0  0.83220  0.51349  0.30503  1.0000
  H   H3836     1.0  0.84764  0.64732  0.32666  1.0000
  C   C3834     1.0  0.81861  0.90498  0.36359  1.0000
  C   C3835     1.0  0.87730  0.85783  0.35464  1.0000
  C   C3836     1.0  0.88826  0.86598  0.34099  1.0000
  C   C3837     1.0  0.90419  0.86685  0.34287  1.0000
  C   C3838     1.0  0.90903  0.85984  0.35845  1.0000
  H   H3837     1.0  0.84775  0.54682  0.27823  1.0000
  H   H3838     1.0  0.86495  0.85715  0.35325  1.0000
  H   H3839     1.0  0.91284  0.87286  0.33226  1.0000
  H   H3840     1.0  0.92146  0.86029  0.35977  1.0000
  C   C3839     1.0  0.81103  0.58771  0.36816  1.0000
  H   H3841     1.0  0.89837  0.55689  0.35623  1.0000
  H   H3842     1.0  0.84783  0.61575  0.19046  1.0000
  N   N322      1.0  0.57171  0.94255  0.27150  1.0000
  C   C3840     1.0  0.54353  0.63841  0.22015  1.0000
  C   C3841     1.0  0.53642  0.64487  0.23483  1.0000
  C   C3842     1.0  0.54558  0.64087  0.24765  1.0000
  C   C3843     1.0  0.56207  0.63066  0.24573  1.0000
  C   C3844     1.0  0.56917  0.62413  0.23106  1.0000
  C   C3845     1.0  0.55987  0.62789  0.21834  1.0000
  H   H3843     1.0  0.52380  0.65303  0.23630  1.0000
  H   H3844     1.0  0.53997  0.64594  0.25888  1.0000
  H   H3845     1.0  0.58193  0.61623  0.22948  1.0000
  H   H3846     1.0  0.56548  0.62292  0.20701  1.0000
  C   C3846     1.0  0.88187  0.85141  0.37039  1.0000
  H   H3847     1.0  0.90348  0.76213  0.36856  1.0000
  C   C3847     1.0  0.52302  0.97054  0.22873  1.0000
  H   H3848     1.0  0.63269  0.62326  0.29068  1.0000
  S   S1285     1.0  0.63504  0.60667  0.35356  1.0000
  C   C3848     1.0  0.89142  0.93804  0.24346  1.0000
  C   C3849     1.0  0.87622  0.93239  0.25114  1.0000
  C   C3850     1.0  0.86573  0.93114  0.24118  1.0000
  H   H3849     1.0  0.87238  0.92929  0.26477  1.0000
  S   S1286     1.0  0.51194  0.86515  0.37360  1.0000
  C   C3851     1.0  0.84165  0.53927  0.28979  1.0000
  C   C3852     1.0  0.76159  0.59337  0.37640  1.0000
  H   H3850     1.0  0.78918  0.97962  0.36922  1.0000
  H   H3851     1.0  0.61572  0.58016  0.36855  1.0000
  C   C3853     1.0  0.89624  0.94206  0.22574  1.0000
  S   S1287     1.0  0.91609  0.68912  0.37766  1.0000
  C   C3854     1.0  0.88617  0.92112  0.37134  1.0000
  C   C3855     1.0  0.88574  0.94080  0.21575  1.0000
  C   C3856     1.0  0.55625  0.69631  0.35507  1.0000
  C   C3857     1.0  0.50690  0.59481  0.33542  1.0000
  H   H3852     1.0  0.96522  0.87708  0.28064  1.0000
  N   N323      1.0  0.83560  0.90010  0.35656  1.0000
  C   C3858     1.0  0.99165  0.92984  0.28872  1.0000
  Fe  Fe643     1.0  0.64386  0.59260  0.37752  1.0000
  C   C3859     1.0  0.88707  0.98473  0.22640  1.0000
  H   H3853     1.0  0.56251  0.75412  0.34296  1.0000
  C   C3860     1.0  0.91381  0.57071  0.21982  1.0000
  C   C3861     1.0  0.91630  0.91761  0.35846  1.0000
  C   C3862     1.0  0.89991  0.92801  0.36093  1.0000
  H   H3854     1.0  0.55633  0.49345  0.35615  1.0000
  C   C3863     1.0  0.56487  0.92623  0.29980  1.0000
  H   H3855     1.0  0.81038  0.57452  0.37123  1.0000
  C   C3864     1.0  0.61232  0.62634  0.26977  1.0000
  H   H3856     1.0  0.93709  0.88390  0.35238  1.0000
  H   H3857     1.0  0.63412  0.60287  0.31799  1.0000
  H   H3858     1.0  0.51517  0.54302  0.19862  1.0000
  H   H3859     1.0  0.57854  0.92821  0.31733  1.0000
  C   C3865     1.0  0.94029  0.57915  0.20253  1.0000
  H   H3860     1.0  0.89510  0.60870  0.37872  1.0000
  H   H3861     1.0  0.83872  0.55719  0.30499  1.0000
  S   S1288     1.0  0.51159  0.95926  0.22267  1.0000
  H   H3862     1.0  0.89726  0.81613  0.35077  1.0000
  C   C3866     1.0  0.80497  0.59716  0.38076  1.0000
  H   H3863     1.0  0.98789  0.90215  0.26711  1.0000
  C   C3867     1.0  0.98622  0.68572  0.34965  1.0000
  C   C3868     1.0  0.90425  0.77437  0.36995  1.0000
  C   C3869     1.0  0.56915  0.94804  0.25410  1.0000
  H   H3864     1.0  0.59869  0.68520  0.37013  1.0000
  H   H3865     1.0  0.52120  0.67883  0.36920  1.0000
  C   C3870     1.0  0.84838  0.63362  0.35877  1.0000
  C   C3871     1.0  0.57909  0.49838  0.37074  1.0000
  N   N324      1.0  0.92972  0.57302  0.21898  1.0000
  C   C3872     1.0  0.89775  0.85240  0.37231  1.0000
  C   C3873     1.0  0.75996  0.61015  0.37717  1.0000
  H   H3866     1.0  0.56532  0.50433  0.37435  1.0000
  H   H3867     1.0  0.83184  0.91085  0.33131  1.0000
  H   H3868     1.0  0.82640  0.53912  0.33146  1.0000
  H   H3869     1.0  0.89775  0.94119  0.35429  1.0000
  H   H3870     1.0  0.89527  0.63798  0.37914  1.0000
  H   H3871     1.0  0.74972  0.57604  0.37121  1.0000
  H   H3872     1.0  0.89681  0.53620  0.36955  1.0000
  H   H3873     1.0  0.57435  0.89134  0.37169  1.0000
  H   H3874     1.0  0.87335  0.92901  0.37293  1.0000
  C   C3874     1.0  0.93533  0.57071  0.23346  1.0000
  H   H3875     1.0  0.88650  0.56973  0.38084  1.0000
  C   C3875     1.0  0.57682  0.93200  0.30440  1.0000
  C   C3876     1.0  0.62446  0.61421  0.29512  1.0000
  H   H3876     1.0  0.50495  0.73214  0.33647  1.0000
  H   H3877     1.0  0.80662  0.98407  0.35165  1.0000
  C   C3877     1.0  0.52697  0.73744  0.35546  1.0000
  H   H3878     1.0  0.92681  0.92296  0.34987  1.0000
  N   N325      1.0  0.98083  0.67108  0.35197  1.0000
  H   H3879     1.0  0.53985  0.90791  0.38437  1.0000
  C   C3878     1.0  0.84395  0.55744  0.38465  1.0000
  N   N326      1.0  0.87408  0.55514  0.37280  1.0000
  H   H3880     1.0  0.95416  0.57538  0.20268  1.0000
  H   H3881     1.0  0.51012  0.58564  0.32754  1.0000
  H   H3882     1.0  0.97725  0.69696  0.35304  1.0000
  C   C3879     1.0  0.51869  0.54628  0.18496  1.0000
  H   H3883     1.0  0.85742  0.66445  0.32493  1.0000
  C   C3880     1.0  0.57940  0.97478  0.33820  1.0000
  H   H3884     1.0  0.98109  0.86599  0.31362  1.0000
  H   H3885     1.0  0.83925  0.61975  0.38388  1.0000
  H   H3886     1.0  0.90663  0.81757  0.37562  1.0000
  H   H3887     1.0  0.53622  0.97982  0.20339  1.0000
  H   H3888     1.0  0.93836  0.87988  0.37431  1.0000
  H   H3889     1.0  0.86067  0.88891  0.36101  1.0000
  H   H3890     1.0  0.89053  0.56396  0.23610  1.0000
  C   C3881     1.0  0.51564  0.72249  0.34120  1.0000
  C   C3882     1.0  0.90589  0.80540  0.37418  1.0000
  C   C3883     1.0  0.88895  0.90400  0.37924  1.0000
  C   C3884     1.0  0.54159  0.98793  0.23894  1.0000
  C   C3885     1.0  0.73340  0.61814  0.36864  1.0000
  C   C3886     1.0  0.52971  0.59434  0.23664  1.0000
  S   S1289     1.0  0.50399  0.96738  0.31819  1.0000
  C   C3887     1.0  0.74427  0.63967  0.37479  1.0000
  C   C3888     1.0  0.51498  0.94809  0.32869  1.0000
  C   C3889     1.0  0.90068  0.80462  0.36001  1.0000
  H   H3891     1.0  0.59367  0.58346  0.31246  1.0000
  S   S1290     1.0  0.88851  0.49691  0.27601  1.0000
  C   C3890     1.0  0.84142  0.90181  0.33822  1.0000
  C   C3891     1.0  0.82952  0.53479  0.31975  1.0000
  C   C3892     1.0  0.83652  0.54511  0.30477  1.0000
  H   H3892     1.0  0.55596  0.94792  0.25356  1.0000
  C   C3893     1.0  0.96270  0.67048  0.35863  1.0000
  C   C3894     1.0  0.52998  0.97907  0.25099  1.0000
  C   C3895     1.0  0.51675  0.91825  0.34177  1.0000
  N   N327      1.0  0.61329  0.61411  0.28584  1.0000
  H   H3893     1.0  0.59546  0.94767  0.29593  1.0000
  C   C3896     1.0  0.60237  0.60318  0.29188  1.0000
  H   H3894     1.0  0.51628  0.73596  0.36616  1.0000
  C   C3897     1.0  0.60270  0.59174  0.30742  1.0000
  C   C3898     1.0  0.55489  0.74065  0.32870  1.0000
  C   C3899     1.0  0.62535  0.60272  0.31055  1.0000
  C   C3900     1.0  0.84725  0.89289  0.36662  1.0000
  C   C3901     1.0  0.92509  0.56549  0.24929  1.0000
  H   H3895     1.0  0.61072  0.62026  0.26025  1.0000
  N   N328      1.0  0.91893  0.90085  0.36634  1.0000
  C   C3902     1.0  0.54957  0.78466  0.38343  1.0000
  C   C3903     1.0  0.50813  0.61129  0.27809  1.0000
  H   H3896     1.0  0.95520  0.68197  0.36346  1.0000
  C   C3904     1.0  0.56247  0.93165  0.28318  1.0000
  H   H3897     1.0  0.58781  0.57785  0.36491  1.0000
  C   C3905     1.0  0.84437  0.63071  0.37645  1.0000
  H   H3898     1.0  0.84397  0.88928  0.33494  1.0000
  H   H3899     1.0  0.93862  0.57387  0.19248  1.0000
  C   C3906     1.0  0.87416  0.50251  0.30808  1.0000
  H   H3900     1.0  0.90803  0.94638  0.21972  1.0000
  H   H3901     1.0  0.96125  0.65946  0.36942  1.0000
  H   H3902     1.0  0.92927  0.56424  0.26080  1.0000
  C   C3907     1.0  0.80559  0.61431  0.37658  1.0000
  H   H3903     1.0  0.85873  0.54153  0.36732  1.0000
  C   C3908     1.0  0.60841  0.64220  0.37806  1.0000
  H   H3904     1.0  0.88708  0.54422  0.35135  1.0000
  H   H3905     1.0  0.57847  0.93962  0.24610  1.0000
  S   S1291     1.0  0.55463  0.60178  0.18765  1.0000
  C   C3909     1.0  0.89981  0.78899  0.35794  1.0000
  H   H3906     1.0  0.95695  0.66941  0.34860  1.0000
  H   H3907     1.0  0.87117  0.49017  0.31125  1.0000
  C   C3910     1.0  0.50924  0.62301  0.28662  1.0000
  S   S1292     1.0  0.52251  0.57611  0.18892  1.0000
  H   H3908     1.0  0.62405  0.63156  0.26436  1.0000
  C   C3911     1.0  0.90551  0.89397  0.37653  1.0000
  N   N329      1.0  0.85410  0.64782  0.34931  1.0000
  H   H3909     1.0  0.89565  0.78819  0.34709  1.0000
  C   C3912     1.0  0.90327  0.56543  0.23545  1.0000
  C   C3913     1.0  0.90899  0.56281  0.25026  1.0000
  C   C3914     1.0  0.83947  0.52337  0.28987  1.0000
  C   C3915     1.0  0.85706  0.65882  0.35700  1.0000
  H   H3910     1.0  0.90900  0.57340  0.20840  1.0000
  H   H3911     1.0  0.76980  0.61332  0.38117  1.0000
  H   H3912     1.0  0.84669  0.62458  0.35262  1.0000
  H   H3913     1.0  0.88950  0.94405  0.20212  1.0000
  C   C3916     1.0  0.87406  0.98111  0.22125  1.0000
  C   C3917     1.0  0.93599  0.88991  0.36296  1.0000
  H   H3914     1.0  0.83112  0.49693  0.33871  1.0000
  H   H3915     1.0  0.90073  0.55936  0.26250  1.0000
  H   H3916     1.0  0.53854  0.82771  0.37790  1.0000
  C   C3918     1.0  0.84447  0.89308  0.19116  1.0000
  H   H3917     1.0  0.55733  0.91779  0.30913  1.0000
  H   H3918     1.0  0.94620  0.89728  0.35924  1.0000
  C   C3919     1.0  0.80320  0.93599  0.19054  1.0000
  H   H3919     1.0  0.81185  0.94903  0.38085  1.0000
  C   C3920     1.0  0.85754  0.65089  0.33083  1.0000
  C   C3921     1.0  0.84684  0.64214  0.38440  1.0000
  H   H3920     1.0  0.72448  0.59817  0.36424  1.0000
  C   C3922     1.0  0.58639  0.94286  0.29234  1.0000
  C   C3923     1.0  0.54161  0.69138  0.36603  1.0000
  C   C3924     1.0  0.54248  0.73235  0.32846  1.0000
  C   C3925     1.0  0.53940  0.81455  0.38422  1.0000
  H   H3921     1.0  0.52512  0.61217  0.35620  1.0000
  C   C3926     1.0  0.85576  0.98606  0.20118  1.0000
  H   H3922     1.0  0.87297  0.84589  0.38104  1.0000
  C   C3927     1.0  0.74889  0.58907  0.37146  1.0000
  H   H3923     1.0  0.85539  0.88246  0.19100  1.0000
  H   H3924     1.0  0.81013  0.50336  0.33403  1.0000
  H   H3925     1.0  0.84951  0.90117  0.21124  1.0000
  C   C3928     1.0  0.99225  0.65694  0.34775  1.0000
  C   C3929     1.0  0.56548  0.98500  0.34694  1.0000
  H   H3926     1.0  0.77250  0.58378  0.37993  1.0000
  C   C3930     1.0  0.50626  0.61900  0.23185  1.0000
  H   H3927     1.0  0.87024  0.64327  0.32604  1.0000
  H   H3928     1.0  0.80865  0.94753  0.18545  1.0000
  Fe  Fe644     1.0  0.52621  0.88417  0.37398  1.0000
  N   N330      1.0  0.58266  0.48977  0.35678  1.0000
  C   C3931     1.0  0.59698  0.67227  0.37475  1.0000
  N   N331      1.0  0.81713  0.92089  0.19095  1.0000
  H   H3929     1.0  0.51187  0.58041  0.22441  1.0000
  S   S1293     1.0  0.57185  0.71924  0.37888  1.0000
  N   N332      1.0  0.98279  0.88411  0.29021  1.0000
  H   H3930     1.0  0.61918  0.63179  0.37567  1.0000
  H   H3931     1.0  0.52092  0.71327  0.33279  1.0000
  H   H3932     1.0  0.62346  0.52966  0.37161  1.0000
  C   C3932     1.0  0.56512  0.98588  0.36345  1.0000
  H   H3933     1.0  0.86242  0.66965  0.34953  1.0000
  C   C3933     1.0  0.81300  0.90322  0.38109  1.0000
  H   H3934     1.0  0.85640  0.97218  0.20481  1.0000
  H   H3935     1.0  0.51194  0.62599  0.23711  1.0000
  C   C3934     1.0  0.58127  0.66898  0.38455  1.0000
  H   H3936     1.0  0.58296  0.48923  0.38205  1.0000
  H   H3937     1.0  0.50363  0.83241  0.38447  1.0000
  H   H3938     1.0  0.56046  0.55354  0.18740  1.0000
  C   C3935     1.0  0.54380  0.98820  0.22178  1.0000
  Fe  Fe645     1.0  0.84577  0.83220  0.41865  1.0000
  S   S1294     1.0  0.85887  0.85081  0.42166  1.0000
  S   S1295     1.0  0.82247  0.84328  0.40765  1.0000
  Fe  Fe646     1.0  0.87111  0.80179  0.43294  1.0000
  S   S1296     1.0  0.88635  0.81794  0.43729  1.0000
  S   S1297     1.0  0.87958  0.77347  0.44100  1.0000
  Fe  Fe647     1.0  0.86077  0.83366  0.44691  1.0000
  S   S1298     1.0  0.85166  0.84478  0.47007  1.0000
  H   H3939     1.0  0.75397  0.56173  0.52143  1.0000
  S   S1299     1.0  0.84572  0.81620  0.44473  1.0000
  Fe  Fe648     1.0  0.85179  0.85736  0.56129  1.0000
  S   S1300     1.0  0.87551  0.86635  0.54595  1.0000
  S   S1301     1.0  0.82537  0.87226  0.55823  1.0000
  H   H3940     1.0  0.94260  0.79747  0.53738  1.0000
  S   S1302     1.0  0.89736  0.83179  0.56602  1.0000
  C   C3936     1.0  0.50463  0.82742  0.56908  1.0000
  Fe  Fe649     1.0  0.88410  0.85771  0.57060  1.0000
  C   C3937     1.0  0.84016  0.74693  0.42384  1.0000
  Fe  Fe650     1.0  0.88609  0.83958  0.54310  1.0000
  S   S1303     1.0  0.90132  0.83085  0.51939  1.0000
  H   H3941     1.0  0.95838  0.69065  0.43310  1.0000
  S   S1304     1.0  0.86152  0.83124  0.55614  1.0000
  Fe  Fe651     1.0  0.79575  0.95823  0.56819  1.0000
  Fe  Fe652     1.0  0.64696  0.95639  0.55479  1.0000
  S   S1305     1.0  0.81427  0.95173  0.54486  1.0000
  H   H3942     1.0  0.69490  0.97662  0.54389  1.0000
  H   H3943     1.0  0.54807  0.77881  0.49492  1.0000
  H   H3944     1.0  0.51017  0.69968  0.52213  1.0000
  H   H3945     1.0  0.86001  0.58276  0.39882  1.0000
  H   H3946     1.0  0.98070  0.70785  0.42067  1.0000
  Fe  Fe653     1.0  0.94502  0.68871  0.57068  1.0000
  C   C3938     1.0  0.80600  0.98716  0.38709  1.0000
  C   C3939     1.0  0.95955  0.67077  0.40030  1.0000
  S   S1306     1.0  0.53587  0.73531  0.40284  1.0000
  H   H3947     1.0  0.52128  0.70503  0.50050  1.0000
  Fe  Fe654     1.0  0.58188  0.70848  0.40262  1.0000
  S   S1307     1.0  0.55865  0.69841  0.41781  1.0000
  C   C3940     1.0  0.98951  0.67269  0.39122  1.0000
  H   H3948     1.0  0.67263  0.96547  0.42883  1.0000
  H   H3949     1.0  0.85737  0.71172  0.44924  1.0000
  Fe  Fe655     1.0  0.54910  0.72391  0.42448  1.0000
  S   S1308     1.0  0.53561  0.72902  0.45021  1.0000
  Fe  Fe656     1.0  0.62886  0.93526  0.41255  1.0000
  S   S1309     1.0  0.57327  0.73312  0.41119  1.0000
  H   H3950     1.0  0.67679  0.51145  0.40699  1.0000
  C   C3941     1.0  0.91495  0.79205  0.40110  1.0000
  S   S1310     1.0  0.53331  0.87038  0.39874  1.0000
  Fe  Fe657     1.0  0.63634  0.59774  0.41292  1.0000
  C   C3942     1.0  0.88322  0.74322  0.40216  1.0000
  S   S1311     1.0  0.61868  0.61425  0.43032  1.0000
  H   H3951     1.0  0.79292  0.87652  0.58259  1.0000
  H   H3952     1.0  0.64142  0.63466  0.40611  1.0000
  H   H3953     1.0  0.69227  0.67206  0.56222  1.0000
  H   H3954     1.0  0.85112  0.88417  0.39222  1.0000
  C   C3943     1.0  0.69817  0.97114  0.47493  1.0000
  S   S1312     1.0  0.65639  0.57518  0.42083  1.0000
  Fe  Fe658     1.0  0.57853  0.71883  0.52275  1.0000
  S   S1313     1.0  0.59322  0.73568  0.52653  1.0000
  S   S1314     1.0  0.58695  0.70893  0.49890  1.0000
  Fe  Fe659     1.0  0.55610  0.71667  0.55826  1.0000
  S   S1315     1.0  0.56869  0.73374  0.56496  1.0000
  Fe  Fe660     1.0  0.56745  0.74935  0.53868  1.0000
  S   S1316     1.0  0.56012  0.77763  0.52858  1.0000
  Fe  Fe661     1.0  0.59316  0.71861  0.55212  1.0000
  S   S1317     1.0  0.61593  0.70610  0.56389  1.0000
  S   S1318     1.0  0.55268  0.73343  0.53310  1.0000
  S   S1319     1.0  0.58061  0.70063  0.54733  1.0000
  Fe  Fe662     1.0  0.60125  0.94406  0.44242  1.0000
  S   S1320     1.0  0.61709  0.91933  0.43670  1.0000
  S   S1321     1.0  0.59535  0.94665  0.46933  1.0000
  Fe  Fe663     1.0  0.59685  0.92025  0.42335  1.0000
  C   C3944     1.0  0.89894  0.75967  0.56144  1.0000
  S   S1322     1.0  0.57995  0.94371  0.43109  1.0000
  H   H3955     1.0  0.65184  0.95970  0.45903  1.0000
  C   C3945     1.0  0.63261  0.53238  0.39214  1.0000
  S   S1323     1.0  0.86978  0.81610  0.40646  1.0000
  H   H3956     1.0  0.86823  0.76600  0.38967  1.0000
  S   S1324     1.0  0.50973  0.90059  0.42925  1.0000
  Fe  Fe664     1.0  0.54461  0.85602  0.56671  1.0000
  S   S1325     1.0  0.54737  0.86946  0.53949  1.0000
  S   S1326     1.0  0.90379  0.84416  0.39185  1.0000
  S   S1327     1.0  0.54023  0.90484  0.55303  1.0000
  Fe  Fe665     1.0  0.52474  0.88864  0.54916  1.0000
  H   H3957     1.0  0.50361  0.81280  0.55210  1.0000
  Fe  Fe666     1.0  0.56266  0.88422  0.54586  1.0000
  S   S1328     1.0  0.58643  0.89051  0.52736  1.0000
  H   H3958     1.0  0.85481  0.80880  0.53195  1.0000
  Fe  Fe667     1.0  0.65725  0.94836  0.51971  1.0000
  S   S1329     1.0  0.67420  0.92346  0.52826  1.0000
  H   H3959     1.0  0.86583  0.78235  0.41090  1.0000
  H   H3960     1.0  0.60816  0.50300  0.56059  1.0000
  S   S1330     1.0  0.66314  0.93219  0.56617  1.0000
  Fe  Fe668     1.0  0.68303  0.93747  0.54238  1.0000
  S   S1331     1.0  0.71111  0.93672  0.53903  1.0000
  Fe  Fe669     1.0  0.65267  0.92068  0.55097  1.0000
  S   S1332     1.0  0.64224  0.89707  0.56218  1.0000
  S   S1333     1.0  0.63492  0.94460  0.54145  1.0000
  H   H3961     1.0  0.58974  0.83642  0.50216  1.0000
  C   C3946     1.0  0.54200  0.78039  0.40058  1.0000
  H   H3962     1.0  0.59892  0.61310  0.38637  1.0000
  C   C3947     1.0  0.66562  0.94942  0.41695  1.0000
  Fe  Fe670     1.0  0.74760  0.62825  0.42805  1.0000
  S   S1334     1.0  0.75991  0.60194  0.43956  1.0000
  H   H3963     1.0  0.81802  0.68387  0.39719  1.0000
  Fe  Fe671     1.0  0.78042  0.64120  0.42206  1.0000
  S   S1335     1.0  0.79513  0.61578  0.43293  1.0000
  S   S1336     1.0  0.62518  0.58372  0.40095  1.0000
  Fe  Fe672     1.0  0.78255  0.60603  0.41822  1.0000
  S   S1337     1.0  0.94407  0.65845  0.40890  1.0000
  Fe  Fe673     1.0  0.77099  0.61468  0.45308  1.0000
  S   S1338     1.0  0.76854  0.60718  0.48142  1.0000
  N   N333      1.0  0.56416  0.90992  0.38653  1.0000
  S   S1339     1.0  0.75700  0.64089  0.44304  1.0000
  S   S1340     1.0  0.89651  0.68720  0.41795  1.0000
  Fe  Fe674     1.0  0.91829  0.67133  0.40263  1.0000
  Fe  Fe675     1.0  0.88006  0.67231  0.41340  1.0000
  S   S1341     1.0  0.85929  0.66210  0.43417  1.0000
  C   C3948     1.0  0.57356  0.92016  0.38828  1.0000
  C   C3949     1.0  0.52157  0.70438  0.51380  1.0000
  Fe  Fe676     1.0  0.82542  0.63969  0.55636  1.0000
  S   S1342     1.0  0.84373  0.61705  0.54793  1.0000
  S   S1343     1.0  0.83265  0.66437  0.55393  1.0000
  Fe  Fe677     1.0  0.79545  0.62175  0.56919  1.0000
  S   S1344     1.0  0.81143  0.59764  0.56175  1.0000
  H   H3964     1.0  0.63908  0.50138  0.42684  1.0000
  Fe  Fe678     1.0  0.83134  0.60221  0.57248  1.0000
  Fe  Fe679     1.0  0.82214  0.61488  0.53798  1.0000
  S   S1345     1.0  0.82887  0.60986  0.51180  1.0000
  H   H3965     1.0  0.80151  0.62160  0.38626  1.0000
  S   S1346     1.0  0.80456  0.63876  0.54455  1.0000
  H   H3966     1.0  0.91257  0.80536  0.40245  1.0000
  C   C3950     1.0  0.59084  0.84619  0.52291  1.0000
  H   H3967     1.0  0.67576  0.97785  0.46430  1.0000
  S   S1347     1.0  0.93580  0.69967  0.54645  1.0000
  C   C3951     1.0  0.72329  0.97980  0.45579  1.0000
  Fe  Fe680     1.0  0.91668  0.68291  0.55726  1.0000
  S   S1348     1.0  0.91072  0.66506  0.54503  1.0000
  S   S1349     1.0  0.67564  0.62312  0.57660  1.0000
  C   C3952     1.0  0.63015  0.49857  0.40619  1.0000
  H   H3968     1.0  0.89682  0.65919  0.58117  1.0000
  H   H3969     1.0  0.77763  0.89430  0.41381  1.0000
  C   C3953     1.0  0.63312  0.67302  0.56975  1.0000
  C   C3954     1.0  0.85430  0.66412  0.55243  1.0000
  C   C3955     1.0  0.86701  0.64941  0.55116  1.0000
  C   C3956     1.0  0.88429  0.64983  0.54887  1.0000
  C   C3957     1.0  0.88893  0.66484  0.54827  1.0000
  C   C3958     1.0  0.87618  0.67945  0.55001  1.0000
  C   C3959     1.0  0.85893  0.67911  0.55195  1.0000
  H   H3970     1.0  0.86363  0.63776  0.55170  1.0000
  H   H3971     1.0  0.89410  0.63848  0.54759  1.0000
  H   H3972     1.0  0.87965  0.69115  0.54928  1.0000
  S   S1350     1.0  0.66760  0.96268  0.53205  1.0000
  C   C3960     1.0  0.78479  0.61080  0.48883  1.0000
  C   C3961     1.0  0.78143  0.61307  0.50543  1.0000
  C   C3962     1.0  0.79479  0.61363  0.51236  1.0000
  C   C3963     1.0  0.81158  0.61163  0.50279  1.0000
  C   C3964     1.0  0.81483  0.60995  0.48604  1.0000
  C   C3965     1.0  0.80145  0.60962  0.47904  1.0000
  H   H3973     1.0  0.76856  0.61396  0.51306  1.0000
  H   H3974     1.0  0.79221  0.61498  0.52529  1.0000
  H   H3975     1.0  0.82780  0.60842  0.47858  1.0000
  H   H3976     1.0  0.80417  0.60771  0.46631  1.0000
  H   H3977     1.0  0.61516  0.92475  0.57401  1.0000
  H   H3978     1.0  0.75167  0.60260  0.54464  1.0000
  C   C3966     1.0  0.67157  0.93707  0.40723  1.0000
  H   H3979     1.0  0.56951  0.87151  0.42833  1.0000
  C   C3967     1.0  0.78736  0.88477  0.41935  1.0000
  C   C3968     1.0  0.81127  0.66289  0.41699  1.0000
  C   C3969     1.0  0.81565  0.65115  0.43133  1.0000
  C   C3970     1.0  0.83034  0.65100  0.43661  1.0000
  C   C3971     1.0  0.84076  0.66254  0.42755  1.0000
  C   C3972     1.0  0.83616  0.67445  0.41342  1.0000
  H   H3980     1.0  0.84706  0.75809  0.44665  1.0000
  H   H3981     1.0  0.80761  0.64232  0.43847  1.0000
  H   H3982     1.0  0.83363  0.64181  0.44763  1.0000
  S   S1351     1.0  0.61007  0.93377  0.39842  1.0000
  H   H3983     1.0  0.83351  0.90549  0.58417  1.0000
  Fe  Fe681     1.0  0.65766  0.61497  0.56649  1.0000
  S   S1352     1.0  0.50301  0.90171  0.38513  1.0000
  H   H3984     1.0  0.85731  0.61763  0.48231  1.0000
  H   H3985     1.0  0.83628  0.93441  0.57449  1.0000
  H   H3986     1.0  0.52600  0.93747  0.38623  1.0000
  S   S1353     1.0  0.50193  0.90064  0.53738  1.0000
  S   S1354     1.0  0.79643  0.58740  0.40153  1.0000
  S   S1355     1.0  0.71920  0.59413  0.56119  1.0000
  S   S1356     1.0  0.57854  0.97895  0.39140  1.0000
  H   H3987     1.0  0.59531  0.61721  0.40719  1.0000
  S   S1357     1.0  0.65733  0.92786  0.40235  1.0000
  N   N334      1.0  0.90980  0.79107  0.38613  1.0000
  H   H3988     1.0  0.56383  0.88377  0.39318  1.0000
  C   C3973     1.0  0.87425  0.76010  0.40035  1.0000
  C   C3974     1.0  0.70014  0.62506  0.40929  1.0000
  H   H3989     1.0  0.69184  0.96497  0.48727  1.0000
  C   C3975     1.0  0.56600  0.93691  0.38958  1.0000
  H   H3990     1.0  0.51924  0.86936  0.52612  1.0000
  C   C3976     1.0  0.60203  0.89231  0.53694  1.0000
  C   C3977     1.0  0.61262  0.90387  0.52863  1.0000
  C   C3978     1.0  0.62504  0.90544  0.53625  1.0000
  C   C3979     1.0  0.62719  0.89513  0.55201  1.0000
  C   C3980     1.0  0.61696  0.88323  0.56002  1.0000
  C   C3981     1.0  0.60424  0.88202  0.55265  1.0000
  H   H3991     1.0  0.61102  0.91182  0.51644  1.0000
  H   H3992     1.0  0.63303  0.91450  0.52987  1.0000
  H   H3993     1.0  0.94380  0.76742  0.54450  1.0000
  H   H3994     1.0  0.59641  0.87287  0.55904  1.0000
  C   C3982     1.0  0.61271  0.94967  0.47537  1.0000
  C   C3983     1.0  0.61214  0.94777  0.49254  1.0000
  C   C3984     1.0  0.62594  0.94998  0.49766  1.0000
  C   C3985     1.0  0.64022  0.95442  0.48562  1.0000
  C   C3986     1.0  0.64077  0.95640  0.46841  1.0000
  C   C3987     1.0  0.62711  0.95384  0.46330  1.0000
  H   H3995     1.0  0.60104  0.94454  0.50192  1.0000
  H   H3996     1.0  0.62539  0.94838  0.51091  1.0000
  S   S1358     1.0  0.61432  0.96020  0.41916  1.0000
  H   H3997     1.0  0.62767  0.95526  0.45004  1.0000
  C   C3988     1.0  0.56558  0.89787  0.42849  1.0000
  H   H3998     1.0  0.59669  0.67632  0.58166  1.0000
  C   C3989     1.0  0.54301  0.88405  0.42962  1.0000
  C   C3990     1.0  0.53098  0.89930  0.43002  1.0000
  C   C3991     1.0  0.53614  0.91370  0.43045  1.0000
  C   C3992     1.0  0.55345  0.91302  0.42956  1.0000
  H   H3999     1.0  0.79955  0.90747  0.38655  1.0000
  H   H4000     1.0  0.55562  0.67812  0.55245  1.0000
  H   H4001     1.0  0.52685  0.92551  0.43088  1.0000
  H   H4002     1.0  0.55739  0.92429  0.42934  1.0000
  C   C3993     1.0  0.55608  0.79145  0.54228  1.0000
  C   C3994     1.0  0.55815  0.78535  0.55893  1.0000
  C   C3995     1.0  0.55530  0.79669  0.56945  1.0000
  C   C3996     1.0  0.55056  0.81419  0.56332  1.0000
  C   C3997     1.0  0.54832  0.82032  0.54670  1.0000
  C   C3998     1.0  0.55102  0.80895  0.53623  1.0000
  H   H4003     1.0  0.56196  0.77189  0.56373  1.0000
  C   C3999     1.0  0.98435  0.69421  0.42476  1.0000
  H   H4004     1.0  0.54444  0.83376  0.54194  1.0000
  H   H4005     1.0  0.54930  0.81373  0.52336  1.0000
  C   C4000     1.0  0.93179  0.79938  0.54833  1.0000
  C   C4001     1.0  0.62516  0.68635  0.55843  1.0000
  H   H4006     1.0  0.86566  0.78877  0.54234  1.0000
  H   H4007     1.0  0.90749  0.78515  0.41275  1.0000
  C   C4002     1.0  0.62970  0.66727  0.53977  1.0000
  C   C4003     1.0  0.62361  0.68348  0.54337  1.0000
  S   S1359     1.0  0.76943  0.63155  0.40595  1.0000
  H   H4008     1.0  0.72953  0.58068  0.40820  1.0000
  H   H4009     1.0  0.61778  0.69378  0.53440  1.0000
  C   C4004     1.0  0.70591  0.59729  0.40297  1.0000
  H   H4010     1.0  0.64451  0.64648  0.57538  1.0000
  C   C4005     1.0  0.84482  0.72257  0.41196  1.0000
  S   S1360     1.0  0.75641  0.92774  0.40582  1.0000
  C   C4006     1.0  0.72607  0.60476  0.41444  1.0000
  C   C4007     1.0  0.72128  0.59307  0.40851  1.0000
  H   H4011     1.0  0.54296  0.76725  0.40700  1.0000
  Fe  Fe682     1.0  0.77320  0.94610  0.39044  1.0000
  H   H4012     1.0  0.73793  0.60132  0.41870  1.0000
  C   C4008     1.0  0.56546  0.67638  0.51095  1.0000
  H   H4013     1.0  0.99792  0.64556  0.43639  1.0000
  S   S1361     1.0  0.67429  0.58939  0.56401  1.0000
  H   H4014     1.0  0.71756  0.64813  0.55891  1.0000
  C   C4009     1.0  0.70584  0.97882  0.56346  1.0000
  H   H4015     1.0  0.84362  0.68380  0.40673  1.0000
  C   C4010     1.0  0.69295  0.66327  0.55460  1.0000
  H   H4016     1.0  0.54891  0.68892  0.49365  1.0000
  S   S1362     1.0  0.58757  0.89664  0.42606  1.0000
  C   C4011     1.0  0.63726  0.65384  0.55128  1.0000
  C   C4012     1.0  0.54982  0.72338  0.46375  1.0000
  C   C4013     1.0  0.56629  0.71375  0.45929  1.0000
  C   C4014     1.0  0.57761  0.70940  0.47019  1.0000
  C   C4015     1.0  0.57255  0.71480  0.48548  1.0000
  C   C4016     1.0  0.55611  0.72456  0.48986  1.0000
  C   C4017     1.0  0.54472  0.72879  0.47903  1.0000
  H   H4017     1.0  0.57029  0.70952  0.44749  1.0000
  H   H4018     1.0  0.59033  0.70184  0.46674  1.0000
  H   H4019     1.0  0.55215  0.72885  0.50155  1.0000
  H   H4020     1.0  0.53201  0.73639  0.48239  1.0000
  C   C4018     1.0  0.98917  0.68500  0.55971  1.0000
  N   N335      1.0  0.71436  0.98658  0.44317  1.0000
  C   C4019     1.0  0.80949  0.85904  0.41842  1.0000
  Fe  Fe683     1.0  0.67296  0.58439  0.39590  1.0000
  Fe  Fe684     1.0  0.76950  0.92638  0.42638  1.0000
  C   C4020     1.0  0.61146  0.67120  0.40865  1.0000
  C   C4021     1.0  0.59828  0.66447  0.42057  1.0000
  C   C4022     1.0  0.60055  0.64696  0.42711  1.0000
  C   C4023     1.0  0.61595  0.63608  0.42161  1.0000
  C   C4024     1.0  0.62923  0.64282  0.40987  1.0000
  H   H4021     1.0  0.60554  0.64695  0.58356  1.0000
  H   H4022     1.0  0.58647  0.67274  0.42506  1.0000
  H   H4023     1.0  0.59036  0.64185  0.43646  1.0000
  S   S1363     1.0  0.90218  0.65481  0.40052  1.0000
  S   S1364     1.0  0.63155  0.97612  0.56965  1.0000
  H   H4024     1.0  0.59262  0.94998  0.57951  1.0000
  Fe  Fe685     1.0  0.69163  0.59714  0.57550  1.0000
  H   H4025     1.0  0.62470  0.51547  0.58135  1.0000
  Fe  Fe686     1.0  0.54802  0.71077  0.39456  1.0000
  C   C4025     1.0  0.70101  0.93792  0.40613  1.0000
  C   C4026     1.0  0.83922  0.73997  0.41089  1.0000
  S   S1365     1.0  0.54741  0.82791  0.57688  1.0000
  C   C4027     1.0  0.72740  0.60808  0.58317  1.0000
  C   C4028     1.0  0.63895  0.65676  0.56628  1.0000
  H   H4026     1.0  0.56729  0.64983  0.39881  1.0000
  H   H4027     1.0  0.75297  0.94725  0.56384  1.0000
  C   C4029     1.0  0.96714  0.69814  0.38938  1.0000
  C   C4030     1.0  0.86324  0.80133  0.50240  1.0000
  S   S1366     1.0  0.91058  0.74542  0.54837  1.0000
  C   C4031     1.0  0.98672  0.69818  0.54568  1.0000
  C   C4032     1.0  0.71881  0.93759  0.55620  1.0000
  C   C4033     1.0  0.73479  0.94176  0.55312  1.0000
  C   C4034     1.0  0.68928  0.93139  0.40180  1.0000
  H   H4028     1.0  0.74236  0.94390  0.54035  1.0000
  H   H4029     1.0  0.91234  0.76428  0.39352  1.0000
  H   H4030     1.0  0.66794  0.97094  0.56357  1.0000
  C   C4035     1.0  0.63705  0.52443  0.40771  1.0000
  S   S1367     1.0  0.70918  0.95832  0.42219  1.0000
  C   C4036     1.0  0.63569  0.50756  0.41477  1.0000
  S   S1368     1.0  0.75002  0.94745  0.43651  1.0000
  C   C4037     1.0  0.69529  0.61331  0.40342  1.0000
  C   C4038     1.0  0.88905  0.78879  0.56478  1.0000
  C   C4039     1.0  0.89737  0.77702  0.55458  1.0000
  C   C4040     1.0  0.79664  0.87130  0.41143  1.0000
  C   C4041     1.0  0.79068  0.88576  0.43445  1.0000
  H   H4031     1.0  0.97392  0.70408  0.54373  1.0000
  H   H4032     1.0  0.88842  0.80208  0.55940  1.0000
  H   H4033     1.0  0.90305  0.78139  0.54144  1.0000
  H   H4034     1.0  0.57620  0.76068  0.49909  1.0000
  H   H4035     1.0  0.57951  0.66614  0.53084  1.0000
  S   S1369     1.0  0.60888  0.69302  0.39989  1.0000
  H   H4036     1.0  0.85554  0.69878  0.42688  1.0000
  H   H4037     1.0  0.62848  0.66516  0.52808  1.0000
  Fe  Fe687     1.0  0.89298  0.70377  0.39270  1.0000
  C   C4042     1.0  0.75939  0.61185  0.56224  1.0000
  H   H4038     1.0  0.68347  0.61672  0.39905  1.0000
  H   H4039     1.0  0.59174  0.85223  0.54575  1.0000
  S   S1370     1.0  0.64526  0.53485  0.41819  1.0000
  Fe  Fe688     1.0  0.76646  0.96462  0.41859  1.0000
  C   C4043     1.0  0.82271  0.89440  0.55337  1.0000
  C   C4044     1.0  0.83664  0.90203  0.54991  1.0000
  C   C4045     1.0  0.83416  0.91972  0.54647  1.0000
  C   C4046     1.0  0.81765  0.92981  0.54694  1.0000
  C   C4047     1.0  0.80373  0.92220  0.55018  1.0000
  C   C4048     1.0  0.80631  0.90455  0.55311  1.0000
  S   S1371     1.0  0.89644  0.70184  0.57005  1.0000
  H   H4040     1.0  0.84496  0.92557  0.54394  1.0000
  H   H4041     1.0  0.79095  0.92997  0.55047  1.0000
  H   H4042     1.0  0.79550  0.89880  0.55543  1.0000
  C   C4049     1.0  0.88088  0.76196  0.42600  1.0000
  C   C4050     1.0  0.88967  0.74499  0.42795  1.0000
  C   C4051     1.0  0.89082  0.73561  0.41605  1.0000
  S   S1372     1.0  0.92790  0.67017  0.57996  1.0000
  H   H4043     1.0  0.80535  0.87355  0.45360  1.0000
  H   H4044     1.0  0.89573  0.73913  0.43861  1.0000
  H   H4045     1.0  0.89788  0.72262  0.41745  1.0000
  H   H4046     1.0  0.76372  0.57166  0.55239  1.0000
  C   C4052     1.0  0.86604  0.84121  0.48310  1.0000
  C   C4053     1.0  0.85981  0.84591  0.49872  1.0000
  C   C4054     1.0  0.87079  0.84315  0.50960  1.0000
  C   C4055     1.0  0.88797  0.83519  0.50517  1.0000
  C   C4056     1.0  0.89423  0.83025  0.48963  1.0000
  C   C4057     1.0  0.88327  0.83336  0.47851  1.0000
  H   H4047     1.0  0.84639  0.85148  0.50255  1.0000
  H   H4048     1.0  0.86591  0.84717  0.52146  1.0000
  H   H4049     1.0  0.90753  0.82408  0.48616  1.0000
  H   H4050     1.0  0.88816  0.82968  0.46648  1.0000
  S   S1373     1.0  0.78014  0.90298  0.44410  1.0000
  C   C4058     1.0  0.84476  0.93200  0.58305  1.0000
  H   H4051     1.0  0.96330  0.71180  0.38617  1.0000
  C   C4059     1.0  0.69298  0.97636  0.55723  1.0000
  H   H4052     1.0  0.84917  0.69056  0.55287  1.0000
  S   S1374     1.0  0.97188  0.67826  0.57510  1.0000
  H   H4053     1.0  0.83203  0.55389  0.38573  1.0000
  C   C4060     1.0  0.69744  0.98612  0.44620  1.0000
  S   S1375     1.0  0.66325  0.49543  0.57094  1.0000
  C   C4061     1.0  0.73237  0.60323  0.56764  1.0000
  H   H4054     1.0  0.69690  0.93132  0.57523  1.0000
  H   H4055     1.0  0.69395  0.92180  0.39430  1.0000
  Fe  Fe689     1.0  0.50919  0.88685  0.40994  1.0000
  C   C4062     1.0  0.66059  0.51212  0.58088  1.0000
  H   H4056     1.0  0.53904  0.87273  0.42994  1.0000
  C   C4063     1.0  0.86776  0.79574  0.48726  1.0000
  H   H4057     1.0  0.58546  0.81153  0.57464  1.0000
  Fe  Fe690     1.0  0.51646  0.85318  0.39981  1.0000
  N   N336      1.0  0.53728  0.69329  0.51852  1.0000
  S   S1376     1.0  0.53329  0.69726  0.38568  1.0000
  C   C4064     1.0  0.55014  0.68631  0.50668  1.0000
  C   C4065     1.0  0.55417  0.68024  0.53956  1.0000
  H   H4058     1.0  0.96712  0.65935  0.44079  1.0000
  C   C4066     1.0  0.56749  0.67340  0.52749  1.0000
  H   H4059     1.0  0.66855  0.67564  0.54791  1.0000
  C   C4067     1.0  0.50624  0.87263  0.52445  1.0000
  H   H4060     1.0  0.50935  0.85107  0.51384  1.0000
  H   H4061     1.0  0.94216  0.74130  0.56650  1.0000
  H   H4062     1.0  0.83251  0.57483  0.40132  1.0000
  H   H4063     1.0  0.84933  0.89439  0.55005  1.0000
  H   H4064     1.0  0.58460  0.88807  0.38915  1.0000
  H   H4065     1.0  0.98075  0.64926  0.40127  1.0000
  N   N337      1.0  0.56042  0.76371  0.45899  1.0000
  C   C4068     1.0  0.55047  0.77276  0.47081  1.0000
  C   C4069     1.0  0.57612  0.75389  0.46109  1.0000
  C   C4070     1.0  0.55600  0.77179  0.48540  1.0000
  C   C4071     1.0  0.58203  0.75264  0.47553  1.0000
  C   C4072     1.0  0.57186  0.76163  0.48775  1.0000
  C   C4073     1.0  0.55441  0.76507  0.44374  1.0000
  C   C4074     1.0  0.54885  0.94327  0.38873  1.0000
  H   H4066     1.0  0.58397  0.74660  0.45180  1.0000
  H   H4067     1.0  0.81686  0.57227  0.53138  1.0000
  H   H4068     1.0  0.59421  0.74436  0.47746  1.0000
  C   C4075     1.0  0.87301  0.76943  0.41228  1.0000
  H   H4069     1.0  0.54053  0.76498  0.44689  1.0000
  H   H4070     1.0  0.55665  0.77691  0.43444  1.0000
  H   H4071     1.0  0.56102  0.75413  0.43769  1.0000
  H   H4072     1.0  0.79416  0.87060  0.39971  1.0000
  H   H4073     1.0  0.91965  0.80333  0.54377  1.0000
  Fe  Fe691     1.0  0.64708  0.56200  0.40632  1.0000
  C   C4076     1.0  0.59029  0.81713  0.52505  1.0000
  H   H4074     1.0  0.82050  0.89405  0.40509  1.0000
  S   S1377     1.0  0.76960  0.97543  0.57178  1.0000
  H   H4075     1.0  0.63426  0.67514  0.58148  1.0000
  H   H4076     1.0  0.59054  0.80095  0.54961  1.0000
  H   H4077     1.0  0.59093  0.85900  0.51556  1.0000
  H   H4078     1.0  0.57336  0.94483  0.39145  1.0000
  C   C4077     1.0  0.71538  0.97184  0.47181  1.0000
  C   C4078     1.0  0.89193  0.75410  0.57857  1.0000
  S   S1378     1.0  0.89665  0.87539  0.57647  1.0000
  H   H4079     1.0  0.86166  0.80292  0.47683  1.0000
  C   C4079     1.0  0.50064  0.86231  0.51742  1.0000
  H   H4080     1.0  0.69190  0.63745  0.40963  1.0000
  C   C4080     1.0  0.53940  0.93278  0.38678  1.0000
  H   H4081     1.0  0.77165  0.61343  0.55407  1.0000
  C   C4081     1.0  0.88816  0.77214  0.49908  1.0000
  H   H4082     1.0  0.85352  0.81282  0.50349  1.0000
  C   C4082     1.0  0.88031  0.78105  0.48560  1.0000
  S   S1379     1.0  0.52074  0.87414  0.57601  1.0000
  Fe  Fe692     1.0  0.73807  0.95037  0.41472  1.0000
  H   H4083     1.0  0.89794  0.76068  0.49800  1.0000
  H   H4084     1.0  0.88395  0.77662  0.47388  1.0000
  C   C4083     1.0  0.82150  0.67462  0.40815  1.0000
  N   N338      1.0  0.77206  0.57269  0.52586  1.0000
  C   C4084     1.0  0.78566  0.57231  0.51234  1.0000
  C   C4085     1.0  0.77443  0.57177  0.54157  1.0000
  C   C4086     1.0  0.80201  0.57191  0.51418  1.0000
  C   C4087     1.0  0.79056  0.57157  0.54382  1.0000
  C   C4088     1.0  0.80439  0.57181  0.52998  1.0000
  C   C4089     1.0  0.75493  0.57395  0.52336  1.0000
  H   H4085     1.0  0.78376  0.57310  0.49986  1.0000
  H   H4086     1.0  0.81258  0.57246  0.50325  1.0000
  S   S1380     1.0  0.77132  0.98504  0.42824  1.0000
  C   C4090     1.0  0.68196  0.49923  0.40349  1.0000
  H   H4087     1.0  0.74471  0.57732  0.53435  1.0000
  H   H4088     1.0  0.75237  0.58408  0.51210  1.0000
  H   H4089     1.0  0.58688  0.91528  0.38911  1.0000
  Fe  Fe693     1.0  0.88292  0.83353  0.41167  1.0000
  S   S1381     1.0  0.70083  0.58255  0.39486  1.0000
  C   C4091     1.0  0.53309  0.79314  0.40950  1.0000
  C   C4092     1.0  0.59124  0.84230  0.54006  1.0000
  C   C4093     1.0  0.92351  0.78507  0.57794  1.0000
  C   C4094     1.0  0.93735  0.75355  0.56995  1.0000
  H   H4090     1.0  0.57061  0.67933  0.38738  1.0000
  S   S1382     1.0  0.79326  0.66319  0.40972  1.0000
  H   H4091     1.0  0.57760  0.62045  0.39719  1.0000
  S   S1383     1.0  0.64512  0.63368  0.54643  1.0000
  S   S1384     1.0  0.81450  0.62507  0.58168  1.0000
  C   C4095     1.0  0.59148  0.82243  0.56744  1.0000
  C   C4096     1.0  0.97186  0.68456  0.43165  1.0000
  C   C4097     1.0  0.59024  0.83353  0.51541  1.0000
  H   H4092     1.0  0.52911  0.69612  0.54416  1.0000
  H   H4093     1.0  0.52066  0.71744  0.51505  1.0000
  Fe  Fe694     1.0  0.87222  0.82469  0.57931  1.0000
  C   C4098     1.0  0.80299  0.87309  0.44177  1.0000
  C   C4099     1.0  0.88342  0.77817  0.51401  1.0000
  C   C4100     1.0  0.71547  0.62074  0.41498  1.0000
  N   N339      1.0  0.87110  0.79261  0.51549  1.0000
  C   C4101     1.0  0.97697  0.66292  0.39791  1.0000
  H   H4094     1.0  0.81382  0.98663  0.40970  1.0000
  N   N340      1.0  0.67536  0.60545  0.44558  1.0000
  C   C4102     1.0  0.65884  0.61178  0.44365  1.0000
  C   C4103     1.0  0.68431  0.61548  0.44846  1.0000
  C   C4104     1.0  0.65100  0.62867  0.44421  1.0000
  C   C4105     1.0  0.67699  0.63251  0.44872  1.0000
  C   C4106     1.0  0.66022  0.63913  0.44655  1.0000
  C   C4107     1.0  0.68331  0.58777  0.44472  1.0000
  H   H4095     1.0  0.65163  0.60382  0.44154  1.0000
  H   H4096     1.0  0.69746  0.61057  0.44990  1.0000
  H   H4097     1.0  0.63788  0.63362  0.44270  1.0000
  H   H4098     1.0  0.68448  0.64057  0.45019  1.0000
  H   H4099     1.0  0.65440  0.65236  0.44658  1.0000
  H   H4100     1.0  0.67721  0.57916  0.45587  1.0000
  H   H4101     1.0  0.68182  0.58510  0.43303  1.0000
  H   H4102     1.0  0.69731  0.58488  0.44418  1.0000
  N   N341      1.0  0.84916  0.64184  0.48826  1.0000
  C   C4108     1.0  0.83227  0.64900  0.48828  1.0000
  C   C4109     1.0  0.85670  0.64404  0.49984  1.0000
  C   C4110     1.0  0.82256  0.65899  0.49988  1.0000
  C   C4111     1.0  0.84742  0.65409  0.51150  1.0000
  C   C4112     1.0  0.83026  0.66162  0.51149  1.0000
  C   C4113     1.0  0.85893  0.63081  0.47652  1.0000
  H   H4103     1.0  0.82612  0.64667  0.47955  1.0000
  H   H4104     1.0  0.86992  0.63791  0.50022  1.0000
  H   H4105     1.0  0.80909  0.66437  0.50008  1.0000
  H   H4106     1.0  0.85339  0.65582  0.52070  1.0000
  H   H4107     1.0  0.82288  0.66918  0.52072  1.0000
  H   H4108     1.0  0.85450  0.63504  0.46444  1.0000
  H   H4109     1.0  0.87275  0.63108  0.47323  1.0000
  C   C4114     1.0  0.85125  0.71235  0.42590  1.0000
  C   C4115     1.0  0.93825  0.76842  0.55752  1.0000
  H   H4110     1.0  0.80239  0.97502  0.39220  1.0000
  S   S1385     1.0  0.72068  0.63513  0.42351  1.0000
  C   C4116     1.0  0.68912  0.97838  0.46207  1.0000
  C   C4117     1.0  0.74082  0.94364  0.56640  1.0000
  H   H4111     1.0  0.83442  0.74802  0.39997  1.0000
  H   H4112     1.0  0.83586  0.76049  0.42285  1.0000
  H   H4113     1.0  0.88968  0.77121  0.52438  1.0000
  N   N342      1.0  0.59088  0.82628  0.54952  1.0000
  H   H4114     1.0  0.66474  0.55320  0.57094  1.0000
  C   C4118     1.0  0.66181  0.54131  0.57859  1.0000
  C   C4119     1.0  0.70343  0.97785  0.58073  1.0000
  C   C4120     1.0  0.85221  0.71975  0.43852  1.0000
  S   S1386     1.0  0.52025  0.82569  0.41305  1.0000
  C   C4121     1.0  0.67788  0.97285  0.56845  1.0000
  C   C4122     1.0  0.97678  0.66697  0.43599  1.0000
  C   C4123     1.0  0.62702  0.66034  0.40348  1.0000
  Fe  Fe695     1.0  0.91620  0.71778  0.56120  1.0000
  Fe  Fe696     1.0  0.59448  0.95744  0.40703  1.0000
  S   S1387     1.0  0.56190  0.86915  0.57233  1.0000
  S   S1388     1.0  0.53753  0.70104  0.57561  1.0000
  N   N343      1.0  0.93155  0.78392  0.56164  1.0000
  C   C4124     1.0  0.82477  0.89582  0.39146  1.0000
  H   H4115     1.0  0.82215  0.85032  0.43936  1.0000
  H   H4116     1.0  0.61878  0.87501  0.57204  1.0000
  C   C4125     1.0  0.53915  0.69039  0.53478  1.0000
  C   C4126     1.0  0.53183  0.81021  0.40138  1.0000
  C   C4127     1.0  0.56024  0.88333  0.42891  1.0000
  H   H4117     1.0  0.52709  0.78976  0.42272  1.0000
  N   N344      1.0  0.69415  0.64016  0.53594  1.0000
  C   C4128     1.0  0.68054  0.65361  0.53713  1.0000
  C   C4129     1.0  0.70758  0.63851  0.54314  1.0000
  H   H4118     1.0  0.67013  0.65520  0.53101  1.0000
  C   C4130     1.0  0.70710  0.64988  0.55276  1.0000
  H   H4119     1.0  0.55687  0.79187  0.58236  1.0000
  C   C4131     1.0  0.69464  0.62767  0.52651  1.0000
  C   C4132     1.0  0.59075  0.81368  0.54216  1.0000
  H   H4120     1.0  0.71861  0.62816  0.54171  1.0000
  C   C4133     1.0  0.67964  0.66528  0.54660  1.0000
  H   H4121     1.0  0.85968  0.73848  0.45533  1.0000
  H   H4122     1.0  0.58963  0.80718  0.51944  1.0000
  H   H4123     1.0  0.70084  0.61478  0.53259  1.0000
  H   H4124     1.0  0.68148  0.62699  0.52639  1.0000
  H   H4125     1.0  0.70187  0.63103  0.51331  1.0000
  N   N345      1.0  0.82920  0.88929  0.49993  1.0000
  C   C4134     1.0  0.81236  0.89595  0.50603  1.0000
  C   C4135     1.0  0.83417  0.88467  0.48463  1.0000
  C   C4136     1.0  0.80002  0.89833  0.49663  1.0000
  C   C4137     1.0  0.82216  0.88671  0.47500  1.0000
  C   C4138     1.0  0.80499  0.89366  0.48102  1.0000
  C   C4139     1.0  0.84172  0.88656  0.51027  1.0000
  H   H4126     1.0  0.80841  0.89940  0.51826  1.0000
  H   H4127     1.0  0.84745  0.87912  0.47983  1.0000
  H   H4128     1.0  0.78667  0.90366  0.50145  1.0000
  H   H4129     1.0  0.82616  0.88271  0.46303  1.0000
  H   H4130     1.0  0.79554  0.89533  0.47362  1.0000
  H   H4131     1.0  0.84034  0.89815  0.51491  1.0000
  H   H4132     1.0  0.83966  0.87598  0.52138  1.0000
  H   H4133     1.0  0.85512  0.88334  0.50309  1.0000
  C   C4140     1.0  0.69504  0.95022  0.41587  1.0000
  C   C4141     1.0  0.74816  0.60555  0.55701  1.0000
  C   C4142     1.0  0.67733  0.95598  0.42124  1.0000
  H   H4134     1.0  0.53813  0.78071  0.46902  1.0000
  N   N346      1.0  0.56088  0.91762  0.49548  1.0000
  C   C4143     1.0  0.54527  0.91346  0.50274  1.0000
  C   C4144     1.0  0.56978  0.91392  0.48021  1.0000
  C   C4145     1.0  0.53832  0.90515  0.49477  1.0000
  C   C4146     1.0  0.56322  0.90563  0.47189  1.0000
  C   C4147     1.0  0.54736  0.90127  0.47920  1.0000
  C   C4148     1.0  0.56768  0.92702  0.50354  1.0000
  H   H4135     1.0  0.53804  0.91661  0.51472  1.0000
  H   H4136     1.0  0.58203  0.91744  0.47433  1.0000
  H   H4137     1.0  0.52592  0.90189  0.50061  1.0000
  H   H4138     1.0  0.57038  0.90274  0.45978  1.0000
  H   H4139     1.0  0.54207  0.89502  0.47272  1.0000
  H   H4140     1.0  0.58187  0.92295  0.50153  1.0000
  H   H4141     1.0  0.56445  0.94078  0.49799  1.0000
  H   H4142     1.0  0.56266  0.92467  0.51744  1.0000
  N   N347      1.0  0.67583  0.92101  0.46507  1.0000
  C   C4149     1.0  0.66470  0.91808  0.48035  1.0000
  C   C4150     1.0  0.67268  0.91834  0.45099  1.0000
  C   C4151     1.0  0.64977  0.91267  0.48173  1.0000
  C   C4152     1.0  0.65785  0.91304  0.45187  1.0000
  C   C4153     1.0  0.64627  0.91032  0.46734  1.0000
  C   C4154     1.0  0.69039  0.92844  0.46346  1.0000
  H   H4143     1.0  0.66697  0.92054  0.49146  1.0000
  H   H4144     1.0  0.68153  0.92057  0.43891  1.0000
  H   H4145     1.0  0.64070  0.91093  0.49376  1.0000
  H   H4146     1.0  0.65525  0.91143  0.44050  1.0000
  H   H4147     1.0  0.63447  0.90667  0.46813  1.0000
  H   H4148     1.0  0.69535  0.92421  0.47526  1.0000
  H   H4149     1.0  0.70113  0.92484  0.45294  1.0000
  H   H4150     1.0  0.68628  0.94247  0.46076  1.0000
  H   H4151     1.0  0.65201  0.95383  0.42126  1.0000
  H   H4152     1.0  0.94120  0.69448  0.39771  1.0000
  H   H4153     1.0  0.87738  0.80518  0.53086  1.0000
  C   C4155     1.0  0.70913  0.93472  0.57274  1.0000
  C   C4156     1.0  0.86700  0.79915  0.53091  1.0000
  C   C4157     1.0  0.66442  0.52756  0.57106  1.0000
  H   H4154     1.0  0.93317  0.80992  0.55311  1.0000
  H   H4155     1.0  0.66939  0.52893  0.55758  1.0000
  C   C4158     1.0  0.84749  0.74425  0.45095  1.0000
  H   H4156     1.0  0.73801  0.64091  0.38800  1.0000
  C   C4159     1.0  0.85962  0.57364  0.39205  1.0000
  C   C4160     1.0  0.81251  0.85988  0.43368  1.0000
  S   S1389     1.0  0.78730  0.94322  0.41056  1.0000
  H   H4157     1.0  0.91739  0.79730  0.58110  1.0000
  S   S1390     1.0  0.65789  0.95668  0.49179  1.0000
  N   N348      1.0  0.84683  0.73686  0.43730  1.0000
  H   H4158     1.0  0.63736  0.66550  0.39445  1.0000
  H   H4159     1.0  0.51547  0.81855  0.57358  1.0000
  S   S1391     1.0  0.75351  0.96894  0.39723  1.0000
  C   C4161     1.0  0.67495  0.49464  0.39249  1.0000
  H   H4160     1.0  0.83653  0.74221  0.46173  1.0000
  H   H4161     1.0  0.57595  0.67159  0.50134  1.0000
  Fe  Fe697     1.0  0.53822  0.88866  0.57918  1.0000
  H   H4162     1.0  0.84368  0.64016  0.39809  1.0000
  C   C4162     1.0  0.61537  0.49368  0.56972  1.0000
  H   H4163     1.0  0.84430  0.71704  0.40192  1.0000
  H   H4164     1.0  0.79225  0.57154  0.55616  1.0000
  Fe  Fe698     1.0  0.56070  0.74284  0.38902  1.0000
  H   H4165     1.0  0.71463  0.93339  0.40196  1.0000
  H   H4166     1.0  0.60494  0.81951  0.56882  1.0000
  H   H4167     1.0  0.70093  0.49123  0.41876  1.0000
  H   H4168     1.0  0.72256  0.96617  0.48171  1.0000
  H   H4169     1.0  0.84484  0.95847  0.57909  1.0000
  C   C4163     1.0  0.73096  0.94114  0.58287  1.0000
  C   C4164     1.0  0.95464  0.68838  0.39587  1.0000
  C   C4165     1.0  0.84422  0.56920  0.39344  1.0000
  C   C4166     1.0  0.88225  0.78334  0.58195  1.0000
  C   C4167     1.0  0.98455  0.69033  0.38712  1.0000
  H   H4170     1.0  0.54292  0.95627  0.38969  1.0000
  C   C4168     1.0  0.75464  0.61625  0.57799  1.0000
  C   C4169     1.0  0.62576  0.50651  0.39060  1.0000
  H   H4171     1.0  0.89310  0.74070  0.58397  1.0000
  H   H4172     1.0  0.73669  0.98028  0.45342  1.0000
  C   C4170     1.0  0.54731  0.91603  0.38572  1.0000
  H   H4173     1.0  0.58403  0.83327  0.57338  1.0000
  H   H4174     1.0  0.92882  0.78643  0.40023  1.0000
  H   H4175     1.0  0.87836  0.89845  0.38724  1.0000
  C   C4171     1.0  0.60327  0.92331  0.58308  1.0000
  H   H4176     1.0  0.85612  0.89607  0.57847  1.0000
  H   H4177     1.0  0.66449  0.50354  0.38736  1.0000
  C   C4172     1.0  0.99421  0.65926  0.43338  1.0000
  H   H4178     1.0  0.63364  0.54539  0.38663  1.0000
  H   H4179     1.0  0.52554  0.92895  0.57972  1.0000
  H   H4180     1.0  0.62923  0.49393  0.56519  1.0000
  S   S1392     1.0  0.87498  0.69005  0.38924  1.0000
  H   H4181     1.0  0.71787  0.98095  0.55499  1.0000
  S   S1393     1.0  0.88511  0.73227  0.38652  1.0000
  S   S1394     1.0  0.65365  0.60809  0.38914  1.0000
  C   C4173     1.0  0.57948  0.65223  0.39098  1.0000
  H   H4182     1.0  0.51550  0.95853  0.58404  1.0000
  C   C4174     1.0  0.59107  0.62161  0.39498  1.0000
  H   H4183     1.0  0.49997  0.86872  0.45099  1.0000
  H   H4184     1.0  0.50287  0.84469  0.58435  1.0000
  N   N349      1.0  0.59292  0.63910  0.38756  1.0000
  C   C4175     1.0  0.57221  0.89243  0.38500  1.0000
  S   S1395     1.0  0.92682  0.70800  0.58475  1.0000
  H   H4185     1.0  0.87136  0.54817  0.58480  1.0000
  C   C4176     1.0  0.90041  0.88842  0.61789  1.0000
  C   C4177     1.0  0.86528  0.89209  0.71419  1.0000
  N   N350      1.0  0.87630  0.65315  0.60170  1.0000
  H   H4186     1.0  0.84438  0.89151  0.60005  1.0000
  C   C4178     1.0  0.60894  0.94594  0.61146  1.0000
  C   C4179     1.0  0.89115  0.55327  0.60172  1.0000
  H   H4187     1.0  0.87961  0.62997  0.75861  1.0000
  H   H4188     1.0  0.91375  0.49677  0.65946  1.0000
  S   S1396     1.0  0.85958  0.95370  0.76405  1.0000
  C   C4180     1.0  0.60427  0.98032  0.59614  1.0000
  H   H4189     1.0  0.87372  0.89151  0.72224  1.0000
  N   N351      1.0  0.77444  0.90434  0.61587  1.0000
  S   S1397     1.0  0.54506  0.95379  0.75535  1.0000
  C   C4181     1.0  0.86204  0.61590  0.77669  1.0000
  N   N352      1.0  0.60886  0.49770  0.58651  1.0000
  C   C4182     1.0  0.90906  0.52034  0.72469  1.0000
  C   C4183     1.0  0.59298  0.97471  0.61117  1.0000
  Fe  Fe699     1.0  0.89835  0.91887  0.68240  1.0000
  S   S1398     1.0  0.90125  0.94380  0.66460  1.0000
  S   S1399     1.0  0.90030  0.90970  0.70975  1.0000
  Fe  Fe700     1.0  0.89462  0.90335  0.65514  1.0000
  S   S1400     1.0  0.89765  0.92660  0.63494  1.0000
  S   S1401     1.0  0.88794  0.88020  0.65222  1.0000
  Fe  Fe701     1.0  0.91847  0.92764  0.64667  1.0000
  S   S1402     1.0  0.94342  0.93303  0.62995  1.0000
  Fe  Fe702     1.0  0.88016  0.94063  0.65436  1.0000
  S   S1403     1.0  0.85784  0.96038  0.64619  1.0000
  S   S1404     1.0  0.91714  0.90289  0.66513  1.0000
  S   S1405     1.0  0.87569  0.91733  0.67395  1.0000
  H   H4190     1.0  0.94305  0.62338  0.70917  1.0000
  H   H4191     1.0  0.84205  0.61388  0.59675  1.0000
  C   C4184     1.0  0.92227  0.77045  0.59065  1.0000
  H   H4192     1.0  0.64921  0.97894  0.59543  1.0000
  H   H4193     1.0  0.97585  0.94265  0.61762  1.0000
  C   C4185     1.0  0.98553  0.94039  0.63959  1.0000
  H   H4194     1.0  0.88128  0.52266  0.69159  1.0000
  C   C4186     1.0  0.99555  0.66239  0.60822  1.0000
  Fe  Fe703     1.0  0.66160  0.61126  0.60199  1.0000
  H   H4195     1.0  0.92499  0.59406  0.68654  1.0000
  S   S1406     1.0  0.65145  0.62398  0.62418  1.0000
  H   H4196     1.0  0.78547  0.61811  0.61277  1.0000
  C   C4187     1.0  0.79262  0.61052  0.62231  1.0000
  H   H4197     1.0  0.90929  0.53114  0.72927  1.0000
  H   H4198     1.0  0.87810  0.61738  0.63230  1.0000
  S   S1407     1.0  0.67981  0.58603  0.60227  1.0000
  H   H4199     1.0  0.82924  0.97518  0.62999  1.0000
  H   H4200     1.0  0.65121  0.49853  0.60595  1.0000
  Fe  Fe704     1.0  0.54072  0.64495  0.70651  1.0000
  S   S1408     1.0  0.53980  0.62029  0.70178  1.0000
  S   S1409     1.0  0.53411  0.64911  0.73314  1.0000
  Fe  Fe705     1.0  0.54406  0.66231  0.66904  1.0000
  S   S1410     1.0  0.54327  0.63911  0.66136  1.0000
  S   S1411     1.0  0.54520  0.68756  0.65119  1.0000
  Fe  Fe706     1.0  0.52237  0.63598  0.68455  1.0000
  C   C4188     1.0  0.90688  0.95714  0.72646  1.0000
  Fe  Fe707     1.0  0.56093  0.62575  0.67915  1.0000
  S   S1412     1.0  0.58281  0.60504  0.67103  1.0000
  S   S1413     1.0  0.52168  0.66031  0.69083  1.0000
  S   S1414     1.0  0.56341  0.64927  0.68522  1.0000
  S   S1415     1.0  0.99797  0.93607  0.66794  1.0000
  S   S1416     1.0  0.53401  0.89685  0.60363  1.0000
  H   H4201     1.0  0.84575  0.91165  0.72460  1.0000
  Fe  Fe708     1.0  0.52299  0.97920  0.66744  1.0000
  H   H4202     1.0  0.96762  0.89893  0.61083  1.0000
  Fe  Fe709     1.0  0.55554  0.96833  0.64223  1.0000
  S   S1417     1.0  0.58087  0.95015  0.63729  1.0000
  Fe  Fe710     1.0  0.52147  0.97750  0.63209  1.0000
  C   C4189     1.0  0.76727  0.91448  0.62885  1.0000
  H   H4203     1.0  0.87152  0.50771  0.70898  1.0000
  S   S1418     1.0  0.53158  0.95813  0.65329  1.0000
  Fe  Fe711     1.0  0.92621  0.60505  0.77216  1.0000
  S   S1419     1.0  0.91538  0.61597  0.74882  1.0000
  S   S1420     1.0  0.93830  0.62167  0.77980  1.0000
  C   C4190     1.0  0.93604  0.58030  0.70790  1.0000
  Fe  Fe712     1.0  0.88745  0.57360  0.69713  1.0000
  S   S1421     1.0  0.91348  0.56604  0.68134  1.0000
  S   S1422     1.0  0.88643  0.56630  0.72513  1.0000
  Fe  Fe713     1.0  0.87146  0.58737  0.66626  1.0000
  S   S1423     1.0  0.89626  0.58040  0.64816  1.0000
  S   S1424     1.0  0.84911  0.60246  0.65470  1.0000
  Fe  Fe714     1.0  0.89997  0.55629  0.66765  1.0000
  S   S1425     1.0  0.91150  0.53014  0.66316  1.0000
  Fe  Fe715     1.0  0.90702  0.59098  0.66371  1.0000
  S   S1426     1.0  0.92610  0.60758  0.65159  1.0000
  S   S1427     1.0  0.87412  0.56217  0.68453  1.0000
  S   S1428     1.0  0.88202  0.59951  0.68070  1.0000
  S   S1429     1.0  0.89281  0.68184  0.61775  1.0000
  C   C4191     1.0  0.91691  0.62860  0.64308  1.0000
  C   C4192     1.0  0.92731  0.63900  0.63139  1.0000
  C   C4193     1.0  0.92004  0.65555  0.62389  1.0000
  C   C4194     1.0  0.90236  0.66178  0.62813  1.0000
  C   C4195     1.0  0.89208  0.65165  0.64039  1.0000
  C   C4196     1.0  0.89931  0.63504  0.64774  1.0000
  H   H4204     1.0  0.94096  0.63417  0.62785  1.0000
  S   S1430     1.0  0.54803  0.98753  0.65845  1.0000
  H   H4205     1.0  0.87842  0.65648  0.64386  1.0000
  H   H4206     1.0  0.89117  0.62726  0.65681  1.0000
  C   C4197     1.0  0.84818  0.58713  0.60713  1.0000
  C   C4198     1.0  0.85291  0.57474  0.62097  1.0000
  C   C4199     1.0  0.85416  0.57944  0.63528  1.0000
  C   C4200     1.0  0.85003  0.59653  0.63603  1.0000
  C   C4201     1.0  0.84540  0.60891  0.62218  1.0000
  C   C4202     1.0  0.84490  0.60422  0.60761  1.0000
  H   H4207     1.0  0.85527  0.56150  0.62077  1.0000
  H   H4208     1.0  0.85745  0.56984  0.64609  1.0000
  H   H4209     1.0  0.84215  0.62214  0.62271  1.0000
  H   H4210     1.0  0.51837  0.94051  0.63628  1.0000
  C   C4203     1.0  0.89816  0.52201  0.65603  1.0000
  C   C4204     1.0  0.88358  0.53251  0.65062  1.0000
  C   C4205     1.0  0.87382  0.52606  0.64364  1.0000
  H   H4211     1.0  0.88018  0.54569  0.65131  1.0000
  H   H4212     1.0  0.86285  0.53428  0.63899  1.0000
  C   C4206     1.0  0.90619  0.60237  0.74325  1.0000
  C   C4207     1.0  0.90609  0.58589  0.75273  1.0000
  C   C4208     1.0  0.89956  0.57496  0.74737  1.0000
  C   C4209     1.0  0.89334  0.58044  0.73244  1.0000
  C   C4210     1.0  0.89312  0.59704  0.72325  1.0000
  C   C4211     1.0  0.89940  0.60802  0.72872  1.0000
  H   H4213     1.0  0.91125  0.58150  0.76402  1.0000
  H   H4214     1.0  0.89963  0.56215  0.75460  1.0000
  H   H4215     1.0  0.88807  0.60146  0.71193  1.0000
  H   H4216     1.0  0.89930  0.62082  0.72146  1.0000
  C   C4212     1.0  0.53929  0.69723  0.59672  1.0000
  C   C4213     1.0  0.91966  0.49109  0.72265  1.0000
  C   C4214     1.0  0.52749  0.91808  0.60561  1.0000
  C   C4215     1.0  0.52546  0.92149  0.62150  1.0000
  C   C4216     1.0  0.52013  0.93814  0.62388  1.0000
  C   C4217     1.0  0.51649  0.95154  0.61044  1.0000
  H   H4217     1.0  0.93743  0.62558  0.67195  1.0000
  H   H4218     1.0  0.92620  0.63712  0.68849  1.0000
  H   H4219     1.0  0.52797  0.91117  0.63209  1.0000
  C   C4218     1.0  0.61499  0.50934  0.59049  1.0000
  H   H4220     1.0  0.71512  0.60652  0.59134  1.0000
  H   H4221     1.0  0.89940  0.51112  0.60573  1.0000
  H   H4222     1.0  0.98307  0.66971  0.60614  1.0000
  C   C4219     1.0  0.91618  0.94941  0.71303  1.0000
  C   C4220     1.0  0.88366  0.86681  0.62775  1.0000
  C   C4221     1.0  0.51394  0.92868  0.75119  1.0000
  C   C4222     1.0  0.88364  0.50990  0.69994  1.0000
  N   N353      1.0  0.85050  0.91587  0.59144  1.0000
  C   C4223     1.0  0.54195  0.70993  0.60288  1.0000
  C   C4224     1.0  0.54331  0.70688  0.61973  1.0000
  C   C4225     1.0  0.54237  0.69101  0.63045  1.0000
  C   C4226     1.0  0.53979  0.67824  0.62429  1.0000
  C   C4227     1.0  0.53808  0.68141  0.60748  1.0000
  N   N354      1.0  0.93346  0.61019  0.69663  1.0000
  H   H4223     1.0  0.54525  0.71682  0.62444  1.0000
  H   H4224     1.0  0.53929  0.66591  0.63235  1.0000
  H   H4225     1.0  0.53621  0.67150  0.60268  1.0000
  S   S1431     1.0  0.87313  0.79818  0.59493  1.0000
  C   C4228     1.0  0.84941  0.90345  0.71565  1.0000
  C   C4229     1.0  0.91507  0.53985  0.61519  1.0000
  H   H4226     1.0  0.59262  0.50766  0.63109  1.0000
  C   C4230     1.0  0.84586  0.90154  0.58835  1.0000
  C   C4231     1.0  0.65413  0.51043  0.59829  1.0000
  C   C4232     1.0  0.89718  0.52180  0.71511  1.0000
  H   H4227     1.0  0.56100  0.91848  0.61540  1.0000
  C   C4233     1.0  0.90766  0.49303  0.71304  1.0000
  S   S1432     1.0  0.81069  0.92732  0.62290  1.0000
  H   H4228     1.0  0.61077  0.93261  0.61737  1.0000
  C   C4234     1.0  0.63150  0.61992  0.63629  1.0000
  C   C4235     1.0  0.62517  0.60705  0.63410  1.0000
  C   C4236     1.0  0.60973  0.60324  0.64426  1.0000
  C   C4237     1.0  0.60063  0.61199  0.65701  1.0000
  C   C4238     1.0  0.60674  0.62505  0.65920  1.0000
  C   C4239     1.0  0.62218  0.62900  0.64883  1.0000
  H   H4229     1.0  0.63262  0.59927  0.62530  1.0000
  H   H4230     1.0  0.60515  0.59303  0.64265  1.0000
  H   H4231     1.0  0.59987  0.63171  0.66920  1.0000
  H   H4232     1.0  0.62706  0.63888  0.65072  1.0000
  S   S1433     1.0  0.58354  0.60555  0.78208  1.0000
  H   H4233     1.0  0.70765  0.93431  0.59882  1.0000
  H   H4234     1.0  0.92724  0.92654  0.76814  1.0000
  C   C4240     1.0  0.92790  0.62531  0.68415  1.0000
  C   C4241     1.0  0.99752  0.64500  0.61511  1.0000
  H   H4235     1.0  0.89699  0.64392  0.76537  1.0000
  C   C4242     1.0  0.56243  0.95066  0.60139  1.0000
  H   H4236     1.0  0.82639  0.91352  0.70589  1.0000
  C   C4243     1.0  0.82317  0.93669  0.62993  1.0000
  H   H4237     1.0  0.58530  0.70111  0.59479  1.0000
  H   H4238     1.0  0.76189  0.90652  0.64097  1.0000
  C   C4244     1.0  0.90755  0.94831  0.74304  1.0000
  C   C4245     1.0  0.95759  0.93578  0.64060  1.0000
  C   C4246     1.0  0.97320  0.93995  0.63128  1.0000
  C   C4247     1.0  0.89264  0.49847  0.64844  1.0000
  C   C4248     1.0  0.98227  0.93677  0.65724  1.0000
  C   C4249     1.0  0.96644  0.93310  0.66656  1.0000
  C   C4250     1.0  0.95413  0.93252  0.65826  1.0000
  H   H4239     1.0  0.88242  0.65686  0.77951  1.0000
  S   S1434     1.0  0.65106  0.55683  0.60571  1.0000
  H   H4240     1.0  0.96386  0.93036  0.68022  1.0000
  H   H4241     1.0  0.94212  0.92924  0.66551  1.0000
  C   C4251     1.0  0.84436  0.95122  0.64017  1.0000
  C   C4252     1.0  0.84679  0.93362  0.64306  1.0000
  C   C4253     1.0  0.83608  0.92637  0.63817  1.0000
  H   H4242     1.0  0.85704  0.92551  0.64886  1.0000
  H   H4243     1.0  0.83812  0.91274  0.64038  1.0000
  H   H4244     1.0  0.87643  0.85891  0.63802  1.0000
  C   C4254     1.0  0.56935  0.61733  0.76883  1.0000
  C   C4255     1.0  0.57386  0.61645  0.75173  1.0000
  C   C4256     1.0  0.56303  0.62601  0.74072  1.0000
  C   C4257     1.0  0.54772  0.63666  0.74674  1.0000
  C   C4258     1.0  0.54316  0.63753  0.76386  1.0000
  H   H4245     1.0  0.85796  0.64383  0.62303  1.0000
  H   H4246     1.0  0.58577  0.60833  0.74697  1.0000
  H   H4247     1.0  0.56660  0.62528  0.72753  1.0000
  H   H4248     1.0  0.53135  0.64582  0.76852  1.0000
  C   C4259     1.0  0.57288  0.91993  0.60633  1.0000
  C   C4260     1.0  0.53470  0.96157  0.73823  1.0000
  C   C4261     1.0  0.51806  0.97141  0.74000  1.0000
  H   H4249     1.0  0.91544  0.95591  0.70011  1.0000
  C   C4262     1.0  0.51848  0.97275  0.71059  1.0000
  C   C4263     1.0  0.53529  0.96328  0.70866  1.0000
  C   C4264     1.0  0.54336  0.95767  0.72247  1.0000
  C   C4265     1.0  0.92613  0.93308  0.71630  1.0000
  Fe  Fe716     1.0  0.90897  0.69014  0.59217  1.0000
  H   H4250     1.0  0.54192  0.95988  0.69667  1.0000
  H   H4251     1.0  0.55627  0.95008  0.72101  1.0000
  C   C4266     1.0  0.86916  0.94071  0.74923  1.0000
  C   C4267     1.0  0.87846  0.92429  0.75404  1.0000
  C   C4268     1.0  0.88751  0.91473  0.74183  1.0000
  C   C4269     1.0  0.88728  0.92149  0.72472  1.0000
  C   C4270     1.0  0.87742  0.93764  0.71990  1.0000
  C   C4271     1.0  0.86839  0.94725  0.73216  1.0000
  H   H4252     1.0  0.87901  0.91904  0.76712  1.0000
  H   H4253     1.0  0.89502  0.90219  0.74564  1.0000
  H   H4254     1.0  0.87714  0.94293  0.70671  1.0000
  H   H4255     1.0  0.86116  0.95993  0.72835  1.0000
  C   C4272     1.0  0.91381  0.52423  0.61346  1.0000
  C   C4273     1.0  0.90234  0.88712  0.60117  1.0000
  H   H4256     1.0  0.85926  0.61102  0.76729  1.0000
  C   C4274     1.0  0.92649  0.92461  0.73305  1.0000
  C   C4275     1.0  0.94130  0.61128  0.70851  1.0000
  H   H4257     1.0  0.87089  0.67861  0.58762  1.0000
  C   C4276     1.0  0.90373  0.55450  0.60921  1.0000
  C   C4277     1.0  0.82070  0.95431  0.62699  1.0000
  N   N355      1.0  0.87758  0.63239  0.78372  1.0000
  H   H4258     1.0  0.96406  0.89837  0.64031  1.0000
  H   H4259     1.0  0.90959  0.89502  0.59090  1.0000
  C   C4278     1.0  0.59391  0.67435  0.59531  1.0000
  S   S1435     1.0  0.84587  0.58100  0.58965  1.0000
  H   H4260     1.0  0.83537  0.89481  0.68522  1.0000
  H   H4261     1.0  0.79051  0.63187  0.63290  1.0000
  H   H4262     1.0  0.90485  0.92626  0.77222  1.0000
  H   H4263     1.0  0.90831  0.61217  0.61626  1.0000
  H   H4264     1.0  0.89988  0.95423  0.75344  1.0000
  C   C4279     1.0  0.87096  0.64146  0.61570  1.0000
  H   H4265     1.0  0.88775  0.50060  0.69167  1.0000
  C   C4280     1.0  0.94375  0.58135  0.72025  1.0000
  H   H4266     1.0  0.93349  0.56836  0.70774  1.0000
  C   C4281     1.0  0.59525  0.95750  0.61882  1.0000
  H   H4267     1.0  0.92449  0.54051  0.62161  1.0000
  H   H4268     1.0  0.59507  0.64334  0.63017  1.0000
  N   N356      1.0  0.57568  0.93569  0.59806  1.0000
  H   H4269     1.0  0.55588  0.94874  0.61498  1.0000
  H   H4270     1.0  0.92960  0.50344  0.73597  1.0000
  H   H4271     1.0  0.86421  0.95321  0.59882  1.0000
  H   H4272     1.0  0.68667  0.97299  0.60505  1.0000
  C   C4282     1.0  0.50435  0.93585  0.73875  1.0000
  C   C4283     1.0  0.81104  0.59152  0.64662  1.0000
  H   H4273     1.0  0.61444  0.52210  0.60974  1.0000
  N   N357      1.0  0.87038  0.88233  0.70235  1.0000
  C   C4284     1.0  0.55392  0.62782  0.77493  1.0000
  S   S1436     1.0  0.78753  0.93613  0.58735  1.0000
  C   C4285     1.0  0.58536  0.90545  0.60337  1.0000
  S   S1437     1.0  0.80529  0.96732  0.58585  1.0000
  C   C4286     1.0  0.90091  0.52343  0.60612  1.0000
  S   S1438     1.0  0.54589  0.98644  0.62027  1.0000
  N   N358      1.0  0.59685  0.65838  0.60516  1.0000
  C   C4287     1.0  0.87853  0.50909  0.64226  1.0000
  H   H4274     1.0  0.77717  0.91990  0.63084  1.0000
  Fe  Fe717     1.0  0.76219  0.95383  0.59270  1.0000
  H   H4275     1.0  0.97732  0.89412  0.66450  1.0000
  H   H4276     1.0  0.88714  0.85901  0.70980  1.0000
  C   C4288     1.0  0.90444  0.63530  0.59746  1.0000
  C   C4289     1.0  0.59302  0.65600  0.62239  1.0000
  Fe  Fe718     1.0  0.66108  0.58027  0.59091  1.0000
  H   H4277     1.0  0.89694  0.87728  0.70229  1.0000
  H   H4278     1.0  0.59740  0.63356  0.60314  1.0000
  C   C4290     1.0  0.51835  0.94819  0.59450  1.0000
  S   S1439     1.0  0.86793  0.50197  0.63100  1.0000
  N   N359      1.0  0.89672  0.50829  0.70928  1.0000
  H   H4279     1.0  0.51437  0.62385  0.74367  1.0000
  H   H4280     1.0  0.94721  0.57024  0.72984  1.0000
  H   H4281     1.0  0.81864  0.58407  0.65583  1.0000
  H   H4282     1.0  0.91524  0.77146  0.60338  1.0000
  C   C4291     1.0  0.79699  0.58568  0.61039  1.0000
  H   H4283     1.0  0.50039  0.61173  0.77296  1.0000
  C   C4292     1.0  0.59704  0.50504  0.61851  1.0000
  C   C4293     1.0  0.97869  0.90511  0.60753  1.0000
  C   C4294     1.0  0.97763  0.89812  0.63798  1.0000
  C   C4295     1.0  0.87533  0.53662  0.59430  1.0000
  C   C4296     1.0  0.77056  0.89279  0.59436  1.0000
  C   C4297     1.0  0.92039  0.50487  0.72843  1.0000
  H   H4284     1.0  0.79479  0.57269  0.61621  1.0000
  C   C4298     1.0  0.84358  0.89397  0.69360  1.0000
  H   H4285     1.0  0.52783  0.92655  0.74779  1.0000
  N   N360      1.0  0.88975  0.53784  0.60044  1.0000
  H   H4286     1.0  0.98670  0.63901  0.61823  1.0000
  S   S1440     1.0  0.50919  0.97240  0.61361  1.0000
  H   H4287     1.0  0.80872  0.58496  0.60016  1.0000
  S   S1441     1.0  0.85974  0.85004  0.58622  1.0000
  H   H4288     1.0  0.95215  0.59795  0.73030  1.0000
  C   C4299     1.0  0.89268  0.65007  0.59242  1.0000
  H   H4289     1.0  0.89209  0.86861  0.68749  1.0000
  C   C4300     1.0  0.94658  0.59688  0.72048  1.0000
  C   C4301     1.0  0.73853  0.61461  0.58833  1.0000
  C   C4302     1.0  0.80466  0.60879  0.64593  1.0000
  C   C4303     1.0  0.62004  0.95151  0.59623  1.0000
  C   C4304     1.0  0.78770  0.88431  0.59196  1.0000
  C   C4305     1.0  0.79129  0.89607  0.61359  1.0000
  H   H4290     1.0  0.64625  0.52292  0.61924  1.0000
  H   H4291     1.0  0.86584  0.90014  0.60872  1.0000
  C   C4306     1.0  0.83122  0.96156  0.63220  1.0000
  C   C4307     1.0  0.79819  0.88602  0.60152  1.0000
  H   H4292     1.0  0.65638  0.95717  0.59362  1.0000
  C   C4308     1.0  0.52402  0.93147  0.59203  1.0000
  H   H4293     1.0  0.86352  0.87491  0.68320  1.0000
  C   C4309     1.0  0.65132  0.52424  0.60578  1.0000
  C   C4310     1.0  0.89097  0.87835  0.63122  1.0000
  H   H4294     1.0  0.51073  0.93923  0.72559  1.0000
  C   C4311     1.0  0.98504  0.89573  0.65174  1.0000
  C   C4312     1.0  0.50997  0.97697  0.72621  1.0000
  C   C4313     1.0  0.83856  0.90447  0.70517  1.0000
  H   H4295     1.0  0.50455  0.68526  0.64862  1.0000
  H   H4296     1.0  0.58311  0.89299  0.61000  1.0000
  N   N361      1.0  0.79910  0.59360  0.62298  1.0000
  C   C4314     1.0  0.86416  0.66876  0.59636  1.0000
  C   C4315     1.0  0.80839  0.58414  0.63479  1.0000
  H   H4297     1.0  0.51144  0.97467  0.75201  1.0000
  C   C4316     1.0  0.88555  0.86554  0.61099  1.0000
  C   C4317     1.0  0.87366  0.62654  0.77188  1.0000
  S   S1442     1.0  0.94667  0.58171  0.77678  1.0000
  C   C4318     1.0  0.93111  0.59491  0.69601  1.0000
  H   H4298     1.0  0.92317  0.49876  0.77629  1.0000
  C   C4319     1.0  0.59045  0.93750  0.58624  1.0000
  H   H4299     1.0  0.92049  0.90917  0.76494  1.0000
  C   C4320     1.0  0.89921  0.62346  0.61191  1.0000
  C   C4321     1.0  0.50203  0.62817  0.65469  1.0000
  H   H4300     1.0  0.50650  0.66888  0.62302  1.0000
  H   H4301     1.0  0.58318  0.66790  0.64388  1.0000
  H   H4302     1.0  0.81160  0.87963  0.59948  1.0000
  C   C4322     1.0  0.88230  0.62642  0.62098  1.0000
  H   H4303     1.0  0.80732  0.61473  0.65461  1.0000
  C   C4323     1.0  0.79537  0.61839  0.63371  1.0000
  C   C4324     1.0  0.88953  0.64379  0.77854  1.0000
  H   H4304     1.0  0.92221  0.51271  0.61853  1.0000
  H   H4305     1.0  0.87509  0.92374  0.61324  1.0000
  C   C4325     1.0  0.61769  0.96873  0.58854  1.0000
  H   H4306     1.0  0.87836  0.76164  0.60212  1.0000
  S   S1443     1.0  0.73741  0.94491  0.59949  1.0000
  N   N362      1.0  0.91708  0.93216  0.74616  1.0000
  H   H4307     1.0  0.92784  0.74316  0.59619  1.0000
  C   C4326     1.0  0.65516  0.53970  0.59596  1.0000
  C   C4327     1.0  0.50552  0.92480  0.76813  1.0000
  C   C4328     1.0  0.86664  0.92622  0.60463  1.0000
  H   H4308     1.0  0.93399  0.91179  0.73547  1.0000
  H   H4309     1.0  0.94821  0.50554  0.78144  1.0000
  S   S1444     1.0  0.50737  0.97860  0.69411  1.0000
  H   H4310     1.0  0.63040  0.94247  0.59052  1.0000
  S   S1445     1.0  0.98538  0.59971  0.77550  1.0000
  C   C4329     1.0  0.58744  0.68846  0.60268  1.0000
  H   H4311     1.0  0.73476  0.61816  0.60046  1.0000
  C   C4330     1.0  0.58383  0.68614  0.62023  1.0000
  H   H4312     1.0  0.54261  0.72225  0.59476  1.0000
  H   H4313     1.0  0.78585  0.59300  0.60469  1.0000
  H   H4314     1.0  0.91537  0.62521  0.68183  1.0000
  Fe  Fe719     1.0  0.77844  0.98250  0.59145  1.0000
  C   C4331     1.0  0.91751  0.92312  0.76364  1.0000
  C   C4332     1.0  0.89484  0.87578  0.59766  1.0000
  H   H4315     1.0  0.51551  0.62678  0.65395  1.0000
  C   C4333     1.0  0.76407  0.90270  0.60654  1.0000
  H   H4316     1.0  0.88228  0.56469  0.59722  1.0000
  C   C4334     1.0  0.88359  0.76595  0.58883  1.0000
  Fe  Fe720     1.0  0.79515  0.94634  0.60538  1.0000
  H   H4317     1.0  0.79953  0.89742  0.62095  1.0000
  C   C4335     1.0  0.58643  0.66981  0.63019  1.0000
  C   C4336     1.0  0.85957  0.88277  0.69247  1.0000
  C   C4337     1.0  0.90252  0.50494  0.65519  1.0000
  H   H4318     1.0  0.85556  0.66614  0.58978  1.0000
  H   H4319     1.0  0.59370  0.48952  0.66088  1.0000
  H   H4320     1.0  0.57862  0.69696  0.62616  1.0000
  S   S1446     1.0  0.76904  0.96211  0.61273  1.0000
  N   N363      1.0  0.63832  0.56594  0.65419  1.0000
  C   C4338     1.0  0.62944  0.57298  0.66778  1.0000
  C   C4339     1.0  0.65348  0.57008  0.64492  1.0000
  C   C4340     1.0  0.63576  0.58448  0.67242  1.0000
  C   C4341     1.0  0.66016  0.58154  0.64921  1.0000
  C   C4342     1.0  0.65119  0.58881  0.66301  1.0000
  C   C4343     1.0  0.63091  0.55504  0.64855  1.0000
  H   H4321     1.0  0.61696  0.57045  0.67461  1.0000
  H   H4322     1.0  0.66019  0.56493  0.63380  1.0000
  H   H4323     1.0  0.62827  0.59064  0.68269  1.0000
  H   H4324     1.0  0.67181  0.58537  0.64142  1.0000
  H   H4325     1.0  0.65583  0.59834  0.66592  1.0000
  H   H4326     1.0  0.64105  0.54466  0.64380  1.0000
  H   H4327     1.0  0.62139  0.54919  0.65894  1.0000
  H   H4328     1.0  0.62456  0.56264  0.63801  1.0000
  H   H4329     1.0  0.85651  0.67420  0.60744  1.0000
  C   C4344     1.0  0.68823  0.97413  0.59161  1.0000
  H   H4330     1.0  0.98770  0.90080  0.59632  1.0000
  H   H4331     1.0  0.90640  0.89708  0.62043  1.0000
  H   H4332     1.0  0.87981  0.85669  0.60840  1.0000
  H   H4333     1.0  0.89878  0.96967  0.72409  1.0000
  C   C4345     1.0  0.88745  0.87118  0.70045  1.0000
  H   H4334     1.0  0.81411  0.57088  0.63490  1.0000
  H   H4335     1.0  0.92816  0.66351  0.61490  1.0000
  H   H4336     1.0  0.58267  0.98377  0.61693  1.0000
  H   H4337     1.0  0.81060  0.96236  0.62084  1.0000
  C   C4346     1.0  0.50102  0.62303  0.74662  1.0000
  H   H4338     1.0  0.61074  0.89617  0.58967  1.0000
  H   H4339     1.0  0.75698  0.92538  0.62500  1.0000
  C   C4347     1.0  0.86135  0.91289  0.60204  1.0000
  H   H4340     1.0  0.55281  0.95324  0.59359  1.0000
  C   C4348     1.0  0.65985  0.96763  0.59681  1.0000
  H   H4341     1.0  0.93308  0.92683  0.70595  1.0000
  H   H4342     1.0  0.75071  0.90922  0.60836  1.0000
  H   H4343     1.0  0.86424  0.53505  0.60510  1.0000
  C   C4349     1.0  0.59058  0.49346  0.61424  1.0000
  H   H4344     1.0  0.99512  0.69351  0.59181  1.0000
  H   H4345     1.0  0.60508  0.62916  0.77473  1.0000
  H   H4346     1.0  0.88826  0.53380  0.71248  1.0000
  H   H4347     1.0  0.56807  0.96194  0.59857  1.0000
  H   H4348     1.0  0.61807  0.63863  0.59954  1.0000
  C   C4350     1.0  0.84962  0.94568  0.58554  1.0000
  H   H4349     1.0  0.50564  0.62501  0.62924  1.0000
  C   C4351     1.0  0.60925  0.51312  0.60655  1.0000
  H   H4350     1.0  0.87865  0.52554  0.58834  1.0000
  H   H4351     1.0  0.51051  0.66242  0.65376  1.0000
  H   H4352     1.0  0.90443  0.56669  0.61073  1.0000
  C   C4352     1.0  0.60075  0.90722  0.59184  1.0000
  C   C4353     1.0  0.59654  0.49004  0.59801  1.0000
  H   H4353     1.0  0.97377  0.91902  0.60412  1.0000
  C   C4354     1.0  0.60481  0.64368  0.59742  1.0000
  N   N364      1.0  0.98707  0.90111  0.62179  1.0000
  N   N365      1.0  0.67578  0.97150  0.58541  1.0000
  H   H4354     1.0  0.66096  0.96357  0.61024  1.0000
  C   C4355     1.0  0.86057  0.94274  0.59648  1.0000
  H   H4355     1.0  0.62206  0.60148  0.77460  1.0000
  S   S1447     1.0  0.64243  0.60513  0.59175  1.0000
  Fe  Fe721     1.0  0.53146  0.95699  0.78195  1.0000
  H   H4356     1.0  0.91756  0.63323  0.59029  1.0000
  H   H4357     1.0  0.99751  0.94364  0.63231  1.0000
  C   C4356     1.0  0.71527  0.93635  0.58607  1.0000
  H   H4358     1.0  0.59853  0.65628  0.78369  1.0000
  H   H4359     1.0  0.51314  0.91941  0.77769  1.0000
  H   H4360     1.0  0.76236  0.89177  0.58679  1.0000
  C   C4357     1.0  0.92926  0.75460  0.58660  1.0000
  C   C4358     1.0  0.61077  0.62995  0.78459  1.0000
  C   C4359     1.0  0.49958  0.67348  0.65432  1.0000
  H   H4361     1.0  0.71358  0.97923  0.58575  1.0000
  S   S1448     1.0  0.76867  0.62368  0.58505  1.0000
  C   C4360     1.0  0.51056  0.91745  0.86314  1.0000
  C   C4361     1.0  0.82345  0.51590  0.82918  1.0000
  Fe  Fe722     1.0  0.89539  0.80426  0.90630  1.0000
  S   S1449     1.0  0.89505  0.82352  0.92053  1.0000
  S   S1450     1.0  0.88695  0.78022  0.92163  1.0000
  Fe  Fe723     1.0  0.90967  0.82539  0.87242  1.0000
  S   S1451     1.0  0.91093  0.84575  0.88404  1.0000
  Fe  Fe724     1.0  0.92108  0.82469  0.90383  1.0000
  S   S1452     1.0  0.94361  0.82571  0.91315  1.0000
  Fe  Fe725     1.0  0.88489  0.84266  0.89919  1.0000
  S   S1453     1.0  0.86502  0.86696  0.89845  1.0000
  S   S1454     1.0  0.92216  0.80420  0.89101  1.0000
  S   S1455     1.0  0.88295  0.82337  0.88636  1.0000
  S   S1456     1.0  0.83655  0.90666  0.84520  1.0000
  S   S1457     1.0  0.87455  0.92760  0.83517  1.0000
  Fe  Fe726     1.0  0.75905  0.91965  0.95988  1.0000
  S   S1458     1.0  0.75153  0.89497  0.96472  1.0000
  H   H4362     1.0  0.69529  0.59162  0.97424  1.0000
  Fe  Fe727     1.0  0.76735  0.92347  0.92167  1.0000
  S   S1459     1.0  0.76055  0.89886  0.92330  1.0000
  S   S1460     1.0  0.77654  0.94149  0.89770  1.0000
  Fe  Fe728     1.0  0.73795  0.90728  0.94334  1.0000
  S   S1461     1.0  0.71035  0.90568  0.94773  1.0000
  Fe  Fe729     1.0  0.77477  0.88908  0.94447  1.0000
  S   S1462     1.0  0.79385  0.86461  0.94952  1.0000
  S   S1463     1.0  0.74367  0.93266  0.94009  1.0000
  S   S1464     1.0  0.78335  0.91304  0.94119  1.0000
  Fe  Fe730     1.0  0.95777  0.59789  0.78648  1.0000
  C   C4362     1.0  0.68946  0.60474  0.97460  1.0000
  C   C4363     1.0  0.99027  0.83049  0.86977  1.0000
  H   H4363     1.0  0.95247  0.87802  0.82445  1.0000
  Fe  Fe731     1.0  0.52255  0.93578  0.81781  1.0000
  C   C4364     1.0  0.80809  0.90885  0.97318  1.0000
  Fe  Fe732     1.0  0.53349  0.96874  0.81249  1.0000
  H   H4364     1.0  0.84508  0.60332  0.79764  1.0000
  S   S1465     1.0  0.54612  0.94511  0.80264  1.0000
  Fe  Fe733     1.0  0.64686  0.93835  0.88992  1.0000
  S   S1466     1.0  0.62992  0.94782  0.91262  1.0000
  S   S1467     1.0  0.67566  0.93207  0.88462  1.0000
  Fe  Fe734     1.0  0.61662  0.94056  0.87469  1.0000
  S   S1468     1.0  0.59720  0.95036  0.89602  1.0000
  S   S1469     1.0  0.61010  0.93415  0.85332  1.0000
  Fe  Fe735     1.0  0.61554  0.96657  0.89387  1.0000
  H   H4365     1.0  0.74691  0.64031  0.89409  1.0000
  Fe  Fe736     1.0  0.61342  0.93061  0.91247  1.0000
  S   S1470     1.0  0.60236  0.91250  0.93541  1.0000
  S   S1471     1.0  0.63372  0.95829  0.87110  1.0000
  S   S1472     1.0  0.63170  0.91968  0.89121  1.0000
  Fe  Fe737     1.0  0.53044  0.83037  0.93323  1.0000
  S   S1473     1.0  0.51871  0.81054  0.92983  1.0000
  Fe  Fe738     1.0  0.55877  0.84955  0.92646  1.0000
  S   S1474     1.0  0.54160  0.87003  0.93919  1.0000
  S   S1475     1.0  0.58479  0.85446  0.91288  1.0000
  Fe  Fe739     1.0  0.53210  0.84875  0.95894  1.0000
  Fe  Fe740     1.0  0.52264  0.86889  0.92528  1.0000
  S   S1476     1.0  0.55078  0.82800  0.94721  1.0000
  S   S1477     1.0  0.54049  0.84969  0.91118  1.0000
  S   S1478     1.0  0.53650  0.71868  0.90563  1.0000
  H   H4366     1.0  0.58910  0.53153  0.85998  1.0000
  C   C4365     1.0  0.86997  0.62810  0.80045  1.0000
  Fe  Fe741     1.0  0.56317  0.58065  0.84344  1.0000
  S   S1479     1.0  0.58853  0.58066  0.82551  1.0000
  S   S1480     1.0  0.55621  0.55555  0.85697  1.0000
  Fe  Fe742     1.0  0.55617  0.61841  0.84099  1.0000
  S   S1481     1.0  0.58091  0.62167  0.82259  1.0000
  S   S1482     1.0  0.53698  0.63923  0.85216  1.0000
  C   C4366     1.0  0.81273  0.89217  0.97106  1.0000
  Fe  Fe743     1.0  0.59230  0.59809  0.83940  1.0000
  S   S1483     1.0  0.61807  0.59263  0.84582  1.0000
  S   S1484     1.0  0.54902  0.60283  0.82706  1.0000
  S   S1485     1.0  0.56808  0.59611  0.85882  1.0000
  Fe  Fe744     1.0  0.54453  0.67979  0.94240  1.0000
  S   S1486     1.0  0.56561  0.69133  0.92454  1.0000
  S   S1487     1.0  0.54931  0.65823  0.96435  1.0000
  Fe  Fe745     1.0  0.54795  0.71623  0.92774  1.0000
  C   C4367     1.0  0.59429  0.52055  0.85428  1.0000
  Fe  Fe746     1.0  0.55209  0.69239  0.90445  1.0000
  S   S1488     1.0  0.56807  0.68380  0.88076  1.0000
  S   S1489     1.0  0.53224  0.67877  0.92224  1.0000
  Fe  Fe747     1.0  0.64957  0.62992  0.89793  1.0000
  S   S1490     1.0  0.64944  0.60227  0.90685  1.0000
  S   S1491     1.0  0.63698  0.64439  0.87620  1.0000
  Fe  Fe748     1.0  0.66258  0.63087  0.92823  1.0000
  S   S1492     1.0  0.66278  0.60343  0.93930  1.0000
  S   S1493     1.0  0.66893  0.64612  0.94301  1.0000
  Fe  Fe749     1.0  0.67483  0.60007  0.91280  1.0000
  S   S1494     1.0  0.69793  0.57863  0.90921  1.0000
  Fe  Fe750     1.0  0.63759  0.60900  0.93204  1.0000
  S   S1495     1.0  0.61488  0.60007  0.95018  1.0000
  S   S1496     1.0  0.67593  0.62746  0.90196  1.0000
  S   S1497     1.0  0.63639  0.63672  0.92293  1.0000
  Fe  Fe751     1.0  0.79100  0.58909  0.87503  1.0000
  S   S1498     1.0  0.79702  0.57687  0.90056  1.0000
  S   S1499     1.0  0.76549  0.60529  0.87088  1.0000
  Fe  Fe752     1.0  0.82754  0.57812  0.85623  1.0000
  S   S1500     1.0  0.83682  0.56540  0.88007  1.0000
  S   S1501     1.0  0.84352  0.57860  0.82982  1.0000
  Fe  Fe753     1.0  0.81279  0.55543  0.88826  1.0000
  S   S1502     1.0  0.81559  0.52773  0.89973  1.0000
  Fe  Fe754     1.0  0.82040  0.58804  0.89013  1.0000
  S   S1503     1.0  0.82972  0.59833  0.90722  1.0000
  S   S1504     1.0  0.80454  0.56657  0.86362  1.0000
  S   S1505     1.0  0.81334  0.60189  0.86540  1.0000
  H   H4367     1.0  0.87313  0.63270  0.80984  1.0000
  S   S1506     1.0  0.94355  0.59144  0.81357  1.0000
  S   S1507     1.0  0.90412  0.63235  0.82044  1.0000
  C   C4368     1.0  0.80019  0.50232  0.90159  1.0000
  C   C4369     1.0  0.66942  0.97478  0.88683  1.0000
  S   S1508     1.0  0.92322  0.55287  0.81855  1.0000
  H   H4368     1.0  0.93859  0.68053  0.87043  1.0000
  H   H4369     1.0  0.84173  0.52349  0.80639  1.0000
  S   S1509     1.0  0.84513  0.95039  0.81351  1.0000
  Fe  Fe755     1.0  0.88236  0.70104  0.89565  1.0000
  S   S1510     1.0  0.89995  0.68123  0.91063  1.0000
  S   S1511     1.0  0.88873  0.72616  0.88109  1.0000
  Fe  Fe756     1.0  0.85795  0.67764  0.90122  1.0000
  S   S1512     1.0  0.87322  0.65635  0.91728  1.0000
  S   S1513     1.0  0.83577  0.67465  0.89251  1.0000
  Fe  Fe757     1.0  0.87543  0.67660  0.92884  1.0000
  S   S1514     1.0  0.87135  0.67287  0.95713  1.0000
  Fe  Fe758     1.0  0.89593  0.66309  0.89756  1.0000
  S   S1515     1.0  0.91691  0.64281  0.88708  1.0000
  S   S1516     1.0  0.85799  0.69749  0.91455  1.0000
  S   S1517     1.0  0.88066  0.68336  0.88080  1.0000
  H   H4370     1.0  0.63550  0.60569  0.81160  1.0000
  H   H4371     1.0  0.60077  0.89785  0.97226  1.0000
  C   C4370     1.0  0.88261  0.68413  0.96345  1.0000
  C   C4371     1.0  0.89205  0.69518  0.95148  1.0000
  C   C4372     1.0  0.90096  0.70413  0.95666  1.0000
  C   C4373     1.0  0.90014  0.70240  0.97386  1.0000
  H   H4372     1.0  0.59425  0.51097  0.80767  1.0000
  H   H4373     1.0  0.50886  0.69836  0.89782  1.0000
  H   H4374     1.0  0.89243  0.69700  0.93822  1.0000
  H   H4375     1.0  0.90840  0.71249  0.94726  1.0000
  H   H4376     1.0  0.62595  0.98154  0.91870  1.0000
  C   C4374     1.0  0.86890  0.62650  0.98372  1.0000
  Fe  Fe759     1.0  0.93087  0.57717  0.80327  1.0000
  C   C4375     1.0  0.53345  0.87703  0.98292  1.0000
  S   S1518     1.0  0.51117  0.84968  0.94646  1.0000
  H   H4377     1.0  0.80936  0.88887  0.96095  1.0000
  C   C4376     1.0  0.90778  0.63401  0.83940  1.0000
  C   C4377     1.0  0.89449  0.64290  0.85006  1.0000
  C   C4378     1.0  0.89704  0.64493  0.86509  1.0000
  C   C4379     1.0  0.91300  0.63837  0.86942  1.0000
  C   C4380     1.0  0.92618  0.62899  0.85903  1.0000
  C   C4381     1.0  0.92358  0.62679  0.84401  1.0000
  H   H4378     1.0  0.88216  0.64828  0.84669  1.0000
  H   H4379     1.0  0.88661  0.65161  0.87330  1.0000
  H   H4380     1.0  0.93853  0.62378  0.86239  1.0000
  H   H4381     1.0  0.93388  0.61984  0.83585  1.0000
  C   C4382     1.0  0.82981  0.61994  0.90349  1.0000
  C   C4383     1.0  0.82478  0.63156  0.88938  1.0000
  C   C4384     1.0  0.82633  0.64846  0.88622  1.0000
  C   C4385     1.0  0.83309  0.65370  0.89703  1.0000
  C   C4386     1.0  0.83771  0.64212  0.91132  1.0000
  C   C4387     1.0  0.83600  0.62533  0.91457  1.0000
  H   H4382     1.0  0.81989  0.62755  0.88082  1.0000
  H   H4383     1.0  0.82259  0.65744  0.87523  1.0000
  H   H4384     1.0  0.84233  0.64617  0.92003  1.0000
  H   H4385     1.0  0.83974  0.61642  0.92560  1.0000
  C   C4388     1.0  0.86528  0.56851  0.82695  1.0000
  C   C4389     1.0  0.87538  0.57043  0.81055  1.0000
  C   C4390     1.0  0.89316  0.56463  0.80789  1.0000
  C   C4391     1.0  0.90090  0.55659  0.82161  1.0000
  C   C4392     1.0  0.89072  0.55333  0.83791  1.0000
  C   C4393     1.0  0.87288  0.55942  0.84061  1.0000
  C   C4394     1.0  0.71893  0.54327  0.88548  1.0000
  C   C4395     1.0  0.72544  0.53469  0.87227  1.0000
  H   H4386     1.0  0.89668  0.54707  0.84857  1.0000
  H   H4387     1.0  0.86519  0.55759  0.85329  1.0000
  S   S1519     1.0  0.55967  0.73453  0.93388  1.0000
  C   C4396     1.0  0.79833  0.51979  0.89937  1.0000
  C   C4397     1.0  0.78297  0.53075  0.89631  1.0000
  C   C4398     1.0  0.76935  0.52419  0.89580  1.0000
  H   H4388     1.0  0.78151  0.54426  0.89458  1.0000
  H   H4389     1.0  0.75739  0.53267  0.89366  1.0000
  C   C4399     1.0  0.71691  0.58536  0.89773  1.0000
  C   C4400     1.0  0.71623  0.60080  0.88604  1.0000
  C   C4401     1.0  0.73130  0.60653  0.87757  1.0000
  C   C4402     1.0  0.74717  0.59683  0.88065  1.0000
  C   C4403     1.0  0.74801  0.58106  0.89188  1.0000
  C   C4404     1.0  0.73286  0.57531  0.90039  1.0000
  H   H4390     1.0  0.70412  0.60826  0.88332  1.0000
  H   H4391     1.0  0.73062  0.61862  0.86870  1.0000
  H   H4392     1.0  0.76025  0.57346  0.89423  1.0000
  H   H4393     1.0  0.73350  0.56324  0.90929  1.0000
  C   C4405     1.0  0.67696  0.63284  0.96048  1.0000
  C   C4406     1.0  0.68522  0.61607  0.96000  1.0000
  H   H4394     1.0  0.68828  0.61177  0.94837  1.0000
  C   C4407     1.0  0.56748  0.64218  0.95989  1.0000
  C   C4408     1.0  0.57911  0.64397  0.94429  1.0000
  C   C4409     1.0  0.59374  0.63112  0.94124  1.0000
  C   C4410     1.0  0.59661  0.61631  0.95363  1.0000
  C   C4411     1.0  0.58480  0.61442  0.96909  1.0000
  C   C4412     1.0  0.57038  0.62739  0.97228  1.0000
  H   H4395     1.0  0.57688  0.65522  0.93458  1.0000
  H   H4396     1.0  0.60261  0.63255  0.92920  1.0000
  C   C4413     1.0  0.71348  0.49277  0.89305  1.0000
  C   C4414     1.0  0.54563  0.65193  0.85969  1.0000
  C   C4415     1.0  0.53510  0.66122  0.87164  1.0000
  C   C4416     1.0  0.54179  0.67132  0.87793  1.0000
  C   C4417     1.0  0.55901  0.67231  0.87217  1.0000
  C   C4418     1.0  0.56945  0.66329  0.85996  1.0000
  C   C4419     1.0  0.56286  0.65294  0.85391  1.0000
  H   H4397     1.0  0.52179  0.66044  0.87621  1.0000
  H   H4398     1.0  0.53360  0.67831  0.88722  1.0000
  H   H4399     1.0  0.58271  0.66418  0.85530  1.0000
  H   H4400     1.0  0.57104  0.64595  0.84460  1.0000
  C   C4420     1.0  0.62317  0.60761  0.85356  1.0000
  C   C4421     1.0  0.61199  0.62321  0.85502  1.0000
  C   C4422     1.0  0.61655  0.63477  0.86143  1.0000
  C   C4423     1.0  0.63201  0.63056  0.86682  1.0000
  C   C4424     1.0  0.64317  0.61503  0.86523  1.0000
  C   C4425     1.0  0.63883  0.60367  0.85847  1.0000
  H   H4401     1.0  0.59984  0.62632  0.85129  1.0000
  H   H4402     1.0  0.60789  0.64674  0.86276  1.0000
  H   H4403     1.0  0.65527  0.61183  0.86906  1.0000
  H   H4404     1.0  0.64756  0.59166  0.85727  1.0000
  C   C4426     1.0  0.53088  0.53105  0.83093  1.0000
  C   C4427     1.0  0.53806  0.52156  0.84471  1.0000
  C   C4428     1.0  0.54545  0.52933  0.85285  1.0000
  C   C4429     1.0  0.54622  0.54645  0.84689  1.0000
  C   C4430     1.0  0.53935  0.55586  0.83289  1.0000
  C   C4431     1.0  0.53145  0.54822  0.82509  1.0000
  C   C4432     1.0  0.62918  0.62408  0.97293  1.0000
  H   H4405     1.0  0.55074  0.52201  0.86370  1.0000
  H   H4406     1.0  0.53997  0.56905  0.82818  1.0000
  H   H4407     1.0  0.80627  0.94231  0.91058  1.0000
  C   C4433     1.0  0.53038  0.78952  0.93084  1.0000
  C   C4434     1.0  0.52287  0.77753  0.92846  1.0000
  C   C4435     1.0  0.53178  0.76062  0.92929  1.0000
  C   C4436     1.0  0.54823  0.75564  0.93257  1.0000
  C   C4437     1.0  0.54679  0.78452  0.93424  1.0000
  S   S1520     1.0  0.90941  0.59907  0.79761  1.0000
  H   H4408     1.0  0.52591  0.75146  0.92738  1.0000
  C   C4438     1.0  0.59582  0.89725  0.92928  1.0000
  C   C4439     1.0  0.59717  0.89799  0.91216  1.0000
  C   C4440     1.0  0.59380  0.88482  0.90718  1.0000
  C   C4441     1.0  0.58838  0.87116  0.91932  1.0000
  C   C4442     1.0  0.58616  0.87081  0.93650  1.0000
  C   C4443     1.0  0.59008  0.88373  0.94146  1.0000
  H   H4409     1.0  0.60090  0.90865  0.90269  1.0000
  H   H4410     1.0  0.59527  0.88531  0.89389  1.0000
  H   H4411     1.0  0.58183  0.86033  0.94594  1.0000
  H   H4412     1.0  0.58887  0.88306  0.95472  1.0000
  C   C4444     1.0  0.59185  0.94700  0.84611  1.0000
  C   C4445     1.0  0.58170  0.96046  0.85353  1.0000
  C   C4446     1.0  0.56763  0.97097  0.84696  1.0000
  C   C4447     1.0  0.56355  0.96793  0.83311  1.0000
  C   C4448     1.0  0.57357  0.95434  0.82590  1.0000
  C   C4449     1.0  0.58766  0.94390  0.83239  1.0000
  H   H4413     1.0  0.58483  0.96294  0.86413  1.0000
  H   H4414     1.0  0.89898  0.63959  0.78676  1.0000
  H   H4415     1.0  0.57088  0.95216  0.81495  1.0000
  H   H4416     1.0  0.59554  0.93359  0.82652  1.0000
  H   H4417     1.0  0.55670  0.92392  0.97813  1.0000
  H   H4418     1.0  0.89354  0.51061  0.82372  1.0000
  H   H4419     1.0  0.88458  0.63340  0.95911  1.0000
  H   H4420     1.0  0.58861  0.49104  0.81948  1.0000
  C   C4450     1.0  0.70796  0.95870  0.90617  1.0000
  H   H4421     1.0  0.90094  0.56686  0.79523  1.0000
  H   H4422     1.0  0.92685  0.79956  0.93552  1.0000
  C   C4451     1.0  0.89732  0.71663  0.84265  1.0000
  C   C4452     1.0  0.93324  0.67024  0.85211  1.0000
  H   H4423     1.0  0.53080  0.93854  0.86931  1.0000
  H   H4424     1.0  0.84654  0.70541  0.96241  1.0000
  C   C4453     1.0  0.84651  0.70921  0.97375  1.0000
  H   H4425     1.0  0.93344  0.86773  0.88644  1.0000
  C   C4454     1.0  0.50674  0.91383  0.88091  1.0000
  C   C4455     1.0  0.70886  0.51859  0.90332  1.0000
  H   H4426     1.0  0.71190  0.60854  0.92331  1.0000
  H   H4427     1.0  0.90593  0.64960  0.95373  1.0000
  C   C4456     1.0  0.96014  0.86632  0.83105  1.0000
  C   C4457     1.0  0.70103  0.91205  0.93001  1.0000
  C   C4458     1.0  0.71094  0.91559  0.91365  1.0000
  C   C4459     1.0  0.70305  0.92146  0.89975  1.0000
  C   C4460     1.0  0.68524  0.92400  0.90218  1.0000
  C   C4461     1.0  0.67535  0.92029  0.91852  1.0000
  C   C4462     1.0  0.68326  0.91420  0.93240  1.0000
  H   H4428     1.0  0.72466  0.91392  0.91172  1.0000
  H   H4429     1.0  0.71076  0.92426  0.88711  1.0000
  H   H4430     1.0  0.66161  0.92215  0.92049  1.0000
  H   H4431     1.0  0.67558  0.91146  0.94505  1.0000
  C   C4463     1.0  0.79272  0.93174  0.88280  1.0000
  C   C4464     1.0  0.79769  0.91411  0.88539  1.0000
  C   C4465     1.0  0.81101  0.90653  0.87365  1.0000
  C   C4466     1.0  0.81964  0.91654  0.85945  1.0000
  C   C4467     1.0  0.81481  0.93417  0.85695  1.0000
  C   C4468     1.0  0.80121  0.94175  0.86849  1.0000
  H   H4432     1.0  0.79113  0.90632  0.89632  1.0000
  H   H4433     1.0  0.81461  0.89289  0.87562  1.0000
  H   H4434     1.0  0.82136  0.94198  0.84602  1.0000
  H   H4435     1.0  0.79739  0.95539  0.86641  1.0000
  C   C4469     1.0  0.88742  0.76527  0.91028  1.0000
  C   C4470     1.0  0.89254  0.76849  0.89267  1.0000
  C   C4471     1.0  0.89288  0.75637  0.88386  1.0000
  C   C4472     1.0  0.88822  0.74097  0.89261  1.0000
  C   C4473     1.0  0.88324  0.73767  0.91026  1.0000
  C   C4474     1.0  0.88280  0.74984  0.91906  1.0000
  H   H4436     1.0  0.89618  0.78033  0.88582  1.0000
  H   H4437     1.0  0.89676  0.75897  0.87022  1.0000
  H   H4438     1.0  0.87963  0.72582  0.91708  1.0000
  H   H4439     1.0  0.87880  0.74732  0.93268  1.0000
  C   C4475     1.0  0.96182  0.82678  0.89664  1.0000
  C   C4476     1.0  0.97695  0.82877  0.89951  1.0000
  H   H4440     1.0  0.57940  0.53028  0.83522  1.0000
  C   C4477     1.0  0.58740  0.50444  0.81993  1.0000
  C   C4478     1.0  0.97532  0.82806  0.86703  1.0000
  C   C4479     1.0  0.96112  0.82625  0.88040  1.0000
  H   H4441     1.0  0.97754  0.82915  0.91208  1.0000
  H   H4442     1.0  0.88782  0.98230  0.80421  1.0000
  H   H4443     1.0  0.97457  0.82789  0.85445  1.0000
  H   H4444     1.0  0.94954  0.82474  0.87804  1.0000
  C   C4480     1.0  0.84538  0.86584  0.91271  1.0000
  C   C4481     1.0  0.83120  0.87901  0.91022  1.0000
  C   C4482     1.0  0.81534  0.87860  0.92146  1.0000
  C   C4483     1.0  0.81358  0.86493  0.93517  1.0000
  C   C4484     1.0  0.82769  0.85156  0.93751  1.0000
  C   C4485     1.0  0.84362  0.85200  0.92626  1.0000
  H   H4445     1.0  0.83239  0.88937  0.89938  1.0000
  H   H4446     1.0  0.80442  0.88875  0.91940  1.0000
  H   H4447     1.0  0.82631  0.84091  0.94806  1.0000
  H   H4448     1.0  0.85451  0.84171  0.92814  1.0000
  C   C4486     1.0  0.92754  0.85436  0.81766  1.0000
  C   C4487     1.0  0.92746  0.87127  0.80930  1.0000
  H   H4449     1.0  0.93567  0.84424  0.81166  1.0000
  H   H4450     1.0  0.81208  0.49383  0.90396  1.0000
  N   N366      1.0  0.81705  0.51656  0.84585  1.0000
  H   H4451     1.0  0.55042  0.62861  0.78808  1.0000
  H   H4452     1.0  0.94200  0.65816  0.85497  1.0000
  C   C4488     1.0  0.60628  0.50702  0.86099  1.0000
  H   H4453     1.0  0.54514  0.68929  0.97617  1.0000
  H   H4454     1.0  0.97335  0.86393  0.82325  1.0000
  H   H4455     1.0  0.93390  0.86614  0.85731  1.0000
  H   H4456     1.0  0.55988  0.98143  0.85265  1.0000
  H   H4457     1.0  0.52586  0.55559  0.81444  1.0000
  N   N367      1.0  0.62114  0.61601  0.79226  1.0000
  C   C4489     1.0  0.91148  0.68832  0.83740  1.0000
  H   H4458     1.0  0.95176  0.52825  0.80035  1.0000
  C   C4490     1.0  0.77127  0.50671  0.89789  1.0000
  H   H4459     1.0  0.62410  0.62733  0.96162  1.0000
  H   H4460     1.0  0.79312  0.51572  0.86316  1.0000
  C   C4491     1.0  0.61283  0.49305  0.85346  1.0000
  H   H4461     1.0  0.51468  0.79476  0.96613  1.0000
  H   H4462     1.0  0.60233  0.98316  0.83418  1.0000
  C   C4492     1.0  0.82334  0.52547  0.85325  1.0000
  H   H4463     1.0  0.57059  0.90699  0.96894  1.0000
  H   H4464     1.0  0.62482  0.59260  0.89390  1.0000
  C   C4493     1.0  0.69752  0.96562  0.89436  1.0000
  H   H4465     1.0  0.94868  0.51577  0.82153  1.0000
  N   N368      1.0  0.68015  0.96719  0.89935  1.0000
  H   H4466     1.0  0.67589  0.97087  0.87464  1.0000
  C   C4494     1.0  0.50323  0.66638  0.96589  1.0000
  S   S1521     1.0  0.52066  0.98164  0.79053  1.0000
  C   C4495     1.0  0.73820  0.59916  0.92566  1.0000
  H   H4467     1.0  0.89808  0.89076  0.83884  1.0000
  H   H4468     1.0  0.50114  0.63686  0.86245  1.0000
  H   H4469     1.0  0.98614  0.87014  0.84183  1.0000
  C   C4496     1.0  0.62431  0.63208  0.81043  1.0000
  S   S1522     1.0  0.52760  0.70455  0.94711  1.0000
  C   C4497     1.0  0.88294  0.63246  0.97255  1.0000
  S   S1523     1.0  0.91802  0.82920  0.84419  1.0000
  H   H4470     1.0  0.90144  0.72732  0.84467  1.0000
  Fe  Fe760     1.0  0.85329  0.92334  0.82638  1.0000
  H   H4471     1.0  0.70577  0.54174  0.91151  1.0000
  H   H4472     1.0  0.53068  0.87799  0.85685  1.0000
  C   C4498     1.0  0.91124  0.77505  0.97295  1.0000
  H   H4473     1.0  0.96182  0.50590  0.80463  1.0000
  S   S1524     1.0  0.91700  0.90550  0.80619  1.0000
  H   H4474     1.0  0.83546  0.97098  0.86738  1.0000
  H   H4475     1.0  0.56659  0.74343  0.98032  1.0000
  C   C4499     1.0  0.58864  0.51967  0.84041  1.0000
  H   H4476     1.0  0.81869  0.50862  0.82332  1.0000
  H   H4477     1.0  0.78375  0.61197  0.91189  1.0000
  C   C4500     1.0  0.95960  0.87040  0.88034  1.0000
  H   H4478     1.0  0.71740  0.63524  0.90337  1.0000
  Fe  Fe761     1.0  0.89084  0.92241  0.81042  1.0000
  H   H4479     1.0  0.72178  0.95703  0.90214  1.0000
  S   S1525     1.0  0.50897  0.94540  0.79634  1.0000
  H   H4480     1.0  0.52363  0.87165  0.88801  1.0000
  H   H4481     1.0  0.61281  0.58228  0.88690  1.0000
  H   H4482     1.0  0.88492  0.71536  0.85165  1.0000
  H   H4483     1.0  0.79822  0.50236  0.84831  1.0000
  H   H4484     1.0  0.55267  0.79370  0.93607  1.0000
  H   H4485     1.0  0.91884  0.51748  0.82835  1.0000
  H   H4486     1.0  0.95456  0.85537  0.83206  1.0000
  H   H4487     1.0  0.61077  0.65815  0.80689  1.0000
  H   H4488     1.0  0.53749  0.50835  0.84939  1.0000
  C   C4501     1.0  0.72779  0.62610  0.90842  1.0000
  H   H4489     1.0  0.57349  0.51038  0.82173  1.0000
  C   C4502     1.0  0.97436  0.87011  0.85141  1.0000
  C   C4503     1.0  0.94489  0.86873  0.87657  1.0000
  H   H4490     1.0  0.70050  0.49109  0.90033  1.0000
  N   N369      1.0  0.59433  0.50548  0.83378  1.0000
  C   C4504     1.0  0.74447  0.62891  0.90328  1.0000
  S   S1526     1.0  0.86188  0.97533  0.83489  1.0000
  H   H4491     1.0  0.86958  0.57691  0.79985  1.0000
  H   H4492     1.0  0.73227  0.54074  0.86019  1.0000
  H   H4493     1.0  0.91545  0.75026  0.92995  1.0000
  C   C4505     1.0  0.80377  0.50730  0.85612  1.0000
  H   H4494     1.0  0.58761  0.64355  0.90452  1.0000
  H   H4495     1.0  0.93553  0.87414  0.79686  1.0000
  H   H4496     1.0  0.70842  0.94768  0.93241  1.0000
  H   H4497     1.0  0.51592  0.65979  0.96064  1.0000
  N   N370      1.0  0.87926  0.60545  0.87449  1.0000
  C   C4506     1.0  0.86630  0.60370  0.86843  1.0000
  C   C4507     1.0  0.89598  0.60045  0.86668  1.0000
  C   C4508     1.0  0.86989  0.59723  0.85390  1.0000
  C   C4509     1.0  0.90003  0.59402  0.85207  1.0000
  C   C4510     1.0  0.88688  0.59261  0.84556  1.0000
  C   C4511     1.0  0.87503  0.61278  0.88942  1.0000
  H   H4498     1.0  0.85308  0.60733  0.87484  1.0000
  H   H4499     1.0  0.90629  0.60178  0.87149  1.0000
  H   H4500     1.0  0.85958  0.59576  0.84918  1.0000
  H   H4501     1.0  0.91328  0.59043  0.84566  1.0000
  H   H4502     1.0  0.88989  0.58791  0.83409  1.0000
  H   H4503     1.0  0.86682  0.62569  0.88697  1.0000
  H   H4504     1.0  0.86801  0.60473  0.90044  1.0000
  H   H4505     1.0  0.88661  0.61403  0.89278  1.0000
  N   N371      1.0  0.55096  0.91684  0.86701  1.0000
  C   C4512     1.0  0.54999  0.90990  0.88386  1.0000
  C   C4513     1.0  0.55903  0.90714  0.85526  1.0000
  C   C4514     1.0  0.55706  0.89278  0.88936  1.0000
  C   C4515     1.0  0.56619  0.88995  0.86032  1.0000
  C   C4516     1.0  0.56520  0.88277  0.87750  1.0000
  C   C4517     1.0  0.54386  0.93493  0.86161  1.0000
  H   H4506     1.0  0.54356  0.91756  0.89319  1.0000
  H   H4507     1.0  0.55971  0.91260  0.84188  1.0000
  H   H4508     1.0  0.55622  0.88728  0.90273  1.0000
  H   H4509     1.0  0.57233  0.88226  0.85099  1.0000
  H   H4510     1.0  0.57069  0.86945  0.88167  1.0000
  H   H4511     1.0  0.50259  0.54503  0.86280  1.0000
  S   S1527     1.0  0.51080  0.95857  0.82910  1.0000
  H   H4512     1.0  0.61026  0.50718  0.87218  1.0000
  S   S1528     1.0  0.51998  0.52202  0.82175  1.0000
  Fe  Fe762     1.0  0.92308  0.61382  0.80588  1.0000
  S   S1529     1.0  0.87025  0.91567  0.80274  1.0000
  H   H4513     1.0  0.51015  0.78133  0.92589  1.0000
  H   H4514     1.0  0.55065  0.74499  0.96906  1.0000
  C   C4518     1.0  0.83645  0.52436  0.81949  1.0000
  H   H4515     1.0  0.90172  0.74366  0.94973  1.0000
  C   C4519     1.0  0.52404  0.88805  0.86352  1.0000
  C   C4520     1.0  0.95007  0.51556  0.80807  1.0000
  H   H4516     1.0  0.89566  0.50114  0.79761  1.0000
  C   C4521     1.0  0.54950  0.71294  0.97784  1.0000
  N   N372      1.0  0.59835  0.60438  0.89613  1.0000
  C   C4522     1.0  0.59977  0.61816  0.90092  1.0000
  C   C4523     1.0  0.58374  0.60434  0.89164  1.0000
  C   C4524     1.0  0.58639  0.63249  0.90105  1.0000
  C   C4525     1.0  0.57010  0.61844  0.89169  1.0000
  C   C4526     1.0  0.57142  0.63249  0.89663  1.0000
  C   C4527     1.0  0.61218  0.58922  0.89666  1.0000
  C   C4528     1.0  0.50189  0.64619  0.82989  1.0000
  H   H4517     1.0  0.58261  0.59336  0.88798  1.0000
  H   H4518     1.0  0.63621  0.59749  0.97328  1.0000
  H   H4519     1.0  0.55859  0.61851  0.88789  1.0000
  H   H4520     1.0  0.56085  0.64338  0.89701  1.0000
  H   H4521     1.0  0.90587  0.75074  0.97569  1.0000
  C   C4529     1.0  0.91989  0.51323  0.81697  1.0000
  H   H4522     1.0  0.53014  0.87987  0.97077  1.0000
  N   N373      1.0  0.60328  0.69749  0.88876  1.0000
  C   C4530     1.0  0.60491  0.70199  0.90259  1.0000
  C   C4531     1.0  0.59363  0.70863  0.87796  1.0000
  C   C4532     1.0  0.59616  0.71776  0.90627  1.0000
  C   C4533     1.0  0.58457  0.72443  0.88135  1.0000
  C   C4534     1.0  0.58584  0.72898  0.89562  1.0000
  C   C4535     1.0  0.61249  0.68090  0.88513  1.0000
  H   H4523     1.0  0.61276  0.69325  0.91102  1.0000
  H   H4524     1.0  0.59248  0.70512  0.86690  1.0000
  H   H4525     1.0  0.59699  0.72116  0.91752  1.0000
  H   H4526     1.0  0.57643  0.73296  0.87309  1.0000
  H   H4527     1.0  0.57867  0.74108  0.89859  1.0000
  H   H4528     1.0  0.62561  0.68155  0.87752  1.0000
  H   H4529     1.0  0.61347  0.67111  0.89695  1.0000
  H   H4530     1.0  0.60575  0.67640  0.87802  1.0000
  N   N374      1.0  0.84353  0.92896  0.88432  1.0000
  C   C4536     1.0  0.84563  0.94410  0.87359  1.0000
  C   C4537     1.0  0.82960  0.92825  0.89748  1.0000
  C   C4538     1.0  0.83375  0.95907  0.87607  1.0000
  C   C4539     1.0  0.81755  0.94299  0.90041  1.0000
  C   C4540     1.0  0.81962  0.95848  0.88957  1.0000
  C   C4541     1.0  0.85575  0.91329  0.88121  1.0000
  H   H4531     1.0  0.85645  0.94473  0.86295  1.0000
  H   H4532     1.0  0.82756  0.91624  0.90566  1.0000
  C   C4542     1.0  0.93133  0.68280  0.86080  1.0000
  C   C4543     1.0  0.91678  0.88443  0.81685  1.0000
  C   C4544     1.0  0.62774  0.61687  0.80514  1.0000
  H   H4533     1.0  0.85745  0.90415  0.89327  1.0000
  H   H4534     1.0  0.85107  0.90728  0.87361  1.0000
  H   H4535     1.0  0.86859  0.91569  0.87429  1.0000
  C   C4545     1.0  0.60669  0.49248  0.83976  1.0000
  H   H4536     1.0  0.56843  0.76381  0.93764  1.0000
  H   H4537     1.0  0.58689  0.60298  0.97870  1.0000
  C   C4546     1.0  0.75471  0.60242  0.92034  1.0000
  C   C4547     1.0  0.91740  0.85052  0.83387  1.0000
  C   C4548     1.0  0.55569  0.76760  0.93511  1.0000
  C   C4549     1.0  0.72468  0.61111  0.91967  1.0000
  C   C4550     1.0  0.91718  0.78884  0.96165  1.0000
  H   H4538     1.0  0.70342  0.96947  0.88114  1.0000
  S   S1530     1.0  0.88599  0.94967  0.79674  1.0000
  H   H4539     1.0  0.61135  0.61820  0.90447  1.0000
  H   H4540     1.0  0.55225  0.94244  0.86309  1.0000
  S   S1531     1.0  0.91121  0.71407  0.97986  1.0000
  H   H4541     1.0  0.76520  0.59290  0.92480  1.0000
  C   C4551     1.0  0.59653  0.90395  0.98296  1.0000
  H   H4542     1.0  0.91787  0.79947  0.96621  1.0000
  H   H4543     1.0  0.61018  0.58075  0.90939  1.0000
  C   C4552     1.0  0.83615  0.53428  0.84389  1.0000
  N   N375      1.0  0.91003  0.70078  0.84562  1.0000
  C   C4553     1.0  0.61381  0.64638  0.80265  1.0000
  H   H4544     1.0  0.72044  0.55611  0.88368  1.0000
  H   H4545     1.0  0.77488  0.63370  0.90384  1.0000
  H   H4546     1.0  0.89870  0.86086  0.85388  1.0000
  C   C4554     1.0  0.70048  0.95355  0.92317  1.0000
  N   N376      1.0  0.84707  0.84943  0.86992  1.0000
  C   C4555     1.0  0.85466  0.83607  0.86217  1.0000
  C   C4556     1.0  0.85173  0.86468  0.86318  1.0000
  C   C4557     1.0  0.86717  0.83786  0.84719  1.0000
  C   C4558     1.0  0.86392  0.86700  0.84805  1.0000
  C   C4559     1.0  0.87169  0.85348  0.84004  1.0000
  C   C4560     1.0  0.83475  0.84696  0.88611  1.0000
  H   H4547     1.0  0.85145  0.82379  0.86785  1.0000
  H   H4548     1.0  0.84614  0.87515  0.86956  1.0000
  H   H4549     1.0  0.87362  0.82712  0.84136  1.0000
  H   H4550     1.0  0.86748  0.87917  0.84272  1.0000
  H   H4551     1.0  0.88151  0.85501  0.82853  1.0000
  H   H4552     1.0  0.82623  0.83879  0.88618  1.0000
  H   H4553     1.0  0.84174  0.84096  0.89651  1.0000
  H   H4554     1.0  0.82641  0.85919  0.88872  1.0000
  C   C4561     1.0  0.68275  0.95542  0.92817  1.0000
  H   H4555     1.0  0.62951  0.63264  0.82072  1.0000
  C   C4562     1.0  0.55488  0.73899  0.98118  1.0000
  H   H4556     1.0  0.85261  0.54058  0.81951  1.0000
  C   C4563     1.0  0.60699  0.64535  0.78963  1.0000
  H   H4557     1.0  0.56142  0.62588  0.98434  1.0000
  Fe  Fe763     1.0  0.51739  0.70493  0.92492  1.0000
  C   C4564     1.0  0.85415  0.61155  0.79369  1.0000
  H   H4558     1.0  0.78039  0.61852  0.89060  1.0000
  C   C4565     1.0  0.88182  0.68230  0.98069  1.0000
  C   C4566     1.0  0.62921  0.63670  0.98075  1.0000
  H   H4559     1.0  0.80927  0.49641  0.86540  1.0000
  H   H4560     1.0  0.72887  0.51137  0.86470  1.0000
  C   C4567     1.0  0.90685  0.86370  0.84152  1.0000
  Fe  Fe764     1.0  0.86749  0.95436  0.82088  1.0000
  N   N377      1.0  0.66269  0.88501  0.89172  1.0000
  C   C4568     1.0  0.66067  0.88618  0.90808  1.0000
  C   C4569     1.0  0.65167  0.87816  0.88748  1.0000
  C   C4570     1.0  0.64744  0.88026  0.92072  1.0000
  C   C4571     1.0  0.63843  0.87194  0.89984  1.0000
  C   C4572     1.0  0.63634  0.87300  0.91655  1.0000
  C   C4573     1.0  0.67592  0.89218  0.87840  1.0000
  H   H4561     1.0  0.66910  0.89202  0.91137  1.0000
  H   H4562     1.0  0.65288  0.87778  0.87442  1.0000
  H   H4563     1.0  0.64557  0.88160  0.93359  1.0000
  H   H4564     1.0  0.62955  0.86668  0.89647  1.0000
  H   H4565     1.0  0.62589  0.86853  0.92617  1.0000
  H   H4566     1.0  0.68238  0.88365  0.86945  1.0000
  H   H4567     1.0  0.67003  0.90470  0.87134  1.0000
  H   H4568     1.0  0.68595  0.89418  0.88367  1.0000
  H   H4569     1.0  0.90338  0.69011  0.82863  1.0000
  Fe  Fe765     1.0  0.53144  0.49465  0.82114  1.0000
  H   H4570     1.0  0.92466  0.77551  0.92525  1.0000
  C   C4574     1.0  0.85438  0.72248  0.97218  1.0000
  C   C4575     1.0  0.92328  0.67298  0.84032  1.0000
  C   C4576     1.0  0.78672  0.49578  0.90069  1.0000
  H   H4571     1.0  0.98354  0.57949  0.80988  1.0000
  C   C4577     1.0  0.94528  0.86768  0.86016  1.0000
  H   H4572     1.0  0.95964  0.87058  0.89317  1.0000
  C   C4578     1.0  0.91967  0.69812  0.85731  1.0000
  S   S1532     1.0  0.54607  0.98134  0.82488  1.0000
  H   H4573     1.0  0.92434  0.66309  0.83384  1.0000
  N   N378      1.0  0.95999  0.86805  0.84794  1.0000
  N   N379      1.0  0.91508  0.76179  0.94987  1.0000
  C   C4579     1.0  0.91038  0.76150  0.96682  1.0000
  C   C4580     1.0  0.92104  0.77521  0.93870  1.0000
  Fe  Fe766     1.0  0.86424  0.94323  0.79053  1.0000
  C   C4581     1.0  0.92220  0.78891  0.94442  1.0000
  C   C4582     1.0  0.82137  0.87959  0.98233  1.0000
  C   C4583     1.0  0.97440  0.87128  0.86766  1.0000
  H   H4574     1.0  0.98606  0.87212  0.87054  1.0000
  C   C4584     1.0  0.77500  0.62049  0.90370  1.0000
  H   H4575     1.0  0.86043  0.72880  0.95979  1.0000
  H   H4576     1.0  0.54277  0.93833  0.84816  1.0000
  C   C4585     1.0  0.71063  0.53519  0.90112  1.0000
  N   N380      1.0  0.75762  0.61726  0.90945  1.0000
  H   H4577     1.0  0.67690  0.95111  0.94132  1.0000
  C   C4586     1.0  0.91426  0.74729  0.94386  1.0000
  C   C4587     1.0  0.57032  0.91873  0.97276  1.0000
  C   C4588     1.0  0.51943  0.90459  0.85441  1.0000
  H   H4578     1.0  0.89534  0.72002  0.82952  1.0000
  N   N381      1.0  0.71500  0.51037  0.89021  1.0000
  C   C4589     1.0  0.72338  0.51812  0.87488  1.0000
  N   N382      1.0  0.93505  0.51159  0.80531  1.0000
  C   C4590     1.0  0.85817  0.61759  0.80568  1.0000
  S   S1533     1.0  0.52535  0.90867  0.83221  1.0000
  H   H4579     1.0  0.84090  0.54153  0.84980  1.0000
  H   H4580     1.0  0.57507  0.92792  0.96132  1.0000
  S   S1534     1.0  0.75432  0.49877  0.89675  1.0000
  S   S1535     1.0  0.50739  0.89318  0.91226  1.0000
  C   C4591     1.0  0.90873  0.64386  0.96652  1.0000
  H   H4581     1.0  0.85222  0.61403  0.81894  1.0000
  C   C4592     1.0  0.67425  0.63863  0.97532  1.0000
  H   H4582     1.0  0.66814  0.65170  0.97566  1.0000
  H   H4583     1.0  0.73596  0.58726  0.93401  1.0000
  C   C4593     1.0  0.63604  0.60719  0.97962  1.0000
  Fe  Fe767     1.0  0.57499  0.60410  0.81014  1.0000
  H   H4584     1.0  0.91824  0.70778  0.86419  1.0000
  H   H4585     1.0  0.92463  0.73632  0.94729  1.0000
  C   C4594     1.0  0.84271  0.53374  0.82689  1.0000
  C   C4595     1.0  0.67271  0.96234  0.91603  1.0000
  H   H4586     1.0  0.70275  0.51225  0.91563  1.0000
  C   C4596     1.0  0.90634  0.88064  0.83293  1.0000
  H   H4587     1.0  0.65897  0.96352  0.91999  1.0000
  C   C4597     1.0  0.51188  0.89736  0.89001  1.0000
  C   C4598     1.0  0.99120  0.83062  0.88607  1.0000
  H   H4588     1.0  0.62442  0.64988  0.97537  1.0000
  H   H4589     1.0  0.80086  0.91868  0.96487  1.0000
  H   H4590     1.0  0.51385  0.63809  0.83267  1.0000
  H   H4591     1.0  0.81005  0.96990  0.89143  1.0000
  H   H4592     1.0  0.53674  0.90221  0.98037  1.0000
  C   C4599     1.0  0.50257  0.79246  0.97430  1.0000
  H   H4593     1.0  0.65713  0.97046  0.89101  1.0000
  H   H4594     1.0  0.81839  0.52586  0.86646  1.0000
  C   C4600     1.0  0.52030  0.88447  0.88123  1.0000
  S   S1536     1.0  0.75743  0.93137  0.98138  1.0000
  H   H4595     1.0  0.92009  0.63325  0.96554  1.0000
  C   C4601     1.0  0.90550  0.50951  0.81438  1.0000
  H   H4596     1.0  0.54033  0.72056  0.97023  1.0000
  H   H4597     1.0  0.50877  0.64398  0.80379  1.0000
  H   H4598     1.0  0.50660  0.93017  0.85625  1.0000
  C   C4602     1.0  0.62447  0.59976  0.78738  1.0000
  H   H4599     1.0  0.61580  0.59182  0.79648  1.0000
  H   H4600     1.0  0.82478  0.86656  0.98089  1.0000
  H   H4601     1.0  0.91178  0.65398  0.97066  1.0000
  H   H4602     1.0  0.85988  0.62278  0.97899  1.0000
  C   C4603     1.0  0.55216  0.69529  0.98111  1.0000
  H   H4603     1.0  0.83779  0.68019  0.97991  1.0000
  C   C4604     1.0  0.49911  0.64953  0.81352  1.0000
  H   H4604     1.0  0.63795  0.59291  0.78725  1.0000
  Fe  Fe768     1.0  0.49913  0.96913  0.80637  1.0000
  N   N383      1.0  0.55837  0.72049  0.98408  1.0000
  C   C4605     1.0  0.99654  0.58105  0.80448  1.0000
  N   N384      1.0  0.89402  0.63774  0.97838  1.0000
  H   H4605     1.0  0.49996  0.92384  0.88761  1.0000
  C   C4606     1.0  0.93619  0.50680  0.79070  1.0000
  C   C4607     1.0  0.90666  0.50426  0.79968  1.0000
  H   H4606     1.0  0.50064  0.68730  0.87747  1.0000
  C   C4608     1.0  0.92206  0.50299  0.78770  1.0000
  H   H4607     1.0  0.49948  0.65920  0.86002  1.0000
  H   H4608     1.0  0.66658  0.98880  0.88480  1.0000
