data_image0
_chemical_formula_structural       SFeSHCNSH3CHC3NSHCSHCNH2CH3CHNCHC3HC3HCHC2HCH2C4H2CFeCHC2HC2H5CHCFeCHNSC2HCNH5SC2H7CHCHCHCH2SHFeC2H2C2HCHSHSCH2C3SHC5HC2H2CNC2H2CH3C4H2C4HCHCH2CFeC3H3NCH2C3SCH2CHCSCH3FeH2NHC2HCH2NSHSC2H2CHSC2SH2CFeSFeCFeSCH2SHNHNHSCHC3NHCHCH3C2H3SHCH2C4HCH3CSH3CSFeHCFeHCHCHSCHCHSC5SH4FeHC2HCSCFeC3SCH2CH2C4H4SCHC2HSCSC2HCSHSCFeS2HSH2C3H3SC4H2CSFe2HSC2NC2HC2HCHCNH3CS2CHCFeHCHCFeH2C2H2CH3C2HC3SHCH5CFeSFeCS2FeS2FeHSFeCFeS3FeS2FeSHFeSFeS3FeSFeS3C3H2C2HFeC3HC7H4CHCH4CHSC2HC6NC2SCH3C2H2CHNS2CH4NH3SHSH2C2NH2CHCH2CHCH2CFeCHCH2NC6H7CHSFeC3H2CHFeHC3HC2H3C2H2SCH2CH2C5S2CNHCFeHSHCHCSCHCSCH3CHCHCHCSNH2SHCHCHCHNHSC4HC3H2CSH3CHCHCHCFeC2FeHC2HFeCHCH2NHSCSHC2S2HFeSCFeSFeS3H2C6SH3C3H2NC3H2SCHCHFeH2CFeSCNCFeHSH3SHCH3CHFeCNCHCSCHSH3FeHCFeNHC3HC3S2CH3FeHC2S2HC2H3CH2CHCHCNC2HCH7CH3CHCHC3H6C2SFeS2FeSFeSHS2FeSCFeS2FeHFeS4FeCFeH2CHSC4HC6H4C6HNHCHC6H5CFe2CH4CHSCHCSHCHCH2CHSCHCHNFeC2HNC2HC2NHCH2C2FeHSH2CH2FeSHC3HNSCH2CHFeH2S2CSCHC3SCHC2FeS2CHSCH2FeSHS3FeHFeSCHCS2C4H3C3HCHCHSHC2H2FeH2CHC2SFeHCHCSCHC2SFeHCHNC3HSHSC2FeH4CHC4HC2HSCHCHC2H3FeCHCNSHC3HC3H2CNC2H2CHCH6CHFeCHC2HNCSHCFeCSCHFe2SCHNFeS2CFeSCHCSC3H2SH2C3H3C2H2C2HCHCH3C4H2SC2H3C2FeHCH2SFeCSHC4SCHC5FeS2FeS2FeSFeS3CSFeS2FeS2FeSFeS3C6H4CH4C4H4C2HSHCNCHC3HC6H4C6H4SHSH3CHCH2CH3NC6H8C2HCH2C2H4NC6H5CHNCH6SCHCHCHCNCH2S3HSHS2CHCH2SCHCSC3NHFeCH2CSHSC3NC3H4SC2HCFeH2FeCFeCH2CFeH2FeC3H4SHCHFeH2SH2C2HC3HSC2NHCSH2FeH2CH2NHS
_chemical_formula_sum              "S192 Fe96 H576 C576 N48"
_cell_length_a       42.3394
_cell_length_b       42.1849
_cell_length_c       42.2077
_cell_angle_alpha    90.2407
_cell_angle_beta     89.9842
_cell_angle_gamma    90.3767

_space_group_name_H-M_alt    "P 1"
_space_group_IT_number       1

loop_
  _space_group_symop_operation_xyz
  'x, y, z'

loop_
  _atom_site_type_symbol
  _atom_site_label
  _atom_site_symmetry_multiplicity
  _atom_site_fract_x
  _atom_site_fract_y
  _atom_site_fract_z
  _atom_site_occupancy
  S   S1        1.0  0.40986  0.08451  0.07823  1.0000
  Fe  Fe1       1.0  0.09923  0.38045  0.02547  1.0000
  S   S2        1.0  0.09127  0.39420  0.07639  1.0000
  H   H1        1.0  0.49708  0.33243  0.10084  1.0000
  C   C1        1.0  0.07373  0.27541  0.05732  1.0000
  N   N1        1.0  0.26236  0.42644  0.01349  1.0000
  S   S3        1.0  0.45126  0.40664  0.05505  1.0000
  H   H2        1.0  0.43282  0.26749  0.03521  1.0000
  H   H3        1.0  0.05128  0.42940  0.11917  1.0000
  H   H4        1.0  0.48727  0.42455  0.10902  1.0000
  C   C2        1.0  0.06879  0.49144  0.28958  1.0000
  H   H5        1.0  0.03881  0.48686  0.12282  1.0000
  C   C3        1.0  0.04251  0.43386  0.27119  1.0000
  C   C4        1.0  0.05019  0.25217  0.06038  1.0000
  C   C5        1.0  0.47286  0.29451  0.07605  1.0000
  N   N2        1.0  0.29603  0.06663  0.04467  1.0000
  S   S4        1.0  0.40550  0.33304  0.02093  1.0000
  H   H6        1.0  0.10323  0.50561  0.04646  1.0000
  C   C6        1.0  0.01445  0.29038  0.08067  1.0000
  S   S5        1.0  0.31787  0.34471  0.01179  1.0000
  H   H7        1.0  0.37824  0.03864  0.28208  1.0000
  C   C7        1.0  0.22794  0.40490  0.05341  1.0000
  N   N3        1.0  0.45642  0.07407  0.17314  1.0000
  H   H8        1.0  0.04551  0.28593  0.32185  1.0000
  H   H9        1.0  0.44209  0.04806  0.21405  1.0000
  C   C8        1.0  0.38146  0.01333  0.27971  1.0000
  H   H10       1.0  0.17796  0.41045  0.04507  1.0000
  H   H11       1.0  0.49915  0.36646  0.02608  1.0000
  H   H12       1.0  0.48286  0.46958  0.05752  1.0000
  C   C9        1.0  0.50504  0.48382  0.05810  1.0000
  H   H13       1.0  0.42837  0.11370  0.18544  1.0000
  N   N4        1.0  0.47555  0.26551  0.06169  1.0000
  C   C10       1.0  0.06502  0.46742  0.31190  1.0000
  H   H14       1.0  0.47710  0.09764  0.13349  1.0000
  C   C11       1.0  0.46632  0.05360  0.07491  1.0000
  C   C12       1.0  0.08389  0.43502  0.08035  1.0000
  C   C13       1.0  0.09874  0.45667  0.06018  1.0000
  H   H15       1.0  0.07217  0.47138  0.33631  1.0000
  C   C14       1.0  0.48863  0.03516  0.19886  1.0000
  C   C15       1.0  0.50828  0.37620  0.04797  1.0000
  C   C16       1.0  0.06266  0.44604  0.10335  1.0000
  H   H16       1.0  0.11594  0.44859  0.04318  1.0000
  C   C17       1.0  0.50125  0.10884  0.06299  1.0000
  H   H17       1.0  0.01512  0.43731  0.21511  1.0000
  C   C18       1.0  0.25831  0.41074  0.04152  1.0000
  C   C19       1.0  0.06988  0.50000  0.08458  1.0000
  H   H18       1.0  0.49933  0.50939  0.06026  1.0000
  C   C20       1.0  0.50169  0.40903  0.09464  1.0000
  H   H19       1.0  0.03134  0.47482  0.20431  1.0000
  H   H20       1.0  0.42115  0.09776  0.14611  1.0000
  C   C21       1.0  0.42674  0.09165  0.17110  1.0000
  C   C22       1.0  0.48968  0.39652  0.06635  1.0000
  C   C23       1.0  0.46809  0.10992  0.06442  1.0000
  C   C24       1.0  0.45067  0.08241  0.07124  1.0000
  H   H21       1.0  0.50633  0.22745  0.04941  1.0000
  H   H22       1.0  0.45604  0.13223  0.06128  1.0000
  C   C25       1.0  0.27779  0.06627  0.07420  1.0000
  Fe  Fe2       1.0  0.39334  0.03969  0.10170  1.0000
  C   C26       1.0  0.05947  0.48601  0.25820  1.0000
  H   H23       1.0  0.04837  0.41976  0.32009  1.0000
  C   C27       1.0  0.32817  0.07019  0.04575  1.0000
  C   C28       1.0  0.46063  0.05246  0.19684  1.0000
  H   H24       1.0  0.25602  0.05157  0.07166  1.0000
  C   C29       1.0  0.05551  0.47852  0.10537  1.0000
  C   C30       1.0  0.20169  0.41543  0.03655  1.0000
  H   H25       1.0  0.27860  0.40170  0.05427  1.0000
  H   H26       1.0  0.27126  0.09078  0.08107  1.0000
  H   H27       1.0  0.05527  0.22813  0.05279  1.0000
  H   H28       1.0  0.45359  0.23124  0.03106  1.0000
  H   H29       1.0  0.29155  0.05534  0.09372  1.0000
  C   C31       1.0  0.48020  0.08018  0.15201  1.0000
  H   H30       1.0  0.37149  0.07326  0.01892  1.0000
  C   C32       1.0  0.09180  0.48903  0.06233  1.0000
  Fe  Fe3       1.0  0.43026  0.37954  0.01424  1.0000
  C   C33       1.0  0.05176  0.43843  0.30274  1.0000
  H   H31       1.0  0.06202  0.50502  0.24110  1.0000
  N   N5        1.0  0.02091  0.25988  0.07169  1.0000
  S   S6        1.0  0.35084  0.03824  0.13305  1.0000
  C   C34       1.0  0.34594  0.07083  0.01781  1.0000
  C   C35       1.0  0.49934  0.05263  0.07416  1.0000
  H   H32       1.0  0.09654  0.26945  0.04722  1.0000
  C   C36       1.0  0.03750  0.31420  0.07801  1.0000
  N   N6        1.0  0.04624  0.45760  0.24945  1.0000
  H   H33       1.0  0.45306  0.03203  0.07883  1.0000
  H   H34       1.0  0.43291  0.23948  0.06763  1.0000
  H   H35       1.0  0.34034  0.07234  0.06828  1.0000
  H   H36       1.0  0.22479  0.39165  0.07515  1.0000
  H   H37       1.0  0.40656  0.07713  0.17994  1.0000
  S   S7        1.0  0.38076  0.02439  0.21577  1.0000
  C   C37       1.0  0.49924  0.30931  0.08967  1.0000
  C   C38       1.0  0.44734  0.25009  0.04842  1.0000
  H   H38       1.0  0.45027  0.30652  0.07679  1.0000
  H   H39       1.0  0.04230  0.50381  0.01610  1.0000
  H   H40       1.0  0.03242  0.33851  0.08479  1.0000
  H   H41       1.0  0.05628  0.44021  0.20330  1.0000
  H   H42       1.0  0.25370  0.33086  0.02747  1.0000
  H   H43       1.0  0.08529  0.32486  0.06401  1.0000
  H   H44       1.0  0.06997  0.01819  0.26164  1.0000
  C   C39       1.0  0.06730  0.30656  0.06631  1.0000
  H   H45       1.0  0.04053  0.46138  0.02199  1.0000
  C   C40       1.0  0.50407  0.25043  0.06082  1.0000
  H   H46       1.0  0.05528  0.22900  0.33062  1.0000
  C   C41       1.0  0.03693  0.45211  0.21639  1.0000
  H   H47       1.0  0.03169  0.41146  0.26436  1.0000
  C   C42       1.0  0.28071  0.06471  0.01617  1.0000
  H   H48       1.0  0.49141  0.01742  0.21718  1.0000
  H   H49       1.0  0.25525  0.06167  0.01523  1.0000
  S   S8        1.0  0.42363  0.01220  0.13507  1.0000
  H   H50       1.0  0.30275  0.45635  0.01060  1.0000
  Fe  Fe4       1.0  0.03900  0.02789  0.39359  1.0000
  C   C43       1.0  0.36320  0.01774  0.57928  1.0000
  C   C44       1.0  0.07439  0.47714  0.41438  1.0000
  H   H51       1.0  0.47779  0.07231  0.56569  1.0000
  H   H52       1.0  0.03797  0.43330  0.46840  1.0000
  C   C45       1.0  0.05018  0.29825  0.37124  1.0000
  C   C46       1.0  0.45747  0.02548  0.56894  1.0000
  H   H53       1.0  0.02711  0.47666  0.57031  1.0000
  C   C47       1.0  0.09754  0.02165  0.51789  1.0000
  H   H54       1.0  0.27917  0.46261  0.52385  1.0000
  S   S9        1.0  0.45617  0.02485  0.61044  1.0000
  H   H55       1.0  0.09322  0.19663  0.38757  1.0000
  S   S10       1.0  0.45112  0.40217  0.63152  1.0000
  C   C48       1.0  0.33125  0.49752  0.49558  1.0000
  H   H56       1.0  0.44890  0.44293  0.54370  1.0000
  H   H57       1.0  0.30930  0.01489  0.54650  1.0000
  C   C49       1.0  0.08193  0.03938  0.46540  1.0000
  C   C50       1.0  0.28003  0.48875  0.52117  1.0000
  C   C51       1.0  0.05583  0.24511  0.35072  1.0000
  S   S11       1.0  0.04371  0.39011  0.38679  1.0000
  H   H58       1.0  0.47124  0.07551  0.50718  1.0000
  C   C52       1.0  0.06035  0.25427  0.40610  1.0000
  C   C53       1.0  0.48701  0.50430  0.45031  1.0000
  C   C54       1.0  0.48988  0.47186  0.53353  1.0000
  C   C55       1.0  0.02577  0.48463  0.38544  1.0000
  C   C56       1.0  0.37949  0.05021  0.53402  1.0000
  H   H59       1.0  0.49263  0.45358  0.45068  1.0000
  C   C57       1.0  0.04024  0.44921  0.48935  1.0000
  C   C58       1.0  0.02301  0.45173  0.38095  1.0000
  H   H60       1.0  0.34148  0.06643  0.46513  1.0000
  H   H61       1.0  0.46021  0.22305  0.61368  1.0000
  C   C59       1.0  0.34544  0.05768  0.48893  1.0000
  N   N7        1.0  0.29900  0.49728  0.49337  1.0000
  C   C60       1.0  0.05505  0.28670  0.40175  1.0000
  C   C61       1.0  0.45090  0.02874  0.50275  1.0000
  H   H62       1.0  0.29894  0.03736  0.49341  1.0000
  H   H63       1.0  0.03335  0.01444  0.54076  1.0000
  C   C62       1.0  0.49317  0.48785  0.61818  1.0000
  H   H64       1.0  0.48055  0.39761  0.56329  1.0000
  H   H65       1.0  0.01070  0.45494  0.67343  1.0000
  H   H66       1.0  0.38209  0.03059  0.59262  1.0000
  C   C63       1.0  0.04598  0.43140  0.39304  1.0000
  C   C64       1.0  0.07178  0.44424  0.40960  1.0000
  C   C65       1.0  0.49228  0.41877  0.55447  1.0000
  C   C66       1.0  0.05043  0.27737  0.34556  1.0000
  H   H67       1.0  0.34188  0.01693  0.59463  1.0000
  H   H68       1.0  0.08989  0.42872  0.41866  1.0000
  C   C67       1.0  0.32765  0.02857  0.53478  1.0000
  C   C68       1.0  0.48293  0.22572  0.60205  1.0000
  C   C69       1.0  0.45803  0.44238  0.62328  1.0000
  C   C70       1.0  0.32165  0.04111  0.50474  1.0000
  H   H69       1.0  0.37549  0.50574  0.47118  1.0000
  C   C71       1.0  0.43268  0.46125  0.61388  1.0000
  H   H70       1.0  0.09462  0.48678  0.42672  1.0000
  C   C72       1.0  0.47449  0.44424  0.54356  1.0000
  H   H71       1.0  0.40918  0.45110  0.61236  1.0000
  H   H72       1.0  0.39333  0.07515  0.49158  1.0000
  C   C73       1.0  0.08812  0.04591  0.49747  1.0000
  Fe  Fe5       1.0  0.50158  0.03998  0.63377  1.0000
  C   C74       1.0  0.50251  0.19696  0.67461  1.0000
  C   C75       1.0  0.37448  0.06257  0.50375  1.0000
  C   C76       1.0  0.05141  0.49742  0.40225  1.0000
  H   H73       1.0  0.05798  0.18531  0.36607  1.0000
  H   H74       1.0  0.04561  0.43489  0.51069  1.0000
  H   H75       1.0  0.48331  0.27658  0.60631  1.0000
  N   N8        1.0  0.35638  0.03312  0.54897  1.0000
  C   C77       1.0  0.48835  0.45568  0.62529  1.0000
  H   H76       1.0  0.41769  0.50782  0.59996  1.0000
  H   H77       1.0  0.29029  0.49960  0.54298  1.0000
  C   C78       1.0  0.46830  0.05228  0.55264  1.0000
  C   C79       1.0  0.46464  0.05406  0.51956  1.0000
  C   C80       1.0  0.43753  0.49329  0.60657  1.0000
  S   S12       1.0  0.10535  0.03038  0.55795  1.0000
  C   C81       1.0  0.01721  0.50021  0.56918  1.0000
  H   H78       1.0  0.34268  0.49256  0.51802  1.0000
  H   H79       1.0  0.40215  0.05396  0.54527  1.0000
  C   C82       1.0  0.00963  0.49849  0.48766  1.0000
  H   H80       1.0  0.25553  0.49791  0.51922  1.0000
  C   C83       1.0  0.28452  0.50402  0.46522  1.0000
  S   S13       1.0  0.44029  0.03350  0.46272  1.0000
  C   C84       1.0  0.34991  0.50524  0.46931  1.0000
  H   H81       1.0  0.08601  0.06990  0.50639  1.0000
  H   H82       1.0  0.47581  0.49174  0.52562  1.0000
  H   H83       1.0  0.07535  0.05838  0.44963  1.0000
  Fe  Fe6       1.0  0.49000  0.37633  0.65658  1.0000
  H   H84       1.0  0.06410  0.24543  0.42989  1.0000
  H   H85       1.0  0.04587  0.32330  0.36758  1.0000
  N   N9        1.0  0.01082  0.46673  0.49401  1.0000
  H   H86       1.0  0.05451  0.30286  0.42183  1.0000
  C   C85       1.0  0.06734  0.20026  0.38575  1.0000
  C   C86       1.0  0.50445  0.47626  0.44813  1.0000
  H   H87       1.0  0.05579  0.19148  0.40775  1.0000
  C   C87       1.0  0.49601  0.25586  0.59802  1.0000
  H   H88       1.0  0.25893  0.50443  0.46356  1.0000
  H   H89       1.0  0.06074  0.46542  0.48554  1.0000
  N   N10       1.0  0.06055  0.23393  0.38074  1.0000
  S   S14       1.0  0.44609  0.50258  0.45759  1.0000
  H   H90       1.0  0.04558  0.49303  0.64461  1.0000
  S   S15       1.0  0.03968  0.06648  0.35711  1.0000
  C   C88       1.0  0.46777  0.50661  0.60858  1.0000
  C   C89       1.0  0.02197  0.49991  0.65186  1.0000
  H   H91       1.0  0.01039  0.01766  0.48663  1.0000
  H   H92       1.0  0.49036  0.17568  0.59733  1.0000
  C   C90       1.0  0.50025  0.19904  0.59299  1.0000
  H   H93       1.0  0.50820  0.44110  0.63153  1.0000
  S   S16       1.0  0.11745  0.07487  0.94924  1.0000
  C   C91       1.0  0.46461  0.45605  0.76947  1.0000
  C   C92       1.0  0.07403  0.06844  0.83526  1.0000
  S   S17       1.0  0.10262  0.35319  0.93809  1.0000
  H   H94       1.0  0.07223  0.03962  0.91097  1.0000
  H   H95       1.0  0.46811  0.39690  0.84268  1.0000
  C   C93       1.0  0.48338  0.47600  0.70984  1.0000
  Fe  Fe7       1.0  0.07327  0.39161  0.95975  1.0000
  S   S18       1.0  0.04193  0.42218  0.92972  1.0000
  Fe  Fe8       1.0  0.14214  0.37219  0.96836  1.0000
  C   C94       1.0  0.10560  0.05984  0.83162  1.0000
  Fe  Fe9       1.0  0.41412  0.38307  0.94510  1.0000
  S   S19       1.0  0.42517  0.41042  0.90055  1.0000
  C   C95       1.0  0.45972  0.43622  0.74336  1.0000
  H   H96       1.0  0.42094  0.34570  0.87562  1.0000
  H   H97       1.0  0.03513  0.47768  0.98306  1.0000
  S   S20       1.0  0.47979  0.34672  0.69924  1.0000
  H   H98       1.0  0.43041  0.37988  0.83278  1.0000
  N   N11       1.0  0.48834  0.49520  0.73559  1.0000
  H   H99       1.0  0.44937  0.41282  0.74640  1.0000
  N   N12       1.0  0.08927  0.10842  0.87316  1.0000
  H   H100      1.0  0.11208  0.04073  0.81559  1.0000
  S   S21       1.0  0.38976  0.40185  0.98857  1.0000
  C   C96       1.0  0.44404  0.33522  0.87227  1.0000
  H   H101      1.0  0.03001  0.31754  0.88495  1.0000
  C   C97       1.0  0.44030  0.44863  0.90857  1.0000
  C   C98       1.0  0.43464  0.46327  0.93780  1.0000
  C   C99       1.0  0.44564  0.49418  0.94363  1.0000
  N   N13       1.0  0.46485  0.34765  0.85076  1.0000
  H   H102      1.0  0.43561  0.29899  0.90725  1.0000
  C   C100      1.0  0.45783  0.46482  0.88543  1.0000
  H   H103      1.0  0.42114  0.45111  0.95572  1.0000
  C   C101      1.0  0.01469  0.28243  0.99498  1.0000
  H   H104      1.0  0.48370  0.50050  0.78570  1.0000
  H   H105      1.0  0.04164  0.09966  0.85884  1.0000
  H   H106      1.0  0.46236  0.45367  0.86280  1.0000
  C   C102      1.0  0.25377  0.34281  0.00484  1.0000
  C   C103      1.0  0.05975  0.05684  0.92489  1.0000
  H   H107      1.0  0.09634  0.13557  0.91531  1.0000
  H   H108      1.0  0.01441  0.12103  0.97221  1.0000
  H   H109      1.0  0.50484  0.01234  0.95183  1.0000
  S   S22       1.0  0.44469  0.26949  0.96595  1.0000
  H   H110      1.0  0.02602  0.34624  0.91665  1.0000
  C   C104      1.0  0.49428  0.33488  0.84720  1.0000
  H   H111      1.0  0.15350  0.06921  0.84623  1.0000
  H   H112      1.0  0.47854  0.19455  0.68322  1.0000
  C   C105      1.0  0.28260  0.36612  0.96117  1.0000
  C   C106      1.0  0.07604  0.07619  0.94639  1.0000
  C   C107      1.0  0.50342  0.30876  0.86533  1.0000
  C   C108      1.0  0.05943  0.09894  0.96389  1.0000
  H   H113      1.0  0.07192  0.11417  0.98042  1.0000
  C   C109      1.0  0.22493  0.36746  0.96192  1.0000
  H   H114      1.0  0.45810  0.44820  0.79303  1.0000
  H   H115      1.0  0.05623  0.13288  0.90259  1.0000
  H   H116      1.0  0.34408  0.06823  0.96679  1.0000
  C   C110      1.0  0.46962  0.49547  0.89159  1.0000
  S   S23       1.0  0.38721  0.33683  0.94537  1.0000
  H   H117      1.0  0.49923  0.30627  0.98746  1.0000
  H   H118      1.0  0.08371  0.15775  0.88098  1.0000
  H   H119      1.0  0.03918  0.30712  0.92542  1.0000
  C   C111      1.0  0.49246  0.22714  0.97287  1.0000
  S   S24       1.0  0.18960  0.38212  0.94558  1.0000
  Fe  Fe10      1.0  0.14162  0.03286  0.92708  1.0000
  H   H120      1.0  0.18587  0.43907  0.99428  1.0000
  C   C112      1.0  0.28264  0.35090  0.99053  1.0000
  Fe  Fe11      1.0  0.08897  0.32498  0.98093  1.0000
  H   H121      1.0  0.30475  0.37225  0.94988  1.0000
  C   C113      1.0  0.48224  0.29580  0.88717  1.0000
  H   H122      1.0  0.46508  0.43108  0.69288  1.0000
  C   C114      1.0  0.23676  0.43715  0.99698  1.0000
  H   H123      1.0  0.49091  0.48348  0.68649  1.0000
  S   S25       1.0  0.17656  0.01230  0.81566  1.0000
  C   C115      1.0  0.29773  0.06529  0.98775  1.0000
  H   H124      1.0  0.46365  0.37282  0.80722  1.0000
  C   C116      1.0  0.25378  0.37452  0.94700  1.0000
  H   H125      1.0  0.04665  0.21213  0.97243  1.0000
  S   S26       1.0  0.07612  0.27324  0.97560  1.0000
  C   C117      1.0  0.33057  0.06821  0.98865  1.0000
  C   C118      1.0  0.03738  0.26094  0.98434  1.0000
  C   C119      1.0  0.48374  0.25907  0.97513  1.0000
  C   C120      1.0  0.45631  0.37569  0.83235  1.0000
  C   C121      1.0  0.02681  0.10278  0.95935  1.0000
  S   S27       1.0  0.45630  0.36406  0.97067  1.0000
  H   H126      1.0  0.28553  0.06245  0.96524  1.0000
  H   H127      1.0  0.47546  0.20964  0.96472  1.0000
  H   H128      1.0  0.23984  0.44899  0.97442  1.0000
  H   H129      1.0  0.05572  0.05600  0.82210  1.0000
  Fe  Fe12      1.0  0.42774  0.31937  0.97476  1.0000
  H   H130      1.0  0.48312  0.50785  0.87369  1.0000
  C   C122      1.0  0.06626  0.09315  0.85604  1.0000
  C   C123      1.0  0.50579  0.28160  0.98558  1.0000
  H   H131      1.0  0.18324  0.02401  0.74941  1.0000
  C   C124      1.0  0.02729  0.06096  0.92003  1.0000
  S   S28       1.0  0.18744  0.03637  0.90082  1.0000
  C   C125      1.0  0.12027  0.10003  0.86982  1.0000
  Fe  Fe13      1.0  0.36667  0.35389  0.99145  1.0000
  C   C126      1.0  0.45230  0.30897  0.89050  1.0000
  C   C127      1.0  0.22499  0.35103  0.99059  1.0000
  C   C128      1.0  0.47911  0.48563  0.76514  1.0000
  S   S29       1.0  0.11374  0.41333  0.98642  1.0000
  C   C129      1.0  0.08096  0.13506  0.89392  1.0000
  H   H132      1.0  0.44054  0.50555  0.96605  1.0000
  H   H133      1.0  0.25384  0.38706  0.92469  1.0000
  C   C130      1.0  0.02920  0.22888  0.98073  1.0000
  H   H134      1.0  0.13848  0.11184  0.88369  1.0000
  H   H135      1.0  0.48890  0.27565  0.90162  1.0000
  C   C131      1.0  0.46885  0.44634  0.71331  1.0000
  C   C132      1.0  0.12889  0.07578  0.84891  1.0000
  C   C133      1.0  0.29435  0.43298  0.00172  1.0000
  C   C134      1.0  0.02288  0.32082  0.91005  1.0000
  H   H136      1.0  0.01498  0.04655  0.90265  1.0000
  H   H137      1.0  0.20292  0.34538  0.00220  1.0000
  H   H138      1.0  0.29493  0.43285  0.97539  1.0000
  H   H139      1.0  0.02060  0.30712  0.99773  1.0000
  S   S30       1.0  0.05644  0.36196  0.00019  1.0000
  C   C135      1.0  0.46314  0.51032  0.92059  1.0000
  H   H140      1.0  0.49466  0.50802  0.00089  1.0000
  C   C136      1.0  0.01076  0.08401  0.93714  1.0000
  C   C137      1.0  0.03019  0.48149  0.00869  1.0000
  H   H141      1.0  0.31118  0.41439  0.00949  1.0000
  S   S31       1.0  0.13091  0.34078  0.00982  1.0000
  C   C138      1.0  0.20609  0.43173  0.00819  1.0000
  S   S32       1.0  0.49236  0.26073  0.67869  1.0000
  C   C139      1.0  0.32626  0.91201  0.06476  1.0000
  C   C140      1.0  0.38977  0.94806  0.27394  1.0000
  H   H142      1.0  0.04878  0.89317  0.03197  1.0000
  C   C141      1.0  0.38737  0.96685  0.24654  1.0000
  S   S33       1.0  0.36417  0.96183  0.14098  1.0000
  H   H143      1.0  0.32645  0.98869  0.03496  1.0000
  S   S34       1.0  0.37815  0.99796  0.07277  1.0000
  C   C142      1.0  0.07048  0.76457  0.10063  1.0000
  Fe  Fe14      1.0  0.40558  0.96989  0.10816  1.0000
  S   S35       1.0  0.43900  0.93167  0.09174  1.0000
  S   S36       1.0  0.03623  0.57817  0.16755  1.0000
  H   H144      1.0  0.02303  0.73345  0.18631  1.0000
  S   S37       1.0  0.09214  0.90330  0.08480  1.0000
  H   H145      1.0  0.01229  0.80798  0.03609  1.0000
  H   H146      1.0  0.06743  0.74245  0.11340  1.0000
  C   C143      1.0  0.07625  0.82134  0.06829  1.0000
  C   C144      1.0  0.12428  0.92044  0.03093  1.0000
  C   C145      1.0  0.07070  0.94052  0.27895  1.0000
  H   H147      1.0  0.10861  0.83570  0.10520  1.0000
  H   H148      1.0  0.22815  0.98457  0.05954  1.0000
  H   H149      1.0  0.10318  0.78465  0.13444  1.0000
  S   S38       1.0  0.05992  0.54036  0.08436  1.0000
  C   C146      1.0  0.09347  0.81683  0.09615  1.0000
  C   C147      1.0  0.38321  0.99958  0.24936  1.0000
  C   C148      1.0  0.09041  0.78827  0.11249  1.0000
  C   C149      1.0  0.45941  0.90255  0.03729  1.0000
  H   H150      1.0  0.03739  0.75184  0.06413  1.0000
  H   H151      1.0  0.06934  0.92458  0.29898  1.0000
  C   C150      1.0  0.09578  0.90895  0.04349  1.0000
  S   S39       1.0  0.01483  0.93037  0.12610  1.0000
  Fe  Fe15      1.0  0.02433  0.55811  0.11974  1.0000
  Fe  Fe16      1.0  0.33824  0.99348  0.10706  1.0000
  H   H152      1.0  0.14384  0.92584  0.04659  1.0000
  S   S40       1.0  0.39133  0.93720  0.33796  1.0000
  C   C151      1.0  0.07164  0.92770  0.24832  1.0000
  C   C152      1.0  0.27835  0.98687  0.05125  1.0000
  N   N14       1.0  0.05655  0.79811  0.05697  1.0000
  C   C153      1.0  0.06871  0.98584  0.31563  1.0000
  C   C154      1.0  0.44630  0.92998  0.05064  1.0000
  H   H153      1.0  0.07854  0.84368  0.05598  1.0000
  C   C155      1.0  0.05360  0.76996  0.07269  1.0000
  C   C156      1.0  0.24659  0.98627  0.04184  1.0000
  H   H154      1.0  0.07031  0.90224  0.24467  1.0000
  C   C157      1.0  0.38785  0.96178  0.30429  1.0000
  H   H155      1.0  0.39301  0.92275  0.27159  1.0000
  C   C158      1.0  0.35834  0.90659  0.05973  1.0000
  N   N15       1.0  0.07006  0.97266  0.28346  1.0000
  H   H156      1.0  0.38878  0.95601  0.22332  1.0000
  H   H157      1.0  0.46739  0.88366  0.05254  1.0000
  H   H158      1.0  0.42841  0.97640  0.04057  1.0000
  C   C159      1.0  0.07127  0.99273  0.25809  1.0000
  S   S41       1.0  0.03358  0.85611  0.14221  1.0000
  S   S42       1.0  0.28778  0.98467  0.09181  1.0000
  C   C160      1.0  0.07239  0.94796  0.22231  1.0000
  H   H159      1.0  0.06981  0.98130  0.07486  1.0000
  C   C161      1.0  0.03225  0.97031  0.04213  1.0000
  Fe  Fe17      1.0  0.04361  0.89176  0.10398  1.0000
  H   H160      1.0  0.07174  0.93825  0.19845  1.0000
  C   C162      1.0  0.36969  0.90392  0.02872  1.0000
  H   H161      1.0  0.28108  0.91910  0.04254  1.0000
  C   C163      1.0  0.07241  0.98070  0.22715  1.0000
  Fe  Fe18      1.0  0.37991  0.00719  0.16478  1.0000
  H   H162      1.0  0.04557  0.82485  0.01532  1.0000
  H   H163      1.0  0.31716  0.91489  0.08867  1.0000
  C   C164      1.0  0.08253  0.99260  0.02668  1.0000
  C   C165      1.0  0.43649  0.95439  0.03070  1.0000
  H   H164      1.0  0.10595  0.00128  0.03269  1.0000
  H   H165      1.0  0.03787  0.78302  0.01257  1.0000
  C   C166      1.0  0.06222  0.98155  0.05030  1.0000
  H   H166      1.0  0.05365  0.00733  0.31618  1.0000
  H   H167      1.0  0.37448  0.90485  0.07967  1.0000
  H   H168      1.0  0.39454  0.89948  0.02498  1.0000
  C   C167      1.0  0.38367  0.99452  0.30709  1.0000
  C   C168      1.0  0.30600  0.91442  0.03883  1.0000
  H   H169      1.0  0.07198  0.99665  0.20707  1.0000
  C   C169      1.0  0.30198  0.98872  0.02820  1.0000
  C   C170      1.0  0.01280  0.73172  0.16286  1.0000
  C   C171      1.0  0.03718  0.80380  0.02879  1.0000
  S   S43       1.0  0.01444  0.66766  0.17214  1.0000
  H   H170      1.0  0.07847  0.51430  0.29661  1.0000
  C   C172      1.0  0.07083  0.90177  0.02290  1.0000
  H   H171      1.0  0.09278  0.99229  0.32398  1.0000
  H   H172      1.0  0.38223  0.00534  0.33032  1.0000
  H   H173      1.0  0.05803  0.96875  0.33259  1.0000
  H   H174      1.0  0.01618  0.96179  0.06026  1.0000
  H   H175      1.0  0.00886  0.78248  0.15727  1.0000
  C   C173      1.0  0.02326  0.96957  0.01026  1.0000
  Fe  Fe19      1.0  0.39571  0.92530  0.45417  1.0000
  S   S44       1.0  0.41246  0.88221  0.48080  1.0000
  Fe  Fe20      1.0  0.34025  0.96937  0.44272  1.0000
  C   C174      1.0  0.03436  0.62400  0.41391  1.0000
  S   S45       1.0  0.35513  0.92369  0.41997  1.0000
  S   S46       1.0  0.37767  0.96805  0.47993  1.0000
  Fe  Fe21      1.0  0.43083  0.61098  0.50962  1.0000
  S   S47       1.0  0.39588  0.58147  0.48145  1.0000
  S   S48       1.0  0.44370  0.66187  0.49841  1.0000
  Fe  Fe22      1.0  0.44160  0.55956  0.55834  1.0000
  H   H176      1.0  0.02070  0.91359  0.53855  1.0000
  S   S49       1.0  0.47409  0.54635  0.59815  1.0000
  Fe  Fe23      1.0  0.43050  0.54203  0.48975  1.0000
  C   C175      1.0  0.02745  0.84525  0.53819  1.0000
  Fe  Fe24      1.0  0.37600  0.56808  0.52905  1.0000
  S   S50       1.0  0.32513  0.56211  0.54524  1.0000
  S   S51       1.0  0.46666  0.57244  0.51370  1.0000
  S   S52       1.0  0.40830  0.60053  0.55667  1.0000
  Fe  Fe25      1.0  0.15163  0.57134  0.47465  1.0000
  S   S53       1.0  0.11963  0.59811  0.44168  1.0000
  S   S54       1.0  0.20306  0.56999  0.45876  1.0000
  Fe  Fe26      1.0  0.09603  0.55162  0.51606  1.0000
  S   S55       1.0  0.06057  0.57726  0.48670  1.0000
  H   H177      1.0  0.40912  0.88569  0.37767  1.0000
  Fe  Fe27      1.0  0.08665  0.55656  0.44564  1.0000
  S   S56       1.0  0.05463  0.53880  0.40671  1.0000
  Fe  Fe28      1.0  0.09639  0.61642  0.48579  1.0000
  S   S57       1.0  0.08453  0.66867  0.48813  1.0000
  S   S58       1.0  0.12004  0.52809  0.47488  1.0000
  S   S59       1.0  0.13049  0.59256  0.51887  1.0000
  Fe  Fe29      1.0  0.19055  0.95791  0.59956  1.0000
  S   S60       1.0  0.24361  0.95729  0.59538  1.0000
  Fe  Fe30      1.0  0.13261  0.91931  0.58022  1.0000
  S   S61       1.0  0.11626  0.87991  0.54794  1.0000
  S   S62       1.0  0.16003  0.95790  0.55653  1.0000
  S   S63       1.0  0.16600  0.91594  0.62121  1.0000
  C   C176      1.0  0.07691  0.86932  0.55552  1.0000
  C   C177      1.0  0.05906  0.85364  0.53222  1.0000
  C   C178      1.0  0.06326  0.87619  0.58486  1.0000
  H   H178      1.0  0.06966  0.84804  0.50957  1.0000
  H   H179      1.0  0.07714  0.88743  0.60329  1.0000
  C   C179      1.0  0.04469  0.68001  0.49039  1.0000
  C   C180      1.0  0.03675  0.71173  0.48474  1.0000
  H   H180      1.0  0.05509  0.72877  0.47903  1.0000
  Fe  Fe31      1.0  0.12892  0.99055  0.58399  1.0000
  C   C181      1.0  0.24925  0.98751  0.50453  1.0000
  C   C182      1.0  0.01236  0.99491  0.49828  1.0000
  C   C183      1.0  0.45016  0.68290  0.57869  1.0000
  H   H181      1.0  0.08495  0.71371  0.54321  1.0000
  C   C184      1.0  0.48915  0.88489  0.37526  1.0000
  C   C185      1.0  0.29131  0.56946  0.52184  1.0000
  C   C186      1.0  0.29365  0.57687  0.48968  1.0000
  C   C187      1.0  0.26618  0.57830  0.47092  1.0000
  C   C188      1.0  0.23621  0.57255  0.48416  1.0000
  C   C189      1.0  0.23379  0.56648  0.51660  1.0000
  C   C190      1.0  0.26125  0.56497  0.53534  1.0000
  H   H182      1.0  0.31663  0.58054  0.47906  1.0000
  H   H183      1.0  0.26820  0.58323  0.44586  1.0000
  H   H184      1.0  0.21085  0.56210  0.52707  1.0000
  H   H185      1.0  0.25924  0.55942  0.56027  1.0000
  C   C191      1.0  0.02348  0.55637  0.55955  1.0000
  H   H186      1.0  0.01452  0.89131  0.48124  1.0000
  C   C192      1.0  0.03651  0.52602  0.56127  1.0000
  H   H187      1.0  0.23554  0.00228  0.48886  1.0000
  H   H188      1.0  0.01235  0.70034  0.41681  1.0000
  H   H189      1.0  0.02783  0.70550  0.55301  1.0000
  H   H190      1.0  0.07905  0.80519  0.58835  1.0000
  C   C193      1.0  0.09378  0.98409  0.47421  1.0000
  H   H191      1.0  0.16124  0.99319  0.46618  1.0000
  S   S64       1.0  0.40786  0.52603  0.53483  1.0000
  C   C194      1.0  0.48329  0.67441  0.50299  1.0000
  C   C195      1.0  0.49425  0.85812  0.39381  1.0000
  H   H192      1.0  0.47215  0.72381  0.49701  1.0000
  C   C196      1.0  0.49063  0.70689  0.50180  1.0000
  C   C197      1.0  0.27741  0.97392  0.49377  1.0000
  C   C198      1.0  0.25648  0.96365  0.55624  1.0000
  C   C199      1.0  0.23878  0.98234  0.53562  1.0000
  C   C200      1.0  0.06749  0.67145  0.40744  1.0000
  C   C201      1.0  0.01381  0.85229  0.56756  1.0000
  N   N16       1.0  0.48186  0.67018  0.58397  1.0000
  C   C202      1.0  0.45363  0.87686  0.47991  1.0000
  C   C203      1.0  0.46651  0.84737  0.48781  1.0000
  S   S65       1.0  0.09934  0.95201  0.60516  1.0000
  C   C204      1.0  0.47356  0.90106  0.46923  1.0000
  H   H193      1.0  0.45126  0.82865  0.49653  1.0000
  H   H194      1.0  0.43724  0.97870  0.56435  1.0000
  H   H195      1.0  0.46435  0.92436  0.46500  1.0000
  C   C205      1.0  0.50250  0.53352  0.44730  1.0000
  C   C206      1.0  0.02830  0.96366  0.54315  1.0000
  H   H196      1.0  0.48918  0.55529  0.44857  1.0000
  H   H197      1.0  0.02150  0.87276  0.61381  1.0000
  C   C207      1.0  0.46835  0.84181  0.40654  1.0000
  H   H198      1.0  0.02676  0.63385  0.50282  1.0000
  N   N17       1.0  0.02156  0.75056  0.57510  1.0000
  S   S66       1.0  0.36805  0.00047  0.40936  1.0000
  S   S67       1.0  0.28960  0.98095  0.45454  1.0000
  C   C208      1.0  0.03182  0.86764  0.59088  1.0000
  H   H199      1.0  0.10515  0.97143  0.52221  1.0000
  H   H200      1.0  0.03865  0.96199  0.56660  1.0000
  H   H201      1.0  0.50219  0.62774  0.50967  1.0000
  H   H202      1.0  0.06937  0.69463  0.41997  1.0000
  N   N18       1.0  0.03679  0.65635  0.41345  1.0000
  H   H203      1.0  0.47257  0.82130  0.42133  1.0000
  H   H204      1.0  0.11076  0.76416  0.56044  1.0000
  H   H205      1.0  0.02554  0.54649  0.63139  1.0000
  S   S68       1.0  0.16199  0.99439  0.62580  1.0000
  H   H206      1.0  0.09539  0.96005  0.46538  1.0000
  S   S69       1.0  0.07976  0.00038  0.41317  1.0000
  H   H207      1.0  0.45397  0.91538  0.35469  1.0000
  H   H208      1.0  0.07091  0.67497  0.38162  1.0000
  C   C209      1.0  0.02519  0.99311  0.52867  1.0000
  C   C210      1.0  0.06806  0.78313  0.58063  1.0000
  N   N19       1.0  0.43825  0.85213  0.40127  1.0000
  H   H209      1.0  0.41771  0.82388  0.43778  1.0000
  H   H210      1.0  0.45092  0.70298  0.56169  1.0000
  C   C211      1.0  0.45834  0.89465  0.36919  1.0000
  H   H211      1.0  0.05502  0.60937  0.41018  1.0000
  C   C212      1.0  0.48581  0.63843  0.58910  1.0000
  H   H212      1.0  0.29868  0.93586  0.56151  1.0000
  H   H213      1.0  0.39136  0.85093  0.41970  1.0000
  C   C213      1.0  0.49883  0.84155  0.48293  1.0000
  H   H214      1.0  0.40345  0.81588  0.39796  1.0000
  C   C214      1.0  0.09970  0.99058  0.50631  1.0000
  H   H215      1.0  0.43454  0.98052  0.50595  1.0000
  H   H216      1.0  0.21736  0.99348  0.54385  1.0000
  C   C215      1.0  0.30245  0.51220  0.43858  1.0000
  Fe  Fe32      1.0  0.13509  0.95233  0.64471  1.0000
  C   C216      1.0  0.07135  0.73189  0.55529  1.0000
  H   H217      1.0  0.43975  0.69095  0.60144  1.0000
  C   C217      1.0  0.03902  0.72742  0.56077  1.0000
  H   H218      1.0  0.02224  0.79559  0.59830  1.0000
  H   H219      1.0  0.48818  0.95013  0.57827  1.0000
  N   N20       1.0  0.18557  0.94984  0.45940  1.0000
  C   C218      1.0  0.17057  0.93115  0.48122  1.0000
  C   C219      1.0  0.21571  0.94302  0.44997  1.0000
  C   C220      1.0  0.18621  0.90562  0.49513  1.0000
  C   C221      1.0  0.23204  0.91765  0.46337  1.0000
  C   C222      1.0  0.21726  0.89909  0.48636  1.0000
  C   C223      1.0  0.16912  0.97743  0.44653  1.0000
  H   H220      1.0  0.14658  0.93631  0.48857  1.0000
  H   H221      1.0  0.22785  0.95783  0.43281  1.0000
  H   H222      1.0  0.17446  0.89138  0.51305  1.0000
  H   H223      1.0  0.25639  0.91321  0.45667  1.0000
  H   H224      1.0  0.22995  0.87989  0.49756  1.0000
  H   H225      1.0  0.18456  0.99183  0.43080  1.0000
  H   H226      1.0  0.14810  0.96971  0.43264  1.0000
  C   C224      1.0  0.02089  0.65820  0.49790  1.0000
  H   H227      1.0  0.08709  0.65677  0.41680  1.0000
  S   S70       1.0  0.42724  0.95220  0.42110  1.0000
  Fe  Fe33      1.0  0.38540  0.95450  0.38863  1.0000
  C   C225      1.0  0.08582  0.76013  0.56499  1.0000
  C   C226      1.0  0.01831  0.93635  0.52705  1.0000
  C   C227      1.0  0.29524  0.95529  0.51437  1.0000
  H   H228      1.0  0.46577  0.62232  0.58876  1.0000
  H   H229      1.0  0.03837  0.57649  0.55388  1.0000
  C   C228      1.0  0.28489  0.95036  0.54565  1.0000
  H   H230      1.0  0.31684  0.94443  0.50619  1.0000
  Fe  Fe34      1.0  0.40728  0.99502  0.44504  1.0000
  H   H231      1.0  0.43431  0.66484  0.56776  1.0000
  C   C229      1.0  0.41137  0.83469  0.41466  1.0000
  C   C230      1.0  0.01075  0.53000  0.64449  1.0000
  C   C231      1.0  0.08533  0.00855  0.45362  1.0000
  H   H232      1.0  0.21328  0.97436  0.67041  1.0000
  C   C232      1.0  0.44529  0.99964  0.55194  1.0000
  C   C233      1.0  0.43300  0.87781  0.38236  1.0000
  H   H233      1.0  0.01392  0.83302  0.52024  1.0000
  H   H234      1.0  0.22576  0.93469  0.66074  1.0000
  H   H235      1.0  0.48719  0.89158  0.57321  1.0000
  C   C234      1.0  0.03583  0.77773  0.58587  1.0000
  C   C235      1.0  0.44297  0.00093  0.51887  1.0000
  H   H236      1.0  0.25368  0.96233  0.67649  1.0000
  H   H237      1.0  0.37142  0.99314  0.57487  1.0000
  S   S71       1.0  0.07686  0.51988  0.55423  1.0000
  C   C236      1.0  0.01050  0.67469  0.41722  1.0000
  H   H238      1.0  0.34962  0.51951  0.42041  1.0000
  H   H239      1.0  0.03047  0.51103  0.47932  1.0000
  C   C237      1.0  0.50556  0.89509  0.46361  1.0000
  H   H240      1.0  0.29079  0.51868  0.41667  1.0000
  H   H241      1.0  0.50419  0.71556  0.58073  1.0000
  C   C238      1.0  0.33535  0.51284  0.44073  1.0000
  C   C239      1.0  0.50721  0.69043  0.58507  1.0000
  C   C240      1.0  0.50682  0.93830  0.56521  1.0000
  C   C241      1.0  0.50617  0.90523  0.56254  1.0000
  C   C242      1.0  0.50736  0.65273  0.50901  1.0000
  S   S72       1.0  0.25352  0.99358  0.94615  1.0000
  S   S73       1.0  0.44448  0.91590  0.94344  1.0000
  C   C243      1.0  0.12342  0.95493  0.75880  1.0000
  N   N21       1.0  0.22019  0.94473  0.71017  1.0000
  H   H242      1.0  0.18675  0.90995  0.69449  1.0000
  C   C244      1.0  0.23281  0.96059  0.73559  1.0000
  Fe  Fe35      1.0  0.13948  0.96207  0.92210  1.0000
  H   H243      1.0  0.05463  0.97850  0.93772  1.0000
  S   S74       1.0  0.10553  0.92358  0.93652  1.0000
  H   H244      1.0  0.14980  0.93343  0.98861  1.0000
  C   C245      1.0  0.22400  0.95254  0.76651  1.0000
  H   H245      1.0  0.47342  0.61436  0.89545  1.0000
  C   C246      1.0  0.15784  0.99464  0.78260  1.0000
  S   S75       1.0  0.18486  0.95858  0.89442  1.0000
  C   C247      1.0  0.07430  0.90576  0.99013  1.0000
  H   H246      1.0  0.46900  0.66155  0.86101  1.0000
  C   C248      1.0  0.10254  0.91771  0.97764  1.0000
  S   S76       1.0  0.15882  0.99478  0.95934  1.0000
  C   C249      1.0  0.19817  0.92127  0.71462  1.0000
  H   H247      1.0  0.05486  0.90003  0.97443  1.0000
  H   H248      1.0  0.24921  0.98011  0.73206  1.0000
  H   H249      1.0  0.01863  0.99894  0.94845  1.0000
  C   C250      1.0  0.47472  0.63800  0.90561  1.0000
  H   H250      1.0  0.10694  0.93540  0.76146  1.0000
  C   C251      1.0  0.46056  0.89869  0.00418  1.0000
  H   H251      1.0  0.38200  0.88890  0.96897  1.0000
  C   C252      1.0  0.13590  0.96998  0.78592  1.0000
  H   H252      1.0  0.47953  0.71856  0.85532  1.0000
  C   C253      1.0  0.43674  0.95020  0.99774  1.0000
  S   S77       1.0  0.48911  0.85448  0.88510  1.0000
  N   N22       1.0  0.47335  0.69458  0.89923  1.0000
  H   H253      1.0  0.47949  0.72230  0.94123  1.0000
  H   H254      1.0  0.34469  0.90103  0.95319  1.0000
  S   S78       1.0  0.47685  0.54894  0.92860  1.0000
  H   H255      1.0  0.12909  0.96203  0.80930  1.0000
  C   C254      1.0  0.15407  0.98964  0.72502  1.0000
  H   H256      1.0  0.23309  0.96592  0.78663  1.0000
  C   C255      1.0  0.13285  0.96435  0.72829  1.0000
  H   H257      1.0  0.46948  0.87690  0.99405  1.0000
  C   C256      1.0  0.47188  0.66477  0.88637  1.0000
  H   H258      1.0  0.50397  0.54052  0.75311  1.0000
  N   N23       1.0  0.04366  0.97963  0.98717  1.0000
  H   H259      1.0  0.47936  0.74395  0.88926  1.0000
  S   S79       1.0  0.11949  0.94235  0.69516  1.0000
  C   C257      1.0  0.16642  0.00478  0.75210  1.0000
  C   C258      1.0  0.18896  0.91250  0.74521  1.0000
  C   C259      1.0  0.23851  0.98799  0.00959  1.0000
  C   C260      1.0  0.46838  0.72221  0.87891  1.0000
  H   H260      1.0  0.19407  0.92269  0.79508  1.0000
  C   C261      1.0  0.20200  0.92828  0.77128  1.0000
  C   C262      1.0  0.12759  0.92500  0.99810  1.0000
  C   C263      1.0  0.44822  0.92212  0.98443  1.0000
  H   H261      1.0  0.44273  0.72635  0.87573  1.0000
  H   H262      1.0  0.42784  0.96870  0.98253  1.0000
  C   C264      1.0  0.50475  0.52561  0.73132  1.0000
  S   S80       1.0  0.11945  0.00032  0.89134  1.0000
  H   H263      1.0  0.16128  0.99723  0.70166  1.0000
  H   H264      1.0  0.48563  0.67567  0.97609  1.0000
  H   H265      1.0  0.37341  0.93042  0.96561  1.0000
  C   C265      1.0  0.47959  0.64186  0.93806  1.0000
  H   H266      1.0  0.31243  0.99111  0.97830  1.0000
  C   C266      1.0  0.36296  0.90685  0.97123  1.0000
  H   H267      1.0  0.21397  0.98783  0.00255  1.0000
  C   C267      1.0  0.29397  0.98978  0.99601  1.0000
  H   H268      1.0  0.17067  0.89469  0.74854  1.0000
  C   C268      1.0  0.03385  0.97832  0.95390  1.0000
  Fe  Fe36      1.0  0.16664  0.00038  0.86718  1.0000
  C   C269      1.0  0.31834  0.91258  0.00810  1.0000
  C   C270      1.0  0.26224  0.98987  0.98663  1.0000
  Fe  Fe37      1.0  0.20273  0.99471  0.92963  1.0000
  H   H269      1.0  0.49386  0.53922  0.71170  1.0000
  C   C271      1.0  0.47782  0.69862  0.93111  1.0000
  C   C272      1.0  0.48136  0.67236  0.95095  1.0000
  H   H270      1.0  0.02072  0.95597  0.94888  1.0000
  Fe  Fe38      1.0  0.48736  0.89445  0.92046  1.0000
  C   C273      1.0  0.07267  0.99176  0.99506  1.0000
  H   H271      1.0  0.08861  0.00033  0.97681  1.0000
  C   C274      1.0  0.22861  0.95453  0.67796  1.0000
  H   H272      1.0  0.48227  0.62115  0.95302  1.0000
  H   H273      1.0  0.50240  0.95408  0.95722  1.0000
  N   N24       1.0  0.34985  0.90719  0.00340  1.0000
  H   H274      1.0  0.30263  0.91611  0.98812  1.0000
  S   S81       1.0  0.65667  0.49473  0.12572  1.0000
  C   C275      1.0  0.94417  0.44989  0.23056  1.0000
  S   S82       1.0  0.61157  0.15669  0.05296  1.0000
  H   H275      1.0  0.74446  0.47275  0.18604  1.0000
  C   C276      1.0  0.95814  0.47891  0.22187  1.0000
  C   C277      1.0  0.71819  0.45007  0.23959  1.0000
  S   S83       1.0  0.97605  0.26151  0.32057  1.0000
  S   S84       1.0  0.55808  0.07891  0.07205  1.0000
  H   H276      1.0  0.70253  0.36043  0.22951  1.0000
  Fe  Fe39      1.0  0.61305  0.48367  0.09780  1.0000
  S   S85       1.0  0.92512  0.08432  0.07929  1.0000
  C   C278      1.0  0.79138  0.13831  0.01806  1.0000
  Fe  Fe40      1.0  0.67560  0.44999  0.10459  1.0000
  S   S86       1.0  0.72699  0.44896  0.09104  1.0000
  Fe  Fe41      1.0  0.61394  0.41453  0.11433  1.0000
  S   S87       1.0  0.58816  0.36997  0.10035  1.0000
  S   S88       1.0  0.63365  0.44157  0.07327  1.0000
  S   S89       1.0  0.65799  0.41871  0.14386  1.0000
  H   H277      1.0  0.51475  0.13027  0.05872  1.0000
  H   H278      1.0  0.85648  0.09289  0.06447  1.0000
  C   C279      1.0  0.85993  0.03063  0.07357  1.0000
  C   C280      1.0  0.63890  0.45672  0.24621  1.0000
  C   C281      1.0  0.63146  0.42456  0.24289  1.0000
  C   C282      1.0  0.63003  0.40508  0.26981  1.0000
  C   C283      1.0  0.63608  0.41762  0.30010  1.0000
  C   C284      1.0  0.64319  0.44987  0.30340  1.0000
  S   S90       1.0  0.99796  0.03416  0.28185  1.0000
  H   H279      1.0  0.62697  0.41468  0.21961  1.0000
  H   H280      1.0  0.62438  0.38014  0.26716  1.0000
  H   H281      1.0  0.71304  0.39420  0.18281  1.0000
  C   C285      1.0  0.53203  0.40104  0.10484  1.0000
  C   C286      1.0  0.55058  0.38051  0.08679  1.0000
  C   C287      1.0  0.53879  0.36820  0.05821  1.0000
  H   H282      1.0  0.54068  0.41002  0.12724  1.0000
  H   H283      1.0  0.55315  0.35236  0.04411  1.0000
  N   N25       1.0  0.85077  0.04596  0.04664  1.0000
  C   C288      1.0  0.73569  0.45713  0.05109  1.0000
  C   C289      1.0  0.57136  0.49628  0.30367  1.0000
  C   C290      1.0  0.76726  0.45790  0.04107  1.0000
  H   H284      1.0  0.64770  0.45978  0.32662  1.0000
  H   H285      1.0  0.55981  0.41715  0.29258  1.0000
  S   S91       1.0  0.59017  0.45628  0.13704  1.0000
  C   C291      1.0  0.72873  0.21914  0.01987  1.0000
  H   H286      1.0  0.55489  0.44573  0.05176  1.0000
  C   C292      1.0  0.93743  0.04483  0.07447  1.0000
  H   H287      1.0  0.78589  0.45212  0.05758  1.0000
  Fe  Fe42      1.0  0.65090  0.13666  0.02347  1.0000
  H   H288      1.0  0.51130  0.03042  0.07829  1.0000
  H   H289      1.0  0.00056  0.21497  0.05895  1.0000
  C   C293      1.0  0.85014  0.03031  0.01817  1.0000
  Fe  Fe43      1.0  0.91978  0.11110  0.03352  1.0000
  S   S92       1.0  0.99545  0.35098  0.31796  1.0000
  C   C294      1.0  0.94875  0.43750  0.26101  1.0000
  N   N26       1.0  0.57071  0.49730  0.33610  1.0000
  C   C295      1.0  0.64461  0.46934  0.27651  1.0000
  Fe  Fe44      1.0  0.94915  0.37624  0.31493  1.0000
  H   H290      1.0  0.86110  0.04326  0.09601  1.0000
  S   S93       1.0  0.96100  0.13580  0.01100  1.0000
  H   H291      1.0  0.84094  0.09064  0.02514  1.0000
  H   H292      1.0  0.93013  0.43678  0.21348  1.0000
  H   H293      1.0  0.99503  0.01606  0.21632  1.0000
  S   S94       1.0  0.88694  0.15255  0.02919  1.0000
  H   H294      1.0  0.76501  0.14993  0.06024  1.0000
  C   C296      1.0  0.56217  0.43977  0.30474  1.0000
  H   H295      1.0  0.95507  0.48801  0.19815  1.0000
  H   H296      1.0  0.55396  0.25355  0.07127  1.0000
  H   H297      1.0  0.93895  0.04662  0.02359  1.0000
  C   C297      1.0  0.95413  0.49460  0.05173  1.0000
  H   H298      1.0  0.87059  0.38769  0.31038  1.0000
  Fe  Fe45      1.0  0.63596  0.46307  0.16315  1.0000
  C   C298      1.0  0.86493  0.40108  0.33166  1.0000
  N   N27       1.0  0.99625  0.48339  0.01528  1.0000
  C   C299      1.0  0.84046  0.07900  0.04870  1.0000
  H   H299      1.0  0.81597  0.08010  0.05805  1.0000
  C   C300      1.0  0.67127  0.22459  0.01781  1.0000
  S   S95       1.0  0.63472  0.39230  0.33314  1.0000
  C   C301      1.0  0.71299  0.43140  0.26646  1.0000
  H   H300      1.0  0.96664  0.28857  0.01068  1.0000
  S   S96       1.0  0.69963  0.14424  0.04434  1.0000
  H   H301      1.0  0.63765  0.49732  0.03448  1.0000
  H   H302      1.0  0.54951  0.30647  0.09739  1.0000
  H   H303      1.0  0.72776  0.22433  0.04504  1.0000
  Fe  Fe46      1.0  0.99919  0.03909  0.33527  1.0000
  H   H304      1.0  0.98478  0.19627  0.30443  1.0000
  C   C302      1.0  0.98510  0.19809  0.33002  1.0000
  Fe  Fe47      1.0  0.58465  0.11252  0.04044  1.0000
  N   N28       1.0  0.71865  0.43663  0.21004  1.0000
  H   H305      1.0  0.94625  0.50340  0.07461  1.0000
  C   C303      1.0  0.54833  0.45744  0.02991  1.0000
  C   C304      1.0  0.94079  0.03179  0.04417  1.0000
  C   C305      1.0  0.94126  0.02540  0.10108  1.0000
  H   H306      1.0  0.68739  0.46421  0.03709  1.0000
  C   C306      1.0  0.97641  0.49583  0.24382  1.0000
  C   C307      1.0  0.70743  0.39896  0.26287  1.0000
  C   C308      1.0  0.70749  0.38552  0.23260  1.0000
  S   S97       1.0  0.92108  0.33490  0.33308  1.0000
  S   S98       1.0  0.93188  0.40059  0.27082  1.0000
  C   C309      1.0  0.50867  0.06360  0.15357  1.0000
  H   H307      1.0  0.53449  0.02733  0.17805  1.0000
  H   H308      1.0  0.93893  0.03541  0.12461  1.0000
  H   H309      1.0  0.70202  0.38451  0.28346  1.0000
  Fe  Fe48      1.0  0.96780  0.31101  0.34005  1.0000
  H   H310      1.0  0.99421  0.49695  0.29168  1.0000
  C   C310      1.0  0.96671  0.45461  0.28306  1.0000
  C   C311      1.0  0.98021  0.48385  0.27456  1.0000
  S   S99       1.0  0.64201  0.48183  0.21318  1.0000
  S   S100      1.0  0.62569  0.09042  0.01549  1.0000
  H   H311      1.0  0.65035  0.49425  0.27917  1.0000
  C   C312      1.0  0.71175  0.46463  0.02962  1.0000
  C   C313      1.0  0.71327  0.40480  0.20628  1.0000
  H   H312      1.0  0.97024  0.44535  0.30664  1.0000
  H   H313      1.0  0.71195  0.44220  0.28982  1.0000
  H   H314      1.0  0.77934  0.21270  0.02000  1.0000
  C   C314      1.0  0.93207  0.48472  0.02912  1.0000
  H   H315      1.0  0.51864  0.47749  0.07969  1.0000
  H   H316      1.0  0.81405  0.14359  0.02866  1.0000
  C   C315      1.0  0.73388  0.13648  0.02201  1.0000
  H   H317      1.0  0.99693  0.22606  0.10020  1.0000
  C   C316      1.0  0.98634  0.49378  0.04436  1.0000
  H   H318      1.0  0.72824  0.44289  0.16046  1.0000
  C   C317      1.0  0.99671  0.23514  0.07556  1.0000
  N   N29       1.0  0.52339  0.47790  0.02927  1.0000
  C   C318      1.0  0.53112  0.26496  0.07342  1.0000
  C   C319      1.0  0.51686  0.08031  0.06881  1.0000
  H   H319      1.0  0.56292  0.01909  0.03397  1.0000
  C   C320      1.0  0.76357  0.14202  0.03585  1.0000
  H   H320      1.0  0.00338  0.50170  0.06197  1.0000
  H   H321      1.0  0.99497  0.14833  0.33680  1.0000
  H   H322      1.0  0.97279  0.24444  0.07007  1.0000
  H   H323      1.0  0.66421  0.20402  0.03265  1.0000
  H   H324      1.0  0.90700  0.48567  0.03437  1.0000
  H   H325      1.0  0.72102  0.47550  0.24242  1.0000
  H   H326      1.0  0.67303  0.24598  0.03314  1.0000
  C   C321      1.0  0.72371  0.45693  0.18236  1.0000
  H   H327      1.0  0.56802  0.46670  0.26181  1.0000
  H   H328      1.0  0.90000  0.43713  0.32269  1.0000
  H   H329      1.0  0.99127  0.29648  0.08971  1.0000
  C   C322      1.0  0.56679  0.46757  0.28751  1.0000
  H   H330      1.0  0.70247  0.47170  0.17831  1.0000
  C   C323      1.0  0.51272  0.04072  0.17696  1.0000
  H   H331      1.0  0.52734  0.06824  0.13650  1.0000
  C   C324      1.0  0.52864  0.29463  0.08792  1.0000
  C   C325      1.0  0.88162  0.42884  0.33867  1.0000
  C   C326      1.0  0.56199  0.44098  0.33777  1.0000
  H   H332      1.0  0.75804  0.40677  0.58937  1.0000
  H   H333      1.0  0.88624  0.15930  0.36197  1.0000
  H   H334      1.0  0.88724  0.05638  0.40953  1.0000
  H   H335      1.0  0.56538  0.45075  0.54537  1.0000
  H   H336      1.0  0.88464  0.09848  0.36883  1.0000
  H   H337      1.0  0.56624  0.23446  0.56609  1.0000
  C   C327      1.0  0.85171  0.43388  0.38714  1.0000
  C   C328      1.0  0.92661  0.13786  0.42407  1.0000
  S   S101      1.0  0.60319  0.37679  0.63214  1.0000
  Fe  Fe49      1.0  0.62624  0.39680  0.45262  1.0000
  S   S102      1.0  0.64713  0.44255  0.47023  1.0000
  S   S103      1.0  0.60387  0.35950  0.48364  1.0000
  Fe  Fe50      1.0  0.64040  0.41208  0.38286  1.0000
  S   S104      1.0  0.97414  0.32897  0.38985  1.0000
  Fe  Fe51      1.0  0.68592  0.43294  0.43518  1.0000
  S   S105      1.0  0.73874  0.43432  0.44390  1.0000
  H   H338      1.0  0.55760  0.25350  0.65786  1.0000
  S   S106      1.0  0.66673  0.38540  0.42036  1.0000
  S   S107      1.0  0.59782  0.41857  0.41371  1.0000
  Fe  Fe52      1.0  0.92954  0.35629  0.38107  1.0000
  S   S108      1.0  0.88889  0.36449  0.41431  1.0000
  C   C329      1.0  0.56623  0.47014  0.35315  1.0000
  Fe  Fe53      1.0  0.90099  0.42778  0.58211  1.0000
  S   S109      1.0  0.87977  0.46982  0.55809  1.0000
  S   S110      1.0  0.93174  0.39410  0.55484  1.0000
  Fe  Fe54      1.0  0.88440  0.45179  0.64911  1.0000
  H   H339      1.0  0.71008  0.34533  0.49852  1.0000
  Fe  Fe55      1.0  0.84053  0.46337  0.59333  1.0000
  S   S111      1.0  0.78861  0.46808  0.58178  1.0000
  S   S112      1.0  0.96152  0.06520  0.36252  1.0000
  S   S113      1.0  0.85998  0.41868  0.61474  1.0000
  S   S114      1.0  0.92721  0.45621  0.61836  1.0000
  Fe  Fe56      1.0  0.96781  0.02666  0.39869  1.0000
  C   C330      1.0  0.91057  0.15597  0.37117  1.0000
  Fe  Fe57      1.0  0.99778  0.37112  0.36719  1.0000
  H   H340      1.0  0.82152  0.37921  0.41905  1.0000
  H   H341      1.0  0.53757  0.15217  0.58067  1.0000
  C   C331      1.0  0.55028  0.17273  0.65431  1.0000
  H   H342      1.0  0.66948  0.36122  0.61119  1.0000
  S   S115      1.0  0.86237  0.49601  0.62989  1.0000
  C   C332      1.0  0.91426  0.08505  0.44214  1.0000
  C   C333      1.0  0.54269  0.23187  0.57588  1.0000
  C   C334      1.0  0.98448  0.45089  0.50435  1.0000
  C   C335      1.0  0.81057  0.39539  0.40155  1.0000
  H   H343      1.0  0.72801  0.47493  0.55277  1.0000
  C   C336      1.0  0.90094  0.37350  0.45317  1.0000
  C   C337      1.0  0.93158  0.36656  0.46317  1.0000
  C   C338      1.0  0.94066  0.37261  0.49456  1.0000
  C   C339      1.0  0.91941  0.38640  0.51587  1.0000
  C   C340      1.0  0.88897  0.39414  0.50574  1.0000
  C   C341      1.0  0.87963  0.38737  0.47448  1.0000
  H   H344      1.0  0.94810  0.35583  0.44697  1.0000
  H   H345      1.0  0.96416  0.36648  0.50237  1.0000
  H   H346      1.0  0.87242  0.40465  0.52218  1.0000
  H   H347      1.0  0.85589  0.39280  0.46694  1.0000
  C   C342      1.0  0.77565  0.46021  0.54285  1.0000
  C   C343      1.0  0.79598  0.44765  0.51996  1.0000
  C   C344      1.0  0.78451  0.44021  0.48953  1.0000
  C   C345      1.0  0.75263  0.44506  0.48189  1.0000
  C   C346      1.0  0.73234  0.45765  0.50477  1.0000
  C   C347      1.0  0.74384  0.46526  0.53512  1.0000
  H   H348      1.0  0.79910  0.41523  0.41452  1.0000
  N   N30       1.0  0.91083  0.13209  0.39632  1.0000
  H   H349      1.0  0.70784  0.46176  0.49910  1.0000
  C   C348      1.0  0.99202  0.17328  0.38128  1.0000
  H   H350      1.0  0.74906  0.39551  0.53254  1.0000
  C   C349      1.0  0.60001  0.37383  0.59082  1.0000
  C   C350      1.0  0.58598  0.34719  0.57679  1.0000
  C   C351      1.0  0.58643  0.34354  0.54373  1.0000
  C   C352      1.0  0.60065  0.36663  0.52457  1.0000
  C   C353      1.0  0.61358  0.39388  0.53857  1.0000
  C   C354      1.0  0.61350  0.39734  0.57167  1.0000
  H   H351      1.0  0.57605  0.32876  0.59152  1.0000
  H   H352      1.0  0.57647  0.32238  0.53300  1.0000
  H   H353      1.0  0.62461  0.41177  0.52412  1.0000
  H   H354      1.0  0.62451  0.41794  0.58250  1.0000
  H   H355      1.0  0.84734  0.44626  0.40928  1.0000
  C   C355      1.0  0.84161  0.39036  0.35265  1.0000
  Fe  Fe58      1.0  0.55917  0.36112  0.65772  1.0000
  Fe  Fe59      1.0  0.90370  0.49779  0.59643  1.0000
  C   C356      1.0  0.73677  0.39431  0.58183  1.0000
  H   H356      1.0  0.88884  0.46623  0.37287  1.0000
  H   H357      1.0  0.70857  0.38760  0.49164  1.0000
  H   H358      1.0  0.00812  0.50021  0.37562  1.0000
  H   H359      1.0  0.67307  0.36639  0.50059  1.0000
  C   C357      1.0  0.69877  0.36779  0.50604  1.0000
  H   H360      1.0  0.91627  0.06635  0.45962  1.0000
  S   S116      1.0  0.54172  0.05903  0.60496  1.0000
  C   C358      1.0  0.89649  0.10338  0.39112  1.0000
  H   H361      1.0  0.98531  0.42569  0.50938  1.0000
  C   C359      1.0  0.98499  0.50468  0.57528  1.0000
  S   S117      1.0  0.95366  0.39969  0.36237  1.0000
  H   H362      1.0  0.94231  0.11871  0.46869  1.0000
  C   C360      1.0  0.52517  0.42108  0.55494  1.0000
  H   H363      1.0  0.79149  0.38241  0.38882  1.0000
  C   C361      1.0  0.51957  0.16976  0.66609  1.0000
  H   H364      1.0  0.57239  0.17592  0.58005  1.0000
  H   H365      1.0  0.55935  0.41932  0.35134  1.0000
  C   C362      1.0  0.98088  0.22990  0.37762  1.0000
  H   H366      1.0  0.55941  0.49880  0.51076  1.0000
  S   S118      1.0  0.00524  0.05318  0.42524  1.0000
  C   C363      1.0  0.68718  0.36871  0.59407  1.0000
  H   H367      1.0  0.71786  0.39004  0.62905  1.0000
  C   C364      1.0  0.89785  0.07949  0.41399  1.0000
  H   H368      1.0  0.82044  0.44337  0.52578  1.0000
  N   N31       1.0  0.70424  0.37335  0.53993  1.0000
  Fe  Fe60      1.0  0.62131  0.46374  0.42900  1.0000
  C   C365      1.0  0.92876  0.11439  0.44727  1.0000
  C   C366      1.0  0.53729  0.47744  0.44331  1.0000
  H   H369      1.0  0.80037  0.43033  0.47208  1.0000
  N   N32       1.0  0.52983  0.20237  0.58028  1.0000
  C   C367      1.0  0.68274  0.36272  0.56172  1.0000
  C   C368      1.0  0.95488  0.49955  0.50366  1.0000
  H   H370      1.0  0.98784  0.20479  0.42144  1.0000
  C   C369      1.0  0.73145  0.38807  0.54968  1.0000
  C   C370      1.0  0.98683  0.20278  0.39589  1.0000
  N   N33       1.0  0.83477  0.40716  0.37959  1.0000
  H   H371      1.0  0.66169  0.35001  0.55414  1.0000
  C   C371      1.0  0.71427  0.38487  0.60409  1.0000
  H   H372      1.0  0.97734  0.25262  0.38904  1.0000
  H   H373      1.0  0.51669  0.49798  0.61944  1.0000
  C   C372      1.0  0.99084  0.17092  0.34829  1.0000
  C   C373      1.0  0.51604  0.22726  0.67148  1.0000
  Fe  Fe61      1.0  0.56995  0.02177  0.62951  1.0000
  H   H374      1.0  0.93554  0.45437  0.51793  1.0000
  S   S119      1.0  0.66229  0.45901  0.39528  1.0000
  H   H375      1.0  0.55053  0.45572  0.44242  1.0000
  H   H376      1.0  0.97035  0.48448  0.58051  1.0000
  C   C374      1.0  0.87526  0.44521  0.36673  1.0000
  H   H377      1.0  0.82944  0.36824  0.34758  1.0000
  H   H378      1.0  0.93864  0.16031  0.42801  1.0000
  Fe  Fe62      1.0  0.55199  0.08978  0.64735  1.0000
  S   S120      1.0  0.57115  0.13953  0.64016  1.0000
  H   H379      1.0  0.56629  0.47096  0.37884  1.0000
  C   C375      1.0  0.53981  0.44903  0.54461  1.0000
  C   C376      1.0  0.95614  0.46702  0.50922  1.0000
  C   C377      1.0  0.56405  0.20300  0.65172  1.0000
  H   H380      1.0  0.58786  0.20541  0.64271  1.0000
  N   N34       1.0  0.52216  0.47392  0.53405  1.0000
  S   S121      1.0  0.00162  0.14049  0.40508  1.0000
  C   C378      1.0  0.54702  0.23023  0.66035  1.0000
  H   H381      1.0  0.91930  0.17945  0.37968  1.0000
  H   H382      1.0  0.00353  0.44234  0.36740  1.0000
  C   C379      1.0  0.54785  0.17435  0.57071  1.0000
  H   H383      1.0  0.53922  0.40153  0.56367  1.0000
  Fe  Fe63      1.0  0.00215  0.08971  0.38681  1.0000
  H   H384      1.0  0.54845  0.17226  0.54450  1.0000
  H   H385      1.0  0.53661  0.28238  0.58212  1.0000
  S   S122      1.0  0.51816  0.33873  0.63221  1.0000
  S   S123      1.0  0.58420  0.05399  0.66938  1.0000
  C   C380      1.0  0.53798  0.50360  0.52522  1.0000
  S   S124      1.0  0.59366  0.50916  0.43249  1.0000
  C   C381      1.0  0.00241  0.47856  0.66787  1.0000
  H   H386      1.0  0.92618  0.14829  0.35143  1.0000
  C   C382      1.0  0.52604  0.25905  0.58476  1.0000
  C   C383      1.0  0.98034  0.22769  0.34458  1.0000
  C   C384      1.0  0.55273  0.50667  0.43988  1.0000
  S   S125      1.0  0.50897  0.07399  0.67446  1.0000
  C   C385      1.0  0.97171  0.48760  0.67606  1.0000
  H   H387      1.0  0.50875  0.14657  0.66818  1.0000
  C   C386      1.0  0.98698  0.39755  0.95509  1.0000
  C   C387      1.0  0.55527  0.48467  0.78898  1.0000
  Fe  Fe64      1.0  0.60515  0.11347  0.97254  1.0000
  S   S126      1.0  0.59559  0.08596  0.92759  1.0000
  S   S127      1.0  0.63417  0.15810  0.97793  1.0000
  C   C388      1.0  0.71941  0.47339  0.99848  1.0000
  H   H388      1.0  0.64682  0.06058  0.88346  1.0000
  S   S128      1.0  0.91074  0.15685  0.95476  1.0000
  C   C389      1.0  0.64519  0.50320  0.81393  1.0000
  H   H389      1.0  0.70087  0.47943  0.98207  1.0000
  H   H390      1.0  0.63008  0.04350  0.96843  1.0000
  Fe  Fe65      1.0  0.94187  0.11540  0.96565  1.0000
  S   S129      1.0  0.97070  0.09012  0.92854  1.0000
  H   H391      1.0  0.73192  0.19494  0.93174  1.0000
  S   S130      1.0  0.85382  0.47671  0.96182  1.0000
  S   S131      1.0  0.82229  0.45157  0.89416  1.0000
  S   S132      1.0  0.89649  0.44041  0.70030  1.0000
  Fe  Fe66      1.0  0.81007  0.48583  0.93322  1.0000
  H   H392      1.0  0.52547  0.49918  0.95210  1.0000
  Fe  Fe67      1.0  0.86811  0.44613  0.92072  1.0000
  S   S133      1.0  0.89409  0.40139  0.93285  1.0000
  C   C390      1.0  0.94238  0.47425  0.99950  1.0000
  H   H393      1.0  0.00128  0.38717  0.97337  1.0000
  C   C391      1.0  0.99850  0.21833  0.98783  1.0000
  S   S134      1.0  0.55562  0.32986  0.70086  1.0000
  S   S135      1.0  0.56261  0.13339  0.99716  1.0000
  C   C392      1.0  0.87381  0.46359  0.79096  1.0000
  C   C393      1.0  0.88644  0.44859  0.76397  1.0000
  C   C394      1.0  0.87944  0.45962  0.73339  1.0000
  C   C395      1.0  0.93454  0.32239  0.91411  1.0000
  H   H394      1.0  0.55864  0.03763  0.89646  1.0000
  H   H395      1.0  0.87907  0.45470  0.81436  1.0000
  H   H396      1.0  0.90139  0.42809  0.76675  1.0000
  C   C396      1.0  0.97597  0.23979  0.99886  1.0000
  C   C397      1.0  0.93513  0.40733  0.93244  1.0000
  C   C398      1.0  0.95403  0.39346  0.95576  1.0000
  H   H397      1.0  0.93894  0.48968  0.80069  1.0000
  C   C399      1.0  0.94930  0.42501  0.90831  1.0000
  H   H398      1.0  0.94315  0.37960  0.97439  1.0000
  C   C400      1.0  0.57371  0.02623  0.91365  1.0000
  H   H399      1.0  0.93507  0.43454  0.88945  1.0000
  S   S136      1.0  0.82378  0.12446  0.96290  1.0000
  H   H400      1.0  0.98207  0.47846  0.83915  1.0000
  C   C401      1.0  0.75995  0.12237  0.97277  1.0000
  C   C402      1.0  0.52286  0.21755  0.98171  1.0000
  H   H401      1.0  0.92541  0.46676  0.98163  1.0000
  H   H402      1.0  0.00233  0.26304  0.92614  1.0000
  Fe  Fe68      1.0  0.59339  0.17587  0.00697  1.0000
  H   H403      1.0  0.90345  0.28442  0.92856  1.0000
  H   H404      1.0  0.63368  0.49454  0.89291  1.0000
  C   C403      1.0  0.64635  0.49778  0.87080  1.0000
  H   H405      1.0  0.95652  0.47070  0.68817  1.0000
  C   C404      1.0  0.53631  0.42146  0.77904  1.0000
  C   C405      1.0  0.75914  0.20389  0.97396  1.0000
  S   S137      1.0  0.52114  0.38328  0.77155  1.0000
  Fe  Fe69      1.0  0.52379  0.36792  0.72004  1.0000
  H   H406      1.0  0.75848  0.11476  0.94830  1.0000
  C   C406      1.0  0.53972  0.46815  0.81314  1.0000
  H   H407      1.0  0.55879  0.42600  0.73362  1.0000
  C   C407      1.0  0.56623  0.45194  0.00260  1.0000
  S   S138      1.0  0.53120  0.40079  0.67906  1.0000
  C   C408      1.0  0.56241  0.46921  0.76051  1.0000
  H   H408      1.0  0.53424  0.06085  0.96393  1.0000
  C   C409      1.0  0.85998  0.48603  0.72998  1.0000
  C   C410      1.0  0.98212  0.42929  0.90777  1.0000
  S   S139      1.0  0.90288  0.08782  0.98881  1.0000
  Fe  Fe70      1.0  0.87323  0.13107  0.98246  1.0000
  H   H409      1.0  0.65432  0.50925  0.97945  1.0000
  C   C411      1.0  0.78963  0.12844  0.98644  1.0000
  H   H410      1.0  0.60371  0.49649  0.84263  1.0000
  N   N35       1.0  0.53444  0.01898  0.99227  1.0000
  C   C412      1.0  0.84766  0.50126  0.75699  1.0000
  C   C413      1.0  0.55300  0.43771  0.75558  1.0000
  C   C414      1.0  0.85436  0.49001  0.78753  1.0000
  H   H411      1.0  0.91562  0.33934  0.91076  1.0000
  S   S140      1.0  0.58214  0.22819  0.00642  1.0000
  H   H412      1.0  0.94708  0.24597  0.93566  1.0000
  S   S141      1.0  0.89271  0.48495  0.89433  1.0000
  C   C415      1.0  0.53213  0.48728  0.97383  1.0000
  C   C416      1.0  0.00104  0.41552  0.93106  1.0000
  Fe  Fe71      1.0  0.84602  0.49339  0.87113  1.0000
  H   H413      1.0  0.59298  0.03535  0.80066  1.0000
  H   H414      1.0  0.85432  0.49467  0.70658  1.0000
  H   H415      1.0  0.98253  0.46563  0.96988  1.0000
  H   H416      1.0  0.70931  0.12215  0.97963  1.0000
  C   C417      1.0  0.62923  0.49886  0.84249  1.0000
  H   H417      1.0  0.79934  0.46795  0.00268  1.0000
  C   C418      1.0  0.61992  0.05170  0.84098  1.0000
  C   C419      1.0  0.67806  0.50602  0.81392  1.0000
  C   C420      1.0  0.75101  0.47488  0.98868  1.0000
  C   C421      1.0  0.95219  0.27002  0.92794  1.0000
  H   H418      1.0  0.99235  0.19357  0.98488  1.0000
  C   C422      1.0  0.59385  0.04463  0.93274  1.0000
  C   C423      1.0  0.73211  0.12647  0.99046  1.0000
  H   H419      1.0  0.91324  0.50490  0.68142  1.0000
  S   S142      1.0  0.75976  0.48975  0.95076  1.0000
  C   C424      1.0  0.60644  0.02851  0.82148  1.0000
  H   H420      1.0  0.53414  0.47995  0.83522  1.0000
  C   C425      1.0  0.92769  0.29158  0.92398  1.0000
  H   H421      1.0  0.68095  0.20805  0.95722  1.0000
  C   C426      1.0  0.70253  0.20962  0.97100  1.0000
  C   C427      1.0  0.55816  0.46718  0.97447  1.0000
  H   H422      1.0  0.61675  0.07665  0.83571  1.0000
  H   H423      1.0  0.57492  0.48172  0.74196  1.0000
  H   H424      1.0  0.68161  0.50677  0.92099  1.0000
  Fe  Fe72      1.0  0.54059  0.03595  0.69386  1.0000
  C   C428      1.0  0.53640  0.27204  0.99402  1.0000
  H   H425      1.0  0.52917  0.19281  0.98034  1.0000
  C   C429      1.0  0.53035  0.43646  0.80818  1.0000
  N   N36       1.0  0.67852  0.50115  0.87067  1.0000
  S   S143      1.0  0.54515  0.02617  0.74630  1.0000
  H   H426      1.0  0.63200  0.50435  0.79187  1.0000
  C   C430      1.0  0.97476  0.47372  0.99296  1.0000
  C   C431      1.0  0.63973  0.01045  0.87496  1.0000
  C   C432      1.0  0.61364  0.02970  0.95446  1.0000
  H   H427      1.0  0.78151  0.19739  0.96318  1.0000
  C   C433      1.0  0.73128  0.20236  0.95637  1.0000
  C   C434      1.0  0.98340  0.27989  0.92275  1.0000
  C   C435      1.0  0.54484  0.23993  0.99254  1.0000
  H   H428      1.0  0.57205  0.46350  0.95320  1.0000
  H   H429      1.0  0.70436  0.47461  0.90444  1.0000
  C   C436      1.0  0.94170  0.50407  0.82191  1.0000
  N   N37       1.0  0.99000  0.31055  0.91446  1.0000
  C   C437      1.0  0.51481  0.49228  0.00159  1.0000
  C   C438      1.0  0.96601  0.33141  0.90909  1.0000
  H   H430      1.0  0.97114  0.35538  0.90133  1.0000
  H   H431      1.0  0.84272  0.04247  0.99681  1.0000
  C   C439      1.0  0.63697  0.04266  0.86769  1.0000
  H   H432      1.0  0.99297  0.44291  0.88900  1.0000
  C   C440      1.0  0.69623  0.49927  0.90044  1.0000
  H   H433      1.0  0.52676  0.29867  0.86247  1.0000
  H   H434      1.0  0.55332  0.28946  0.00248  1.0000
  H   H435      1.0  0.51779  0.42389  0.82660  1.0000
  H   H436      1.0  0.72007  0.50667  0.84251  1.0000
  H   H437      1.0  0.51084  0.34494  0.83025  1.0000
  H   H438      1.0  0.51516  0.06415  0.00223  1.0000
  C   C441      1.0  0.96582  0.49780  0.84348  1.0000
  H   H439      1.0  0.58639  0.43624  0.00348  1.0000
  Fe  Fe73      1.0  0.92684  0.17524  0.00208  1.0000
  C   C442      1.0  0.98409  0.27186  0.00233  1.0000
  H   H440      1.0  0.55768  0.06338  0.99892  1.0000
  C   C443      1.0  0.53529  0.05354  0.98919  1.0000
  C   C444      1.0  0.69448  0.50473  0.84268  1.0000
  H   H441      1.0  0.65212  0.22895  0.00036  1.0000
  N   N38       1.0  0.70158  0.21807  0.00233  1.0000
  C   C445      1.0  0.75794  0.21251  0.00588  1.0000
  S   S144      1.0  0.93777  0.22725  0.00913  1.0000
  H   H442      1.0  0.69072  0.50916  0.79178  1.0000
  C   C446      1.0  0.77492  0.46681  0.00995  1.0000
  Fe  Fe74      1.0  0.51188  0.31073  0.67705  1.0000
  C   C447      1.0  0.86936  0.98293  0.04338  1.0000
  S   S145      1.0  0.95817  0.87589  0.13422  1.0000
  C   C448      1.0  0.68719  0.54988  0.05847  1.0000
  H   H443      1.0  0.93641  0.64060  0.11299  1.0000
  Fe  Fe75      1.0  0.00318  0.61771  0.15530  1.0000
  Fe  Fe76      1.0  0.97520  0.91003  0.09704  1.0000
  S   S146      1.0  0.94824  0.93832  0.06114  1.0000
  C   C449      1.0  0.99373  0.69963  0.11914  1.0000
  H   H444      1.0  0.71583  0.52787  0.09440  1.0000
  N   N39       1.0  0.91800  0.67928  0.13921  1.0000
  Fe  Fe77      1.0  0.95536  0.57191  0.12621  1.0000
  S   S147      1.0  0.90795  0.56789  0.10218  1.0000
  S   S148      1.0  0.96056  0.59277  0.17506  1.0000
  C   C450      1.0  0.54863  0.97192  0.02064  1.0000
  Fe  Fe78      1.0  0.99298  0.55197  0.18422  1.0000
  S   S149      1.0  0.58429  0.51952  0.07161  1.0000
  C   C451      1.0  0.99073  0.75735  0.11662  1.0000
  H   H445      1.0  0.94871  0.71275  0.20547  1.0000
  C   C452      1.0  0.92883  0.73859  0.16634  1.0000
  S   S150      1.0  0.98375  0.52848  0.13712  1.0000
  C   C453      1.0  0.74185  0.53576  0.05128  1.0000
  C   C454      1.0  0.93693  0.71114  0.18268  1.0000
  C   C455      1.0  0.99451  0.96489  0.21492  1.0000
  H   H446      1.0  0.66466  0.57042  0.01800  1.0000
  H   H447      1.0  0.76349  0.52545  0.06025  1.0000
  S   S151      1.0  0.99533  0.60025  0.10571  1.0000
  H   H448      1.0  0.56103  0.96070  0.04001  1.0000
  H   H449      1.0  0.99552  0.96359  0.18935  1.0000
  C   C456      1.0  0.91396  0.64806  0.12431  1.0000
  C   C457      1.0  0.90892  0.56350  0.06065  1.0000
  C   C458      1.0  0.93626  0.57062  0.04342  1.0000
  H   H450      1.0  0.97496  0.72563  0.07957  1.0000
  H   H451      1.0  0.95714  0.57908  0.05542  1.0000
  H   H452      1.0  0.90077  0.70445  0.09907  1.0000
  C   C459      1.0  0.93152  0.68152  0.16859  1.0000
  C   C460      1.0  0.74007  0.54606  0.01988  1.0000
  H   H453      1.0  0.93406  0.76175  0.17643  1.0000
  H   H454      1.0  0.91037  0.75743  0.12282  1.0000
  C   C461      1.0  0.86919  0.99887  0.07238  1.0000
  C   C462      1.0  0.99296  0.93912  0.26597  1.0000
  H   H455      1.0  0.89516  0.64808  0.10595  1.0000
  C   C463      1.0  0.88200  0.55242  0.04460  1.0000
  H   H456      1.0  0.87778  0.95868  0.04206  1.0000
  C   C464      1.0  0.59611  0.52641  0.03239  1.0000
  H   H457      1.0  0.87741  0.98706  0.09360  1.0000
  H   H458      1.0  0.94870  0.97768  0.11788  1.0000
  H   H459      1.0  0.90703  0.62985  0.14204  1.0000
  C   C465      1.0  0.94779  0.97951  0.06688  1.0000
  C   C466      1.0  0.71506  0.53715  0.07047  1.0000
  C   C467      1.0  0.91027  0.70611  0.12287  1.0000
  C   C468      1.0  0.94686  0.99277  0.09730  1.0000
  H   H460      1.0  0.66608  0.55092  0.07308  1.0000
  H   H461      1.0  0.86077  0.54685  0.05779  1.0000
  S   S152      1.0  0.00487  0.87356  0.07305  1.0000
  C   C469      1.0  0.99425  0.99459  0.23025  1.0000
  C   C470      1.0  0.91544  0.73614  0.13623  1.0000
  H   H462      1.0  0.94623  0.98905  0.01679  1.0000
  H   H463      1.0  0.57587  0.51757  0.29005  1.0000
  H   H464      1.0  0.93922  0.66041  0.18091  1.0000
  C   C471      1.0  0.94541  0.99916  0.04037  1.0000
  C   C472      1.0  0.68644  0.56055  0.02713  1.0000
  Fe  Fe79      1.0  0.00068  0.89335  0.16164  1.0000
  H   H465      1.0  0.99269  0.91765  0.27991  1.0000
  C   C473      1.0  0.99263  0.96878  0.28127  1.0000
  H   H466      1.0  0.99197  0.96999  0.30681  1.0000
  H   H467      1.0  0.55685  0.55712  0.02294  1.0000
  S   S153      1.0  0.99709  0.53049  0.23312  1.0000
  Fe  Fe80      1.0  0.99198  0.84097  0.11268  1.0000
  C   C474      1.0  0.99451  0.93705  0.23280  1.0000
  S   S154      1.0  0.97891  0.79139  0.09585  1.0000
  H   H468      1.0  0.98933  0.67663  0.10856  1.0000
  C   C475      1.0  0.98562  0.72739  0.10282  1.0000
  C   C476      1.0  0.00474  0.75949  0.14651  1.0000
  C   C477      1.0  0.93666  0.56690  0.01037  1.0000
  C   C478      1.0  0.00691  0.70173  0.14944  1.0000
  S   S155      1.0  0.99945  0.89947  0.21495  1.0000
  C   C479      1.0  0.85976  0.99868  0.01604  1.0000
  H   H469      1.0  0.57439  0.54809  0.33718  1.0000
  C   C480      1.0  0.57802  0.54642  0.01344  1.0000
  C   C481      1.0  0.88257  0.54811  0.01155  1.0000
  C   C482      1.0  0.99391  0.99664  0.26348  1.0000
  C   C483      1.0  0.54970  0.00486  0.01699  1.0000
  C   C484      1.0  0.62343  0.51263  0.01995  1.0000
  Fe  Fe81      1.0  0.65144  0.80200  0.50114  1.0000
  S   S156      1.0  0.63808  0.77786  0.54658  1.0000
  S   S157      1.0  0.69842  0.79953  0.47565  1.0000
  Fe  Fe82      1.0  0.58418  0.82450  0.48953  1.0000
  S   S158      1.0  0.56490  0.80150  0.53320  1.0000
  S   S159      1.0  0.55700  0.85727  0.45814  1.0000
  Fe  Fe83      1.0  0.60867  0.82104  0.55611  1.0000
  S   S160      1.0  0.60077  0.84451  0.60329  1.0000
  Fe  Fe84      1.0  0.59551  0.76044  0.51970  1.0000
  S   S161      1.0  0.58398  0.70838  0.52412  1.0000
  S   S162      1.0  0.62605  0.84696  0.51323  1.0000
  S   S163      1.0  0.61079  0.78156  0.47348  1.0000
  C   C485      1.0  0.00261  0.96711  0.48281  1.0000
  S   S164      1.0  0.93235  0.54161  0.58512  1.0000
  Fe  Fe85      1.0  0.87548  0.80417  0.52461  1.0000
  S   S165      1.0  0.88653  0.78481  0.47627  1.0000
  S   S166      1.0  0.82820  0.80762  0.54933  1.0000
  Fe  Fe86      1.0  0.94458  0.82051  0.53806  1.0000
  S   S167      1.0  0.96141  0.80285  0.49094  1.0000
  S   S168      1.0  0.97510  0.84059  0.57681  1.0000
  Fe  Fe87      1.0  0.91849  0.82747  0.47214  1.0000
  S   S169      1.0  0.92163  0.85516  0.42678  1.0000
  Fe  Fe88      1.0  0.92850  0.76196  0.49952  1.0000
  S   S170      1.0  0.94122  0.71038  0.49293  1.0000
  S   S171      1.0  0.90434  0.84859  0.51873  1.0000
  S   S172      1.0  0.91468  0.77783  0.54832  1.0000
  C   C486      1.0  0.92887  0.96340  0.42961  1.0000
  C   C487      1.0  0.91754  0.94693  0.45612  1.0000
  C   C488      1.0  0.91577  0.91366  0.45578  1.0000
  C   C489      1.0  0.92481  0.89674  0.42870  1.0000
  C   C490      1.0  0.93597  0.91326  0.40219  1.0000
  C   C491      1.0  0.93827  0.94647  0.40273  1.0000
  H   H470      1.0  0.91018  0.95995  0.47697  1.0000
  H   H471      1.0  0.90688  0.90125  0.47624  1.0000
  H   H472      1.0  0.94275  0.90033  0.38107  1.0000
  H   H473      1.0  0.94639  0.95894  0.38193  1.0000
  C   C492      1.0  0.53762  0.67892  0.59064  1.0000
  H   H474      1.0  0.83831  0.87492  0.51137  1.0000
  H   H475      1.0  0.86005  0.85380  0.46250  1.0000
  H   H476      1.0  0.97656  0.73612  0.55756  1.0000
  H   H477      1.0  0.51666  0.00017  0.53389  1.0000
  C   C493      1.0  0.98756  0.74562  0.57964  1.0000
  C   C494      1.0  0.98128  0.69959  0.49333  1.0000
  C   C495      1.0  0.54195  0.64649  0.59513  1.0000
  C   C496      1.0  0.98098  0.66071  0.42284  1.0000
  H   H478      1.0  0.79073  0.88193  0.54426  1.0000
  H   H479      1.0  0.93335  0.51252  0.50866  1.0000
  H   H480      1.0  0.51887  0.60077  0.59791  1.0000
  H   H481      1.0  0.64120  0.92678  0.64964  1.0000
  C   C497      1.0  0.97202  0.53508  0.57450  1.0000
  C   C498      1.0  0.99134  0.56091  0.56639  1.0000
  H   H482      1.0  0.99264  0.96883  0.45919  1.0000
  S   S173      1.0  0.52917  0.00056  0.65578  1.0000
  H   H483      1.0  0.98331  0.72866  0.59924  1.0000
  C   C499      1.0  0.55403  0.90773  0.53166  1.0000
  N   N40       1.0  0.96057  0.51680  0.66775  1.0000
  C   C500      1.0  0.53522  0.53468  0.44194  1.0000
  H   H484      1.0  0.54697  0.55739  0.43939  1.0000
  C   C501      1.0  0.54555  0.69586  0.51392  1.0000
  C   C502      1.0  0.53838  0.66340  0.51429  1.0000
  C   C503      1.0  0.53009  0.88991  0.54582  1.0000
  H   H485      1.0  0.55676  0.64643  0.51924  1.0000
  C   C504      1.0  0.73409  0.79948  0.49691  1.0000
  C   C505      1.0  0.76251  0.79505  0.48038  1.0000
  C   C506      1.0  0.79158  0.79638  0.49637  1.0000
  C   C507      1.0  0.79230  0.80221  0.52898  1.0000
  C   C508      1.0  0.76381  0.80577  0.54562  1.0000
  C   C509      1.0  0.73472  0.80441  0.52964  1.0000
  H   H486      1.0  0.76207  0.79116  0.45503  1.0000
  H   H487      1.0  0.81343  0.79359  0.48341  1.0000
  H   H488      1.0  0.76431  0.81033  0.57088  1.0000
  H   H489      1.0  0.71290  0.80786  0.54252  1.0000
  C   C510      1.0  0.60116  0.95248  0.59910  1.0000
  C   C511      1.0  0.62290  0.93508  0.58119  1.0000
  C   C512      1.0  0.62216  0.90185  0.58155  1.0000
  C   C513      1.0  0.59984  0.88589  0.60007  1.0000
  C   C514      1.0  0.57760  0.90322  0.61740  1.0000
  C   C515      1.0  0.57803  0.93647  0.61662  1.0000
  H   H490      1.0  0.64088  0.94734  0.56762  1.0000
  H   H491      1.0  0.63970  0.88861  0.56852  1.0000
  H   H492      1.0  0.56023  0.89091  0.63169  1.0000
  H   H493      1.0  0.56118  0.94954  0.63047  1.0000
  S   S174      1.0  0.93078  0.00507  0.43049  1.0000
  H   H494      1.0  0.55862  0.53025  0.37233  1.0000
  S   S175      1.0  0.60494  0.99393  0.60055  1.0000
  H   H495      1.0  0.56550  0.63720  0.59873  1.0000
  H   H496      1.0  0.85011  0.88890  0.44055  1.0000
  H   H497      1.0  0.98127  0.54085  0.48896  1.0000
  C   C516      1.0  0.53042  0.99019  0.55388  1.0000
  H   H498      1.0  0.97535  0.76823  0.58535  1.0000
  C   C517      1.0  0.98927  0.66796  0.49929  1.0000
  H   H499      1.0  0.98856  0.91342  0.45615  1.0000
  H   H500      1.0  0.97089  0.65089  0.50481  1.0000
  C   C518      1.0  0.55391  0.94074  0.53470  1.0000
  H   H501      1.0  0.52994  0.86430  0.54356  1.0000
  H   H502      1.0  0.60018  0.52714  0.36393  1.0000
  H   H503      1.0  0.83647  0.85017  0.42784  1.0000
  N   N41       1.0  0.70013  0.71919  0.50728  1.0000
  C   C519      1.0  0.71795  0.72255  0.48042  1.0000
  C   C520      1.0  0.66873  0.71157  0.50518  1.0000
  C   C521      1.0  0.70405  0.71961  0.45047  1.0000
  C   C522      1.0  0.65415  0.70818  0.47561  1.0000
  C   C523      1.0  0.67190  0.71258  0.44813  1.0000
  C   C524      1.0  0.71463  0.72321  0.53860  1.0000
  H   H504      1.0  0.74283  0.72859  0.48201  1.0000
  H   H505      1.0  0.65459  0.70850  0.52642  1.0000
  H   H506      1.0  0.71799  0.72356  0.42929  1.0000
  H   H507      1.0  0.62910  0.70270  0.47406  1.0000
  H   H508      1.0  0.66064  0.71081  0.42510  1.0000
  H   H509      1.0  0.70041  0.73977  0.55327  1.0000
  H   H510      1.0  0.71612  0.69996  0.55073  1.0000
  H   H511      1.0  0.73882  0.73359  0.53701  1.0000
  C   C525      1.0  0.62897  0.93186  0.67167  1.0000
  C   C526      1.0  0.99530  0.90913  0.48124  1.0000
  H   H512      1.0  0.97071  0.56097  0.64541  1.0000
  C   C527      1.0  0.51810  0.86518  0.46982  1.0000
  H   H513      1.0  0.52050  0.91360  0.45398  1.0000
  H   H514      1.0  0.57248  0.89601  0.51825  1.0000
  C   C528      1.0  0.52168  0.71764  0.50733  1.0000
  C   C529      1.0  0.51590  0.62607  0.59448  1.0000
  H   H515      1.0  0.63318  0.98259  0.66675  1.0000
  H   H516      1.0  0.96041  0.67542  0.42710  1.0000
  H   H517      1.0  0.57270  0.95442  0.52375  1.0000
  H   H518      1.0  0.98151  0.58452  0.56569  1.0000
  N   N42       1.0  0.81260  0.86975  0.46811  1.0000
  C   C530      1.0  0.78350  0.86946  0.45397  1.0000
  C   C531      1.0  0.81533  0.87501  0.50001  1.0000
  C   C532      1.0  0.75608  0.87351  0.47206  1.0000
  C   C533      1.0  0.78844  0.87927  0.51877  1.0000
  C   C534      1.0  0.75864  0.87833  0.50468  1.0000
  C   C535      1.0  0.84108  0.86556  0.44880  1.0000
  H   H519      1.0  0.78129  0.86538  0.42869  1.0000
  H   H520      1.0  0.55779  0.69495  0.59033  1.0000
  H   H521      1.0  0.73293  0.87184  0.46107  1.0000
  H   H522      1.0  0.52701  0.74274  0.50690  1.0000
  H   H523      1.0  0.73753  0.88042  0.51911  1.0000
  C   C536      1.0  0.57627  0.52724  0.35302  1.0000
  H   H524      1.0  0.95577  0.61667  0.42907  1.0000
  N   N43       1.0  0.53070  0.95554  0.55166  1.0000
  C   C537      1.0  0.97843  0.62775  0.42420  1.0000
  H   H525      1.0  0.54468  0.51703  0.54692  1.0000
  H   H526      1.0  0.52238  0.51885  0.51070  1.0000
  H   H527      1.0  0.51964  0.99804  0.57657  1.0000
  H   H528      1.0  0.99921  0.74589  0.48140  1.0000
  H   H529      1.0  0.91688  0.53807  0.65543  1.0000
  H   H530      1.0  0.97442  0.89899  0.49367  1.0000
  S   S176      1.0  0.00181  0.99864  0.36945  1.0000
  C   C538      1.0  0.98175  0.51545  0.49271  1.0000
  H   H531      1.0  0.00359  0.58354  0.42016  1.0000
  C   C539      1.0  0.00514  0.72154  0.48633  1.0000
  H   H532      1.0  0.51815  0.85048  0.39899  1.0000
  C   C540      1.0  0.00522  0.60922  0.41947  1.0000
  H   H533      1.0  0.55479  0.00016  0.55335  1.0000
  C   C541      1.0  0.97975  0.53804  0.65252  1.0000
  N   N44       1.0  0.00578  0.93828  0.49724  1.0000
  C   C542      1.0  0.92819  0.52592  0.67582  1.0000
  H   H534      1.0  0.50840  0.81835  0.48775  1.0000
  H   H535      1.0  0.50903  0.89811  0.36575  1.0000
  S   S177      1.0  0.91142  0.55024  0.95306  1.0000
  S   S178      1.0  0.62856  0.55046  0.93214  1.0000
  S   S179      1.0  0.56646  0.86738  0.88269  1.0000
  H   H536      1.0  0.60328  0.94442  0.86797  1.0000
  S   S180      1.0  0.52766  0.87680  0.94931  1.0000
  H   H537      1.0  0.68616  0.56953  0.96633  1.0000
  S   S181      1.0  0.51706  0.92732  0.89131  1.0000
  S   S182      1.0  0.59613  0.93661  0.93999  1.0000
  C   C543      1.0  0.53217  0.95501  0.80828  1.0000
  H   H538      1.0  0.94938  0.55487  0.89779  1.0000
  C   C544      1.0  0.53155  0.95352  0.99901  1.0000
  H   H539      1.0  0.60423  0.99373  0.71697  1.0000
  H   H540      1.0  0.54263  0.00496  0.81009  1.0000
  S   S183      1.0  0.59310  0.58643  0.85258  1.0000
  C   C545      1.0  0.55124  0.69865  0.90224  1.0000
  H   H541      1.0  0.92823  0.54201  0.69667  1.0000
  C   C546      1.0  0.89968  0.57075  0.86235  1.0000
  S   S184      1.0  0.55009  0.60086  0.91568  1.0000
  C   C547      1.0  0.53626  0.98516  0.79501  1.0000
  C   C548      1.0  0.58742  0.55309  0.98233  1.0000
  C   C549      1.0  0.52311  0.96429  0.74321  1.0000
  N   N45       1.0  0.60013  0.91350  0.71716  1.0000
  H   H542      1.0  0.59987  0.86581  0.73404  1.0000
  Fe  Fe89      1.0  0.58821  0.56675  0.90168  1.0000
  C   C550      1.0  0.60968  0.99651  0.82944  1.0000
  H   H543      1.0  0.86175  0.53947  0.99935  1.0000
  H   H544      1.0  0.55398  0.67578  0.91333  1.0000
  C   C551      1.0  0.53292  0.98968  0.76235  1.0000
  S   S185      1.0  0.55557  0.52739  0.88716  1.0000
  H   H545      1.0  0.62938  0.98516  0.97341  1.0000
  S   S186      1.0  0.83067  0.52819  0.90844  1.0000
  C   C552      1.0  0.52364  0.92928  0.78913  1.0000
  C   C553      1.0  0.59669  0.94411  0.72739  1.0000
  C   C554      1.0  0.54336  0.75820  0.87390  1.0000
  N   N46       1.0  0.92292  0.54601  0.85559  1.0000
  C   C555      1.0  0.57345  0.99303  0.91628  1.0000
  C   C556      1.0  0.59352  0.97812  0.93786  1.0000
  C   C557      1.0  0.61351  0.99657  0.95696  1.0000
  H   H546      1.0  0.61778  0.88302  0.68072  1.0000
  H   H547      1.0  0.52004  0.96763  0.71804  1.0000
  H   H548      1.0  0.55842  0.97908  0.90095  1.0000
  H   H549      1.0  0.53004  0.52137  0.72579  1.0000
  S   S187      1.0  0.54565  0.66642  0.84539  1.0000
  C   C558      1.0  0.51719  0.00116  0.97127  1.0000
  C   C559      1.0  0.51850  0.93410  0.75664  1.0000
  H   H550      1.0  0.58142  0.89378  0.76011  1.0000
  C   C560      1.0  0.60832  0.96943  0.70942  1.0000
  Fe  Fe90      1.0  0.55689  0.54979  0.83919  1.0000
  H   H551      1.0  0.90176  0.53328  0.81144  1.0000
  H   H552      1.0  0.63948  0.94060  0.84539  1.0000
  Fe  Fe91      1.0  0.55777  0.90674  0.91762  1.0000
  C   C561      1.0  0.61582  0.90718  0.68951  1.0000
  Fe  Fe92      1.0  0.55152  0.61697  0.86509  1.0000
  C   C562      1.0  0.61518  0.54009  0.97013  1.0000
  H   H553      1.0  0.55137  0.72455  0.94644  1.0000
  H   H554      1.0  0.57359  0.56903  0.96823  1.0000
  C   C563      1.0  0.94719  0.54079  0.87632  1.0000
  Fe  Fe93      1.0  0.52306  0.88599  0.85833  1.0000
  H   H555      1.0  0.56163  0.88196  0.72429  1.0000
  H   H556      1.0  0.72310  0.59051  0.97168  1.0000
  Fe  Fe94      1.0  0.87541  0.51599  0.93363  1.0000
  C   C564      1.0  0.54498  0.73057  0.85520  1.0000
  C   C565      1.0  0.54828  0.70069  0.86934  1.0000
  C   C566      1.0  0.58514  0.88750  0.73473  1.0000
  H   H557      1.0  0.87601  0.56396  0.85291  1.0000
  H   H558      1.0  0.51143  0.91436  0.74175  1.0000
  H   H559      1.0  0.58444  0.94915  0.74933  1.0000
  H   H560      1.0  1.00000  0.96047  0.00417  1.0000
  S   S188      1.0  0.52164  0.89066  0.80480  1.0000
  H   H561      1.0  0.90727  0.59347  0.85151  1.0000
  C   C567      1.0  0.54514  0.75603  0.90688  1.0000
  H   H562      1.0  0.89668  0.57423  0.88834  1.0000
  Fe  Fe95      1.0  0.53217  0.83886  0.91196  1.0000
  H   H563      1.0  0.53062  0.92793  0.00142  1.0000
  H   H564      1.0  0.72249  0.54933  0.95936  1.0000
  S   S189      1.0  0.53920  0.78932  0.93148  1.0000
  H   H565      1.0  0.83264  0.52171  0.75417  1.0000
  H   H566      1.0  0.53622  0.95168  0.83322  1.0000
  C   C568      1.0  0.92056  0.52866  0.82822  1.0000
  C   C569      1.0  0.63295  0.51949  0.98883  1.0000
  H   H567      1.0  0.64053  0.95037  0.88695  1.0000
  C   C570      1.0  0.96881  0.51641  0.87075  1.0000
  C   C571      1.0  0.54969  0.72628  0.92093  1.0000
  C   C572      1.0  0.71095  0.56734  0.97475  1.0000
  H   H568      1.0  0.71729  0.51514  0.90001  1.0000
  S   S190      1.0  0.56450  0.52510  0.79250  1.0000
  C   C573      1.0  0.90992  0.55545  0.99439  1.0000
  C   C574      1.0  0.62750  0.95421  0.86441  1.0000
  N   N47       1.0  0.71238  0.55759  0.00801  1.0000
  H   H569      1.0  0.98736  0.51165  0.88780  1.0000
  C   C575      1.0  0.62457  0.96319  0.68135  1.0000
  S   S191      1.0  0.51547  0.58133  0.84823  1.0000
  H   H570      1.0  0.86016  0.98663  0.99331  1.0000
  H   H571      1.0  0.53997  0.78104  0.86287  1.0000
  Fe  Fe96      1.0  0.51769  0.56256  0.89775  1.0000
  H   H572      1.0  0.76064  0.54365  0.00469  1.0000
  H   H573      1.0  0.95789  0.57257  0.99722  1.0000
  C   C576      1.0  0.51569  0.96819  0.97417  1.0000
  H   H574      1.0  0.54285  0.73229  0.82971  1.0000
  H   H575      1.0  0.59873  0.97860  0.81451  1.0000
  N   N48       1.0  0.62582  0.98788  0.85608  1.0000
  H   H576      1.0  0.65199  0.00378  0.89647  1.0000
  S   S192      1.0  0.83936  0.51063  0.82077  1.0000
