data_image0
_chemical_formula_structural       HFeCSFeH2S3FeSFeS2FeSFeS3C2FeNHFeSFeSHSCFeH2SHC2H2C2NFeC2H2C2HCH2FeHC6H4C6H4C6H4C2H4C3H2CS2HSNCHC2HCSC2S2CFeHCHCHCH2CHNC2HCSCFeCHCHSCHCFeCHC4HC3H2NCHC2HSCH2CFeH2CH3NCH2FeSHSHCHCS3CHCHNC2NC2HCH3C2HNSC2H2CH2C2HCHCHFeHFeNCH2C2HC3FeCHSCNCH2C2H3C3HCHSHCSH3CSC2NSHC2H2CSHCHCHCH4C2HCHCFeS2FeH3S2FeSFeS2FeSFeS3HCHCHFeSFeS3HSFeCH2C5HCHCSH2CSCSC2NSC6H4C6H4C6H4C2H2C2H3C2HC2SH2C3H2CHCH4NCH3C4H2NFeC4HCH2FeC2HSHSCNHCHSCH2SC2NC4SCHSNCFeC2SHCHCHNSCNCH2CHFeHCHC2SNFeHC2Fe2H2C2FeC2H2CSCHCHCHCHS3HC2HCHCFe2CHC2NCHCHCFeH2CH2SC2H3CH2C2H2CSCH2CNCH2CSH2CH3NCHCHSHCH3CH4C3H2SNSC2SFeNFeSH2CNCH2CNCSCHFeCSFeHS2HCHS2FeS2FeS2FeSFeS3HSCHFeSFeSHC6H4C6H4C6H4C2H3CH2CHCHC2FeSH4C4SC2H2SH4CHCHSNH5CSH2CHCH2C4HFeC2H4CHCHSHSH3CH4CHCHSHCSHC2FeHCHNC6H2CHCHC3FeHC3H5CHFeH2CNS2H2CSH2SCHSHCFeSH2CH2C3FeH2CHFeHSFeNSC2SCS2FeS2FeS2FeSFeS3HCH2CSFeSC7SH3C6H4C6H5FeCFeCH5S2HC2HCFeH5SNH3C2H2NHC3HCH3C2H2SHC2HCSHCHCHCHC3HC2HFeH2CHCHC3H2NHSH2NC6HCH3C2H4CHCHSH4C2SHC10SHNCFeH2NFeCFeS2FeCS2FeCSFeCSHCHCS2CH4SFeS2HSC2S2H5CH3CHSHSCHFeHCHC2HC2NHCH2C3H4C2H2CHCHCHC2H2CFeH2CH2C2HC2HC2FeHCFeS2C2HC6H4C2H2C3SC2HCHCSCHCSCHCHCHNCH2SCHCH2SNH2CH2CHCH2CH4NCHCSHSC2FeHNCH4C2HCH3CH3CHC2HC2SCHCH2C3SFeHFeS2FeS3FeCSFeCSH2C2S2CHCFeCSFeCSC3HS2HCHCSHSHCSC3HC2FeH2NCH3C3H3C3H3C2HCH4CHSH3FeC2H2CHFeHCH2NFeSC2H2SCH3C7H4C2H2SHCSH3CH2CHNC4H6NC6H9CHNCSC2H2CHC4HC2HCHFeSHCSHC2HC2SH3CH2SC2FeCSHSCHSH2NH2CH2Fe2SCS2HCNFeS2FeS2FeSFeS3HC4FeSFeS3C6H4C6H4C5H4CS3HCHCHCH2CHS2C4SCH4CHCFeHC2SCH3FeCHCH2SCHFeC2SCH2SNHC3HCH3C3SCHC2HCH2CH2CH5SC2SNC2H5C2H4NC9H2CHCH2CFeHCH2CHSH4C4HCH5C2H2C3SCNC7H3CH4C2H2CHNHFeCH2CFe2HFe2C2HCSHC3HSC2H2C3HCSNFeHSHS2HFeCFeS2FeS2FeSFeS3NCSC2FeSFeS2C7H4C6H4C5HCH2FeHC5NHCSCHCHC5SCH2CHCHCFeHCHNH4CH2C2H5C3SCHCHSHFeH3CHFeHC2H2NC5HCH4CSCNCHNHC4H3CH3CHCH5SC3SH3SFeCH2SCHFeHSH4CSHFeC2HCNSHSH3CHC3H4CFeH4SC4FeCH2CSCHSHCHNFeHC2HC6H2SCFeCSNHFeHS2HS2HCHC3H2SCSHS2NFeHSFeS2FeCFeHS2FeS2CHSCSFeSHSFeSFeS2Fe2S2CFeHSNH2CH2CHNC6H4C6H4C6H5CHCFeCHFeCH2C3HCH2FeSH3C4H3CHC2HC2NH2FeC2SH2C2H3C3SC3SH2FeC2S2CH2NSCH3CHC3H2C2HC2H4CHCH3CH2C6H2CHNHC4SH2Fe2SHCHCHCHFe2HSC3HS2H2SHCSCHC5S2HCHFeCSFeNSC2HCS2FeHSNSCHSFeSFeSFeSFeS2FeHS2HCH2CH2SH3CHC6H4C6H4C6H4SCHC4HNH2CH2C2H4CHCHC2HFeH2CFeC2SHCH2CHC2H3C2H2Fe2CH2C2NC6H8NSCSHC2HCHNH2CH5N2SCH3C2H2CHC4SC2H2SH3S2C3H3CH2N2HCHFeH2C2FeCHSHSHFeSFeSCH2SCFeSFeS3C2FeS2FeS2Fe2CS2HC2SH3SFeC3SCN2HC2SCFeHSH3C2HC6H4C6H4C6H7CHFeC4SC5NCHC2SC2SFeCHNCHSC2H3CHFeCSH2C2HCFeHFeH2CS2HC2SCSH3C4H2C2H2CHFeCH4SHFeHSH2NFeSCHS2C2HSHCH2C2NFeC3H4C5H5CHC3HC3H2CH2FeH2C2H2CHNC2H2SCH3C2NH3CNHSC4HSH2C2HCNHCH2NC3H2CHSCS2FeSFeSHFeH2SFeSFeS2FeHSFeS2FeS2Fe2CS2NH2SCSHCHC3HSH2C2H2C2HC5NC7H4C6H4C6H4CSHC3H2FeNC4H2SFeH4NH2CHSH2CH3C2H3S2FeCNCHNC2H4CHCSHCHC2H2CHNC2FeCHNCH2C2HCHC2FeH2SHSC3H2C2HCH3CHCH2CSH2CH2C2SCHCHSHCSFeCSC3HSC2FeCHCH4C3H5SCHCH2CH4C2NCFe2C5SCHFeHCSC2H2C2SHCNCHCHC2H4SCFeSHCHSCFeHC5FeS2HS2C2SC2HFeSFeS2FeSFeS3H2CFeC4HCH5SCH4SC6H4C6H4C4H4CHC4HFeSH4C3HSC2H2SCH2SHCNC2HNCH3C2NHNHNC2H2C4HCH4CS2CHFeHCH2C2H3NC6H7C2SCHCHNS2HSCSHC2HCFeHCH2C2HC2FeSH4C2H6C2H2CHCH3C2H3CHCH4FeSFeH2SCSC2FeH3FeS2CFeSH2SC3FeSFeS2FeSFeS3CH3C4SCH2SCH2SH2CHC7H4C6H4C5H2SC2HC3HSH5SCSHC2HCNHCHC2H2C3HSHNC3FeH3SH2C3SNCHCNH2NSHFeH3C3SCH3CSNC6HCH2S3H2CFeHFeH2CHCHCHCHCH2FeHCHCHC2HCHC2S2C2HC5H2CHC2H3FeHSH4C2HC4H3FeHC2HCH4NC3H2SFeCSHCHCS3FeSCHS2C2SCHSC2SH2SFeSC2FeHC2SHC3HCH2NH2CHFeH2CSHC6S2HCH2SHC2HSH2FeC2HSHC2HNC2H6CFeH2CH2CSH2NC2SHC2SC7H3CNC2NCHCH8SFeC3H6CFeC3HCH2NH2CH2CH2C5H2Fe2HC2NH3SHC6H3CSHCNH2CFeCH2CS2FeHSC2HCS3FeSCHS2CH3S2CHSH2SFeSC3HCHC2HSHC2H2C2SH3CHCSCHCFeCH2CHFeC2HNC2HC2H4CHCSC2SHC2H2CH2CHC2Fe2C3NSNC2H2CHC2HC6H4CH2SHFeHCH2CHFeHCNSCHCH2CFeHC2H2CSCH2FeC4H2FeH2CSCHC2HSHCHCHCSH2CH6CH5CH2CSC
_chemical_formula_sum              "H1536 Fe256 C1536 S512 N128"
_cell_length_a       60.8182
_cell_length_b       61.4272
_cell_length_c       49.4866
_cell_angle_alpha    90.9159
_cell_angle_beta     90.7122
_cell_angle_gamma    84.5681

_space_group_name_H-M_alt    "P 1"
_space_group_IT_number       1

loop_
  _space_group_symop_operation_xyz
  'x, y, z'

loop_
  _atom_site_type_symbol
  _atom_site_label
  _atom_site_symmetry_multiplicity
  _atom_site_fract_x
  _atom_site_fract_y
  _atom_site_fract_z
  _atom_site_occupancy
  H   H1        1.0  0.18707  0.46679  0.99738  1.0000
  Fe  Fe1       1.0  0.21388  0.22319  0.33092  1.0000
  C   C1        1.0  0.23775  0.34531  0.11499  1.0000
  S   S1        1.0  0.18594  0.20131  0.33187  1.0000
  Fe  Fe2       1.0  0.23205  0.26805  0.33006  1.0000
  H   H2        1.0  0.22576  0.31838  0.13583  1.0000
  H   H3        1.0  0.04956  0.05061  0.37535  1.0000
  S   S2        1.0  0.24397  0.24676  0.07789  1.0000
  S   S3        1.0  0.22150  0.24524  0.29731  1.0000
  S   S4        1.0  0.22084  0.24764  0.36384  1.0000
  Fe  Fe3       1.0  0.07422  0.12071  0.22321  1.0000
  S   S5        1.0  0.09046  0.08641  0.22158  1.0000
  Fe  Fe4       1.0  0.11892  0.14054  0.22588  1.0000
  S   S6        1.0  0.13789  0.10748  0.22434  1.0000
  S   S7        1.0  0.13939  0.16960  0.22415  1.0000
  Fe  Fe5       1.0  0.11355  0.09939  0.19213  1.0000
  S   S8        1.0  0.12648  0.07935  0.15594  1.0000
  Fe  Fe6       1.0  0.11296  0.09809  0.25386  1.0000
  S   S9        1.0  0.12342  0.07560  0.28816  1.0000
  S   S10       1.0  0.09598  0.13313  0.19145  1.0000
  S   S11       1.0  0.09530  0.13176  0.25773  1.0000
  C   C2        1.0  0.24438  0.21773  0.43462  1.0000
  C   C3        1.0  0.14354  0.14896  0.08231  1.0000
  Fe  Fe7       1.0  0.25589  0.22893  0.30117  1.0000
  N   N1        1.0  0.05424  0.08235  0.39119  1.0000
  H   H4        1.0  0.22607  0.38341  0.28173  1.0000
  Fe  Fe8       1.0  0.11140  0.09214  0.99933  1.0000
  S   S12       1.0  0.10835  0.11356  0.03707  1.0000
  Fe  Fe9       1.0  0.12051  0.09593  0.43855  1.0000
  S   S13       1.0  0.12495  0.11907  0.40472  1.0000
  H   H5        1.0  0.21976  0.48932  0.02796  1.0000
  S   S14       1.0  0.10963  0.06229  0.43297  1.0000
  C   C4        1.0  0.15437  0.12952  0.07231  1.0000
  Fe  Fe10      1.0  0.20105  0.44393  0.10289  1.0000
  H   H6        1.0  0.17469  0.03045  0.37005  1.0000
  H   H7        1.0  0.21488  0.44386  0.20123  1.0000
  S   S15       1.0  0.22362  0.44889  0.29969  1.0000
  H   H8        1.0  0.21022  0.17966  0.43318  1.0000
  C   C5        1.0  0.16613  0.47496  0.06048  1.0000
  C   C6        1.0  0.18006  0.46643  0.03989  1.0000
  H   H9        1.0  0.22693  0.38260  0.97941  1.0000
  H   H10       1.0  0.18395  0.48214  0.14454  1.0000
  C   C7        1.0  0.14308  0.50113  0.14019  1.0000
  C   C8        1.0  0.24259  0.27022  0.46380  1.0000
  N   N2        1.0  0.15895  0.16257  0.43576  1.0000
  Fe  Fe11      1.0  0.25545  0.23136  0.36295  1.0000
  C   C9        1.0  0.16577  0.17618  0.39165  1.0000
  C   C10       1.0  0.15956  0.48991  0.00711  1.0000
  H   H11       1.0  0.19459  0.17591  0.21844  1.0000
  H   H12       1.0  0.24439  0.37900  0.33928  1.0000
  C   C11       1.0  0.01895  0.10737  0.22197  1.0000
  C   C12       1.0  0.21690  0.49975  0.97582  1.0000
  H   H13       1.0  0.22380  0.25630  0.00137  1.0000
  C   C13       1.0  0.16702  0.02703  0.41211  1.0000
  H   H14       1.0  0.15756  0.04282  0.41355  1.0000
  H   H15       1.0  0.11615  0.02037  0.26335  1.0000
  Fe  Fe12      1.0  0.25977  0.21828  0.05393  1.0000
  H   H16       1.0  0.07509  0.13136  0.39717  1.0000
  C   C14       1.0  0.12513  0.08798  0.32029  1.0000
  C   C15       1.0  0.12923  0.07477  0.34297  1.0000
  C   C16       1.0  0.12987  0.08424  0.36893  1.0000
  C   C17       1.0  0.12632  0.10695  0.37229  1.0000
  C   C18       1.0  0.12285  0.12019  0.34958  1.0000
  C   C19       1.0  0.12227  0.11072  0.32361  1.0000
  H   H17       1.0  0.13181  0.05719  0.34048  1.0000
  H   H18       1.0  0.13322  0.07395  0.38625  1.0000
  H   H19       1.0  0.12026  0.13778  0.35200  1.0000
  H   H20       1.0  0.11957  0.12104  0.30623  1.0000
  C   C20       1.0  0.11839  0.08752  0.12293  1.0000
  C   C21       1.0  0.12574  0.07437  0.10074  1.0000
  C   C22       1.0  0.12163  0.08159  0.07413  1.0000
  C   C23       1.0  0.11041  0.10217  0.06962  1.0000
  C   C24       1.0  0.10251  0.11502  0.09178  1.0000
  C   C25       1.0  0.10631  0.10766  0.11833  1.0000
  H   H21       1.0  0.13506  0.05874  0.10414  1.0000
  H   H22       1.0  0.12787  0.07161  0.05718  1.0000
  H   H23       1.0  0.09381  0.13095  0.08840  1.0000
  H   H24       1.0  0.10048  0.11789  0.13519  1.0000
  C   C26       1.0  0.17296  0.19289  0.30176  1.0000
  C   C27       1.0  0.17427  0.20421  0.27760  1.0000
  C   C28       1.0  0.16364  0.19712  0.25405  1.0000
  C   C29       1.0  0.15179  0.17856  0.25438  1.0000
  C   C30       1.0  0.15055  0.16721  0.27851  1.0000
  C   C31       1.0  0.16098  0.17443  0.30211  1.0000
  H   H25       1.0  0.18314  0.21865  0.27716  1.0000
  H   H26       1.0  0.16443  0.20616  0.23556  1.0000
  H   H27       1.0  0.14146  0.15290  0.27903  1.0000
  H   H28       1.0  0.15981  0.16556  0.32067  1.0000
  C   C32       1.0  0.02499  0.11101  0.39796  1.0000
  C   C33       1.0  0.23192  0.22598  0.20528  1.0000
  H   H29       1.0  0.23142  0.22432  0.24856  1.0000
  H   H30       1.0  0.21411  0.22813  0.20324  1.0000
  H   H31       1.0  0.03501  0.14360  0.40234  1.0000
  H   H32       1.0  0.14928  0.13420  0.45423  1.0000
  C   C34       1.0  0.24009  0.45053  0.46335  1.0000
  C   C35       1.0  0.14128  0.15208  0.11026  1.0000
  C   C36       1.0  0.19382  0.17624  0.42651  1.0000
  H   H33       1.0  0.16603  0.10416  0.13186  1.0000
  H   H34       1.0  0.13587  0.16292  0.40282  1.0000
  C   C37       1.0  0.04042  0.12644  0.39898  1.0000
  S   S16       1.0  0.16977  0.46552  0.09387  1.0000
  S   S17       1.0  0.20683  0.42831  0.14355  1.0000
  H   H35       1.0  0.19794  0.45463  0.38595  1.0000
  S   S18       1.0  0.23223  0.22641  0.15014  1.0000
  N   N3        1.0  0.24750  0.28114  0.22992  1.0000
  C   C38       1.0  0.25826  0.43323  0.01615  1.0000
  H   H36       1.0  0.08688  0.09221  0.39039  1.0000
  C   C39       1.0  0.25235  0.20888  0.98397  1.0000
  C   C40       1.0  0.25548  0.28153  0.25801  1.0000
  H   H37       1.0  0.17052  0.09798  0.08261  1.0000
  C   C41       1.0  0.23761  0.38893  0.26736  1.0000
  S   S19       1.0  0.09510  0.10680  0.46955  1.0000
  C   C42       1.0  0.20254  0.50854  0.47322  1.0000
  C   C43       1.0  0.23610  0.21446  0.46053  1.0000
  S   S20       1.0  0.10792  0.05611  0.99675  1.0000
  S   S21       1.0  0.23277  0.45976  0.10385  1.0000
  C   C44       1.0  0.21878  0.44628  0.24459  1.0000
  Fe  Fe13      1.0  0.25508  0.22776  0.11476  1.0000
  H   H38       1.0  0.20844  0.43650  0.98374  1.0000
  C   C45       1.0  0.02701  0.10838  0.00499  1.0000
  H   H39       1.0  0.24238  0.28849  0.27206  1.0000
  C   C46       1.0  0.17678  0.01999  0.38746  1.0000
  H   H40       1.0  0.17746  0.45514  0.35908  1.0000
  C   C47       1.0  0.17717  0.49256  0.39889  1.0000
  H   H41       1.0  0.12701  0.15497  0.44828  1.0000
  H   H42       1.0  0.21348  0.28348  0.24074  1.0000
  C   C48       1.0  0.02525  0.08699  0.01314  1.0000
  H   H43       1.0  0.25474  0.26989  0.02806  1.0000
  N   N4        1.0  0.24743  0.39567  0.22151  1.0000
  C   C49       1.0  0.02869  0.08278  0.46111  1.0000
  C   C50       1.0  0.26243  0.27873  0.20936  1.0000
  H   H44       1.0  0.25378  0.48065  0.05521  1.0000
  C   C51       1.0  0.26208  0.31710  0.34851  1.0000
  S   S22       1.0  0.03690  0.12844  0.22239  1.0000
  C   C52       1.0  0.19403  0.49387  0.18345  1.0000
  Fe  Fe14      1.0  0.24662  0.42887  0.08299  1.0000
  C   C53       1.0  0.24465  0.38237  0.97698  1.0000
  H   H45       1.0  0.23364  0.21746  0.41705  1.0000
  C   C54       1.0  0.17903  0.49228  0.16198  1.0000
  H   H46       1.0  0.13256  0.16711  0.11784  1.0000
  S   S23       1.0  0.22351  0.30446  0.32498  1.0000
  C   C55       1.0  0.16285  0.11349  0.09026  1.0000
  H   H47       1.0  0.22471  0.39447  0.18814  1.0000
  C   C56       1.0  0.22081  0.17073  0.26206  1.0000
  Fe  Fe15      1.0  0.22369  0.39988  0.12019  1.0000
  C   C57       1.0  0.24164  0.32367  0.33644  1.0000
  H   H48       1.0  0.15536  0.12652  0.05064  1.0000
  C   C58       1.0  0.26288  0.44628  0.46731  1.0000
  C   C59       1.0  0.06155  0.05904  0.38786  1.0000
  C   C60       1.0  0.24503  0.22478  0.18215  1.0000
  C   C61       1.0  0.17661  0.47374  0.01330  1.0000
  H   H49       1.0  0.04317  0.11399  0.00179  1.0000
  C   C62       1.0  0.14495  0.04242  0.23731  1.0000
  C   C63       1.0  0.25042  0.30697  0.10652  1.0000
  C   C64       1.0  0.03227  0.08886  0.39438  1.0000
  H   H50       1.0  0.18528  0.16318  0.46460  1.0000
  H   H51       1.0  0.20604  0.17838  0.17084  1.0000
  N   N5        1.0  0.23713  0.49534  0.99200  1.0000
  C   C65       1.0  0.22574  0.44771  0.21772  1.0000
  H   H52       1.0  0.02029  0.07686  0.39474  1.0000
  C   C66       1.0  0.21757  0.28140  0.19769  1.0000
  C   C67       1.0  0.24659  0.45440  0.21235  1.0000
  H   H53       1.0  0.16231  0.14414  0.16628  1.0000
  S   S24       1.0  0.22865  0.45614  0.43115  1.0000
  C   C68       1.0  0.23544  0.43356  0.01242  1.0000
  H   H54       1.0  0.20513  0.46188  0.35262  1.0000
  H   H55       1.0  0.22355  0.40487  0.45276  1.0000
  C   C69       1.0  0.23573  0.49013  0.01868  1.0000
  Fe  Fe16      1.0  0.23970  0.44175  0.14270  1.0000
  H   H56       1.0  0.13636  0.16120  0.06838  1.0000
  H   H57       1.0  0.19726  0.49256  0.46609  1.0000
  C   C70       1.0  0.22532  0.28220  0.22442  1.0000
  H   H58       1.0  0.19318  0.45388  0.04442  1.0000
  H   H59       1.0  0.21960  0.35131  0.32396  1.0000
  H   H60       1.0  0.24965  0.28987  0.11091  1.0000
  N   N6        1.0  0.14807  0.03206  0.26377  1.0000
  C   C71       1.0  0.24944  0.36184  0.34188  1.0000
  H   H61       1.0  0.04004  0.07584  0.01589  1.0000
  H   H62       1.0  0.22500  0.43121  0.02933  1.0000
  Fe  Fe17      1.0  0.25105  0.44761  0.39566  1.0000
  S   S25       1.0  0.21438  0.41395  0.07955  1.0000
  H   H63       1.0  0.24588  0.17433  0.15949  1.0000
  S   S26       1.0  0.22076  0.36524  0.13301  1.0000
  H   H64       1.0  0.20256  0.44131  0.24865  1.0000
  C   C72       1.0  0.02671  0.08545  0.21749  1.0000
  H   H65       1.0  0.26010  0.38402  0.04212  1.0000
  C   C73       1.0  0.17963  0.16694  0.44415  1.0000
  S   S27       1.0  0.24111  0.42247  0.36582  1.0000
  S   S28       1.0  0.15800  0.02234  0.46620  1.0000
  S   S29       1.0  0.24787  0.20538  0.33280  1.0000
  C   C74       1.0  0.15204  0.16683  0.40977  1.0000
  H   H66       1.0  0.18954  0.49640  0.33319  1.0000
  C   C75       1.0  0.23278  0.45107  0.26624  1.0000
  H   H67       1.0  0.13329  0.15235  0.16186  1.0000
  N   N7        1.0  0.14934  0.13610  0.12770  1.0000
  C   C76       1.0  0.23310  0.38821  0.23955  1.0000
  C   C77       1.0  0.18676  0.18095  0.40013  1.0000
  N   N8        1.0  0.15843  0.50334  0.16293  1.0000
  C   C78       1.0  0.24173  0.22407  0.23102  1.0000
  C   C79       1.0  0.21204  0.17388  0.21365  1.0000
  H   H68       1.0  0.14235  0.12412  0.16641  1.0000
  C   C80       1.0  0.17096  0.02307  0.30272  1.0000
  H   H69       1.0  0.22916  0.26570  0.45090  1.0000
  H   H70       1.0  0.19754  0.18816  0.38618  1.0000
  H   H71       1.0  0.04418  0.08088  0.21550  1.0000
  C   C81       1.0  0.14675  0.13939  0.15695  1.0000
  C   C82       1.0  0.16021  0.11708  0.11807  1.0000
  H   H72       1.0  0.07782  0.05654  0.37766  1.0000
  N   N9        1.0  0.25847  0.38069  0.99905  1.0000
  S   S30       1.0  0.24199  0.20642  0.01687  1.0000
  C   C83       1.0  0.23694  0.32309  0.12063  1.0000
  C   C84       1.0  0.23541  0.34609  0.33315  1.0000
  H   H73       1.0  0.23251  0.15997  0.27447  1.0000
  H   H74       1.0  0.16021  0.17960  0.37106  1.0000
  C   C85       1.0  0.25214  0.35135  0.09519  1.0000
  H   H75       1.0  0.26054  0.39802  0.29813  1.0000
  H   H76       1.0  0.24824  0.40893  0.18207  1.0000
  C   C86       1.0  0.03116  0.10501  0.46523  1.0000
  C   C87       1.0  0.25654  0.16951  0.20086  1.0000
  H   H77       1.0  0.15342  0.05766  0.23672  1.0000
  C   C88       1.0  0.16964  0.01371  0.43481  1.0000
  H   H78       1.0  0.17698  0.48060  0.41482  1.0000
  C   C89       1.0  0.21836  0.17501  0.18665  1.0000
  H   H79       1.0  0.14970  0.50807  0.12169  1.0000
  Fe  Fe18      1.0  0.13424  0.05301  0.46590  1.0000
  H   H80       1.0  0.21794  0.38190  0.23252  1.0000
  Fe  Fe19      1.0  0.24882  0.44597  0.33381  1.0000
  N   N10       1.0  0.26146  0.27660  0.45280  1.0000
  C   C90       1.0  0.22604  0.43685  0.98664  1.0000
  H   H81       1.0  0.06313  0.05123  0.40799  1.0000
  H   H82       1.0  0.24782  0.36018  0.02948  1.0000
  C   C91       1.0  0.25730  0.49529  0.98000  1.0000
  C   C92       1.0  0.14896  0.49110  0.05436  1.0000
  H   H83       1.0  0.20424  0.16465  0.26401  1.0000
  C   C93       1.0  0.26044  0.45945  0.23400  1.0000
  C   C94       1.0  0.23774  0.26217  0.99114  1.0000
  C   C95       1.0  0.25367  0.45758  0.26087  1.0000
  Fe  Fe20      1.0  0.08608  0.07234  0.46650  1.0000
  C   C96       1.0  0.13170  0.02096  0.27417  1.0000
  H   H84       1.0  0.23290  0.38710  0.02810  1.0000
  S   S31       1.0  0.05132  0.06268  0.46237  1.0000
  C   C97       1.0  0.24270  0.39451  0.19241  1.0000
  N   N11       1.0  0.22764  0.17067  0.23375  1.0000
  C   C98       1.0  0.18413  0.50140  0.35339  1.0000
  H   H85       1.0  0.20000  0.28198  0.19331  1.0000
  H   H86       1.0  0.22007  0.18763  0.27060  1.0000
  C   C99       1.0  0.23267  0.27935  0.17659  1.0000
  C   C100      1.0  0.15430  0.01188  0.31357  1.0000
  H   H87       1.0  0.12718  0.04747  0.23323  1.0000
  H   H88       1.0  0.25129  0.37941  0.18336  1.0000
  H   H89       1.0  0.26205  0.16730  0.24369  1.0000
  C   C101      1.0  0.25488  0.48534  0.03426  1.0000
  C   C102      1.0  0.25522  0.26949  0.00615  1.0000
  C   C103      1.0  0.06946  0.09737  0.39234  1.0000
  H   H90       1.0  0.18054  0.04189  0.26943  1.0000
  C   C104      1.0  0.19155  0.46338  0.36755  1.0000
  H   H91       1.0  0.13798  0.49763  0.07015  1.0000
  S   S32       1.0  0.14695  0.08606  0.46906  1.0000
  H   H92       1.0  0.21040  0.48511  0.18255  1.0000
  C   C105      1.0  0.24937  0.37778  0.02594  1.0000
  S   S33       1.0  0.25530  0.47247  0.36387  1.0000
  H   H93       1.0  0.25295  0.36844  0.09085  1.0000
  H   H94       1.0  0.15142  0.03100  0.22106  1.0000
  H   H95       1.0  0.22693  0.27814  0.15579  1.0000
  C   C106      1.0  0.25700  0.39711  0.27660  1.0000
  S   S34       1.0  0.25704  0.41239  0.12186  1.0000
  C   C107      1.0  0.25525  0.27801  0.18240  1.0000
  C   C108      1.0  0.06283  0.11961  0.39618  1.0000
  N   N12       1.0  0.18452  0.48640  0.37360  1.0000
  S   S35       1.0  0.25602  0.45663  0.17901  1.0000
  H   H96       1.0  0.21890  0.21182  0.46289  1.0000
  C   C109      1.0  0.14471  0.15214  0.45435  1.0000
  C   C110      1.0  0.14580  0.49873  0.02777  1.0000
  H   H97       1.0  0.25142  0.26863  0.41244  1.0000
  H   H98       1.0  0.02433  0.10822  0.16121  1.0000
  C   C111      1.0  0.24966  0.16880  0.22770  1.0000
  S   S36       1.0  0.14577  0.49601  0.46799  1.0000
  H   H99       1.0  0.25996  0.29580  0.41733  1.0000
  C   C112      1.0  0.24075  0.17270  0.18026  1.0000
  H   H100      1.0  0.04720  0.11022  0.47019  1.0000
  C   C113      1.0  0.26325  0.27845  0.42340  1.0000
  H   H101      1.0  0.14084  0.48361  0.13624  1.0000
  C   C114      1.0  0.16759  0.03306  0.27760  1.0000
  H   H102      1.0  0.18637  0.02399  0.31381  1.0000
  H   H103      1.0  0.01791  0.05250  0.21122  1.0000
  H   H104      1.0  0.01479  0.13778  0.46595  1.0000
  H   H105      1.0  0.20314  0.50756  0.98829  1.0000
  C   C115      1.0  0.22374  0.39864  0.47321  1.0000
  C   C116      1.0  0.18777  0.50680  0.20602  1.0000
  H   H106      1.0  0.19919  0.50799  0.22291  1.0000
  C   C117      1.0  0.13452  0.01081  0.29927  1.0000
  H   H107      1.0  0.26109  0.26467  0.26446  1.0000
  C   C118      1.0  0.26087  0.22363  0.68454  1.0000
  Fe  Fe21      1.0  0.21036  0.21729  0.83292  1.0000
  S   S37       1.0  0.23890  0.21045  0.51556  1.0000
  S   S38       1.0  0.18428  0.19303  0.83160  1.0000
  Fe  Fe22      1.0  0.22627  0.26303  0.84173  1.0000
  H   H108      1.0  0.16847  0.08127  0.54746  1.0000
  H   H109      1.0  0.17309  0.14828  0.86385  1.0000
  H   H110      1.0  0.21736  0.28924  0.66667  1.0000
  S   S39       1.0  0.21467  0.24498  0.80476  1.0000
  S   S40       1.0  0.21819  0.23681  0.87035  1.0000
  Fe  Fe23      1.0  0.06226  0.12734  0.72756  1.0000
  S   S41       1.0  0.07757  0.09311  0.72252  1.0000
  Fe  Fe24      1.0  0.10743  0.14591  0.72452  1.0000
  S   S42       1.0  0.12550  0.11261  0.71777  1.0000
  S   S43       1.0  0.12733  0.17541  0.72609  1.0000
  Fe  Fe25      1.0  0.09729  0.10643  0.68957  1.0000
  S   S44       1.0  0.09581  0.08599  0.65103  1.0000
  Fe  Fe26      1.0  0.10379  0.10300  0.75106  1.0000
  S   S45       1.0  0.11653  0.08055  0.78439  1.0000
  S   S46       1.0  0.08087  0.14062  0.69337  1.0000
  S   S47       1.0  0.08688  0.13645  0.75904  1.0000
  H   H111      1.0  0.04928  0.09555  0.93544  1.0000
  C   C119      1.0  0.24503  0.35679  0.66391  1.0000
  H   H112      1.0  0.16898  0.14599  0.89943  1.0000
  C   C120      1.0  0.05819  0.09042  0.86919  1.0000
  H   H113      1.0  0.22151  0.20248  0.96491  1.0000
  Fe  Fe27      1.0  0.12045  0.09370  0.49996  1.0000
  S   S48       1.0  0.12903  0.11355  0.53683  1.0000
  Fe  Fe28      1.0  0.11199  0.09604  0.93738  1.0000
  S   S49       1.0  0.11322  0.11986  0.90337  1.0000
  S   S50       1.0  0.10963  0.05976  0.49933  1.0000
  S   S51       1.0  0.10836  0.06043  0.93050  1.0000
  H   H114      1.0  0.06986  0.09361  0.81755  1.0000
  S   S52       1.0  0.16954  0.47563  0.59069  1.0000
  Fe  Fe29      1.0  0.19816  0.45067  0.59993  1.0000
  C   C121      1.0  0.19452  0.48947  0.85465  1.0000
  H   H115      1.0  0.17791  0.44919  0.91176  1.0000
  H   H116      1.0  0.24011  0.31776  0.79620  1.0000
  C   C122      1.0  0.16195  0.48025  0.55657  1.0000
  C   C123      1.0  0.17073  0.46648  0.53579  1.0000
  C   C124      1.0  0.16497  0.47102  0.50872  1.0000
  C   C125      1.0  0.03971  0.10795  0.79968  1.0000
  C   C126      1.0  0.23869  0.26179  0.96289  1.0000
  H   H117      1.0  0.18291  0.46963  0.93675  1.0000
  C   C127      1.0  0.14182  0.50322  0.52296  1.0000
  H   H118      1.0  0.17149  0.46017  0.49276  1.0000
  C   C128      1.0  0.23933  0.44042  0.96459  1.0000
  S   S53       1.0  0.16508  0.03264  0.96197  1.0000
  H   H119      1.0  0.04656  0.10852  0.77957  1.0000
  H   H120      1.0  0.02941  0.13224  0.65783  1.0000
  C   C129      1.0  0.23835  0.20609  0.96167  1.0000
  S   S54       1.0  0.23977  0.41728  0.86603  1.0000
  C   C130      1.0  0.24339  0.44837  0.71337  1.0000
  S   S55       1.0  0.21092  0.42337  0.57220  1.0000
  C   C131      1.0  0.18615  0.15774  0.73274  1.0000
  C   C132      1.0  0.23059  0.44526  0.76775  1.0000
  N   N13       1.0  0.24410  0.38710  0.51326  1.0000
  S   S56       1.0  0.21692  0.29894  0.85201  1.0000
  C   C133      1.0  0.11585  0.09179  0.81722  1.0000
  C   C134      1.0  0.11829  0.07775  0.83925  1.0000
  C   C135      1.0  0.11745  0.08624  0.86571  1.0000
  C   C136      1.0  0.11388  0.10879  0.87036  1.0000
  C   C137      1.0  0.11156  0.12286  0.84831  1.0000
  C   C138      1.0  0.11273  0.11439  0.82181  1.0000
  H   H121      1.0  0.12097  0.06025  0.83584  1.0000
  H   H122      1.0  0.12009  0.07528  0.88235  1.0000
  H   H123      1.0  0.10897  0.14037  0.85168  1.0000
  H   H124      1.0  0.11148  0.12541  0.80504  1.0000
  C   C139      1.0  0.10315  0.09567  0.61935  1.0000
  C   C140      1.0  0.11626  0.11305  0.61714  1.0000
  C   C141      1.0  0.12359  0.11885  0.59159  1.0000
  C   C142      1.0  0.11774  0.10741  0.56818  1.0000
  C   C143      1.0  0.10413  0.09043  0.57039  1.0000
  C   C144      1.0  0.09693  0.08456  0.59589  1.0000
  H   H125      1.0  0.12116  0.12169  0.63513  1.0000
  H   H126      1.0  0.13408  0.13204  0.59001  1.0000
  H   H127      1.0  0.09942  0.08161  0.55250  1.0000
  H   H128      1.0  0.08671  0.07116  0.59745  1.0000
  C   C145      1.0  0.16733  0.18944  0.80281  1.0000
  C   C146      1.0  0.16718  0.20328  0.78060  1.0000
  C   C147      1.0  0.15413  0.19935  0.75762  1.0000
  C   C148      1.0  0.14141  0.18139  0.75647  1.0000
  C   C149      1.0  0.14144  0.16767  0.77877  1.0000
  C   C150      1.0  0.15419  0.17180  0.80190  1.0000
  H   H129      1.0  0.17712  0.21697  0.78110  1.0000
  H   H130      1.0  0.15416  0.21008  0.74051  1.0000
  H   H131      1.0  0.13176  0.15379  0.77812  1.0000
  H   H132      1.0  0.15402  0.16113  0.81904  1.0000
  C   C151      1.0  0.14948  0.03107  0.54290  1.0000
  C   C152      1.0  0.25162  0.45103  0.76171  1.0000
  H   H133      1.0  0.23731  0.29336  0.59043  1.0000
  H   H134      1.0  0.20968  0.24596  0.70209  1.0000
  C   C153      1.0  0.17950  0.17759  0.69036  1.0000
  C   C154      1.0  0.13650  0.04467  0.61532  1.0000
  H   H135      1.0  0.22668  0.24235  0.74786  1.0000
  H   H136      1.0  0.18180  0.45227  0.54051  1.0000
  H   H137      1.0  0.18924  0.48356  0.74205  1.0000
  C   C155      1.0  0.01512  0.10820  0.93319  1.0000
  C   C156      1.0  0.16155  0.06649  0.55363  1.0000
  H   H138      1.0  0.03187  0.08664  0.72370  1.0000
  C   C157      1.0  0.17241  0.07088  0.87142  1.0000
  C   C158      1.0  0.25124  0.28768  0.65434  1.0000
  S   S57       1.0  0.20914  0.36880  0.60949  1.0000
  H   H139      1.0  0.21470  0.49250  0.72993  1.0000
  H   H140      1.0  0.17255  0.14813  0.72756  1.0000
  C   C159      1.0  0.24989  0.21486  0.48348  1.0000
  C   C160      1.0  0.19638  0.01143  0.92903  1.0000
  C   C161      1.0  0.25937  0.31221  0.85366  1.0000
  H   H141      1.0  0.20094  0.33082  0.80432  1.0000
  H   H142      1.0  0.17280  0.16251  0.68240  1.0000
  C   C162      1.0  0.23502  0.33520  0.79680  1.0000
  H   H143      1.0  0.01875  0.12418  0.92660  1.0000
  C   C163      1.0  0.21608  0.44066  0.74652  1.0000
  H   H144      1.0  0.15553  0.46839  0.92298  1.0000
  H   H145      1.0  0.17062  0.07073  0.91492  1.0000
  H   H146      1.0  0.14577  0.14560  0.87664  1.0000
  H   H147      1.0  0.17171  0.07636  0.82848  1.0000
  N   N14       1.0  0.02306  0.09848  0.65560  1.0000
  C   C164      1.0  0.16362  0.14017  0.87925  1.0000
  H   H148      1.0  0.23179  0.19440  0.75365  1.0000
  H   H149      1.0  0.22512  0.25583  0.95138  1.0000
  H   H150      1.0  0.21120  0.43859  0.70316  1.0000
  C   C165      1.0  0.17340  0.46646  0.91804  1.0000
  C   C166      1.0  0.22933  0.32138  0.66536  1.0000
  C   C167      1.0  0.21848  0.50060  0.54592  1.0000
  C   C168      1.0  0.25781  0.27441  0.50864  1.0000
  H   H151      1.0  0.01588  0.10633  0.87150  1.0000
  H   H152      1.0  0.19661  0.45778  0.87269  1.0000
  N   N15       1.0  0.18584  0.50187  0.70607  1.0000
  Fe  Fe30      1.0  0.08326  0.06503  0.96338  1.0000
  C   C169      1.0  0.15931  0.04954  0.53502  1.0000
  C   C170      1.0  0.23126  0.29855  0.66264  1.0000
  C   C171      1.0  0.15403  0.06468  0.58003  1.0000
  C   C172      1.0  0.20834  0.18629  0.72272  1.0000
  H   H153      1.0  0.22749  0.36385  0.66376  1.0000
  C   C173      1.0  0.25062  0.35040  0.79462  1.0000
  H   H154      1.0  0.23874  0.37206  0.87299  1.0000
  H   H155      1.0  0.17415  0.05318  0.86934  1.0000
  Fe  Fe31      1.0  0.24986  0.23035  0.80287  1.0000
  C   C174      1.0  0.03249  0.09208  0.93860  1.0000
  C   C175      1.0  0.23891  0.23224  0.68147  1.0000
  H   H156      1.0  0.22507  0.37783  0.54644  1.0000
  S   S58       1.0  0.02513  0.13419  0.73217  1.0000
  H   H157      1.0  0.16529  0.18998  0.69423  1.0000
  S   S59       1.0  0.22168  0.44449  0.80153  1.0000
  C   C176      1.0  0.22484  0.38368  0.52583  1.0000
  N   N16       1.0  0.24686  0.33298  0.65985  1.0000
  H   H158      1.0  0.06581  0.10414  0.87948  1.0000
  C   C177      1.0  0.21296  0.34256  0.80139  1.0000
  H   H159      1.0  0.16542  0.11112  0.91911  1.0000
  S   S60       1.0  0.20087  0.43008  0.63734  1.0000
  C   C178      1.0  0.15081  0.48957  0.50221  1.0000
  H   H160      1.0  0.15542  0.07819  0.59415  1.0000
  H   H161      1.0  0.13420  0.01552  0.57537  1.0000
  S   S61       1.0  0.04960  0.05253  0.95946  1.0000
  C   C179      1.0  0.25727  0.26821  0.92036  1.0000
  C   C180      1.0  0.24592  0.20804  0.93516  1.0000
  N   N17       1.0  0.16715  0.11626  0.87666  1.0000
  C   C181      1.0  0.16774  0.10359  0.89924  1.0000
  C   C182      1.0  0.16847  0.10670  0.85149  1.0000
  C   C183      1.0  0.17050  0.08074  0.89699  1.0000
  C   C184      1.0  0.17128  0.08390  0.84848  1.0000
  S   S62       1.0  0.13869  0.09113  0.96892  1.0000
  C   C185      1.0  0.26103  0.38781  0.79354  1.0000
  H   H162      1.0  0.21222  0.34398  0.86864  1.0000
  S   S63       1.0  0.25139  0.41327  0.61677  1.0000
  N   N18       1.0  0.21610  0.50533  0.49780  1.0000
  C   C186      1.0  0.19026  0.47482  0.87490  1.0000
  Fe  Fe32      1.0  0.13353  0.05550  0.96390  1.0000
  C   C187      1.0  0.05278  0.09955  0.82128  1.0000
  C   C188      1.0  0.01813  0.06037  0.64929  1.0000
  S   S64       1.0  0.22637  0.23398  0.64927  1.0000
  H   H163      1.0  0.25286  0.27004  0.65210  1.0000
  C   C189      1.0  0.18396  0.49570  0.65804  1.0000
  H   H164      1.0  0.20959  0.48104  0.68392  1.0000
  C   C190      1.0  0.02806  0.07174  0.94842  1.0000
  H   H165      1.0  0.02513  0.04350  0.64775  1.0000
  N   N19       1.0  0.17826  0.48190  0.89712  1.0000
  S   S65       1.0  0.25162  0.45243  0.67985  1.0000
  C   C191      1.0  0.24097  0.31012  0.58972  1.0000
  N   N20       1.0  0.19201  0.17338  0.71556  1.0000
  C   C192      1.0  0.20610  0.50552  0.52243  1.0000
  H   H166      1.0  0.23497  0.20581  0.91815  1.0000
  H   H167      1.0  0.25844  0.49853  0.95860  1.0000
  C   C193      1.0  0.20670  0.36498  0.80333  1.0000
  H   H168      1.0  0.04967  0.07328  0.65376  1.0000
  Fe  Fe33      1.0  0.21709  0.40387  0.60976  1.0000
  H   H169      1.0  0.16674  0.11669  0.83357  1.0000
  C   C194      1.0  0.23682  0.31782  0.85788  1.0000
  H   H170      1.0  0.22367  0.44738  0.52854  1.0000
  C   C195      1.0  0.03782  0.11559  0.66089  1.0000
  C   C196      1.0  0.17456  0.02110  0.93081  1.0000
  S   S66       1.0  0.23103  0.46372  0.60646  1.0000
  N   N21       1.0  0.25673  0.26821  0.94999  1.0000
  Fe  Fe34      1.0  0.24718  0.44195  0.83545  1.0000
  H   H171      1.0  0.16479  0.05085  0.51435  1.0000
  C   C197      1.0  0.22252  0.44201  0.71938  1.0000
  C   C198      1.0  0.26220  0.44002  0.96824  1.0000
  Fe  Fe35      1.0  0.23493  0.44096  0.64172  1.0000
  Fe  Fe36      1.0  0.24908  0.44146  0.89728  1.0000
  H   H172      1.0  0.19977  0.43616  0.75106  1.0000
  H   H173      1.0  0.20876  0.32255  0.60382  1.0000
  C   C199      1.0  0.19660  0.15485  0.75795  1.0000
  C   C200      1.0  0.23465  0.44660  0.51157  1.0000
  Fe  Fe37      1.0  0.24403  0.43499  0.58111  1.0000
  C   C201      1.0  0.22477  0.32675  0.59745  1.0000
  C   C202      1.0  0.22669  0.23922  0.70438  1.0000
  H   H174      1.0  0.19000  0.18374  0.67446  1.0000
  H   H175      1.0  0.13824  0.05977  0.62761  1.0000
  C   C203      1.0  0.25311  0.38420  0.95100  1.0000
  S   S67       1.0  0.25270  0.46763  0.86707  1.0000
  C   C204      1.0  0.21914  0.18386  0.74780  1.0000
  H   H176      1.0  0.19121  0.14311  0.77197  1.0000
  C   C205      1.0  0.22961  0.33948  0.86524  1.0000
  H   H177      1.0  0.04367  0.11458  0.68217  1.0000
  C   C206      1.0  0.20397  0.39598  0.48623  1.0000
  H   H178      1.0  0.25388  0.37071  0.58977  1.0000
  C   C207      1.0  0.23628  0.23715  0.73031  1.0000
  H   H179      1.0  0.22059  0.16677  0.78557  1.0000
  S   S68       1.0  0.24135  0.24974  0.57717  1.0000
  S   S69       1.0  0.22675  0.44611  0.93304  1.0000
  S   S70       1.0  0.24517  0.20171  0.82897  1.0000
  H   H180      1.0  0.25121  0.28461  0.91261  1.0000
  C   C208      1.0  0.22934  0.34864  0.59760  1.0000
  C   C209      1.0  0.21304  0.16817  0.76559  1.0000
  H   H181      1.0  0.21285  0.19877  0.70918  1.0000
  C   C210      1.0  0.22604  0.45071  0.48554  1.0000
  H   H182      1.0  0.25647  0.27349  0.53041  1.0000
  C   C211      1.0  0.23847  0.50057  0.49584  1.0000
  Fe  Fe38      1.0  0.25326  0.22319  0.86410  1.0000
  Fe  Fe39      1.0  0.25029  0.23060  0.61458  1.0000
  C   C212      1.0  0.25788  0.45280  0.73464  1.0000
  H   H183      1.0  0.25320  0.36477  0.64725  1.0000
  C   C213      1.0  0.16033  0.01982  0.90855  1.0000
  C   C214      1.0  0.01774  0.11572  0.80417  1.0000
  N   N22       1.0  0.14435  0.04653  0.58761  1.0000
  C   C215      1.0  0.22267  0.37976  0.80064  1.0000
  H   H184      1.0  0.04852  0.08208  0.88416  1.0000
  C   C216      1.0  0.24463  0.35552  0.86748  1.0000
  H   H185      1.0  0.18964  0.37085  0.80727  1.0000
  C   C217      1.0  0.19447  0.49193  0.68307  1.0000
  Fe  Fe40      1.0  0.25636  0.22062  0.55386  1.0000
  H   H186      1.0  0.19084  0.48787  0.63984  1.0000
  H   H187      1.0  0.21028  0.50012  0.56526  1.0000
  C   C218      1.0  0.25818  0.22819  0.73338  1.0000
  H   H188      1.0  0.20386  0.48371  0.83693  1.0000
  H   H189      1.0  0.22589  0.26311  0.50056  1.0000
  S   S71       1.0  0.15612  0.49849  0.97330  1.0000
  C   C219      1.0  0.03189  0.07725  0.65274  1.0000
  C   C220      1.0  0.14201  0.02984  0.56944  1.0000
  H   H190      1.0  0.25903  0.39671  0.47701  1.0000
  H   H191      1.0  0.16187  0.50919  0.91819  1.0000
  H   H192      1.0  0.05239  0.11352  0.64740  1.0000
  C   C221      1.0  0.25144  0.49595  0.51898  1.0000
  H   H193      1.0  0.21768  0.39717  0.80226  1.0000
  H   H194      1.0  0.11864  0.04212  0.61515  1.0000
  C   C222      1.0  0.25743  0.44224  0.51554  1.0000
  C   C223      1.0  0.26181  0.31525  0.58172  1.0000
  H   H195      1.0  0.18922  0.38620  0.52305  1.0000
  H   H196      1.0  0.07159  0.07818  0.86210  1.0000
  C   C224      1.0  0.14722  0.49842  0.55007  1.0000
  S   S72       1.0  0.08526  0.10100  0.96811  1.0000
  C   C225      1.0  0.24055  0.26888  0.49186  1.0000
  H   H197      1.0  0.21365  0.32975  0.67150  1.0000
  H   H198      1.0  0.24211  0.38593  0.93357  1.0000
  C   C226      1.0  0.20448  0.38829  0.51264  1.0000
  N   N23       1.0  0.04413  0.09875  0.84663  1.0000
  C   C227      1.0  0.25012  0.35389  0.58945  1.0000
  H   H199      1.0  0.26376  0.38957  0.54876  1.0000
  H   H200      1.0  0.21180  0.48419  0.96722  1.0000
  C   C228      1.0  0.24379  0.39405  0.48709  1.0000
  S   S73       1.0  0.26173  0.25030  0.83747  1.0000
  H   H201      1.0  0.14596  0.03078  0.62562  1.0000
  H   H202      1.0  0.25282  0.36104  0.68344  1.0000
  C   C229      1.0  0.02267  0.10662  0.85131  1.0000
  H   H203      1.0  0.26291  0.45472  0.77786  1.0000
  H   H204      1.0  0.20845  0.45406  0.48259  1.0000
  H   H205      1.0  0.14345  0.02704  0.90972  1.0000
  N   N24       1.0  0.24432  0.37235  0.79639  1.0000
  C   C230      1.0  0.17096  0.50354  0.90030  1.0000
  H   H206      1.0  0.24681  0.25598  0.91152  1.0000
  C   C231      1.0  0.24131  0.49575  0.54412  1.0000
  H   H207      1.0  0.14737  0.01800  0.52829  1.0000
  S   S74       1.0  0.26158  0.20002  0.59109  1.0000
  H   H208      1.0  0.25112  0.49130  0.56202  1.0000
  C   C232      1.0  0.19668  0.49722  0.73227  1.0000
  H   H209      1.0  0.25396  0.40505  0.79634  1.0000
  H   H210      1.0  0.24632  0.49956  0.47622  1.0000
  H   H211      1.0  0.20752  0.01246  0.94612  1.0000
  C   C233      1.0  0.16445  0.50954  0.65663  1.0000
  H   H212      1.0  0.18838  0.50914  0.52401  1.0000
  H   H213      1.0  0.14010  0.50893  0.56606  1.0000
  H   H214      1.0  0.14626  0.15862  0.47533  1.0000
  H   H215      1.0  0.18828  0.40000  0.47591  1.0000
  C   C234      1.0  0.25277  0.95702  0.22112  1.0000
  C   C235      1.0  0.25404  0.92727  0.97695  1.0000
  C   C236      1.0  0.25395  0.79444  0.04921  1.0000
  H   H216      1.0  0.13251  0.51113  0.02326  1.0000
  H   H217      1.0  0.21185  0.51555  0.45681  1.0000
  S   S75       1.0  0.20120  0.99131  0.35397  1.0000
  N   N25       1.0  0.26221  0.80571  0.41367  1.0000
  S   S76       1.0  0.23518  0.93674  0.38165  1.0000
  C   C237      1.0  0.03966  0.56127  0.00495  1.0000
  C   C238      1.0  0.25045  0.73321  0.25899  1.0000
  S   S77       1.0  0.23647  0.94273  0.31579  1.0000
  Fe  Fe41      1.0  0.12246  0.52621  0.46059  1.0000
  N   N26       1.0  0.17266  0.60928  0.10330  1.0000
  Fe  Fe42      1.0  0.24619  0.91608  0.34543  1.0000
  S   S78       1.0  0.23639  0.88209  0.33622  1.0000
  H   H218      1.0  0.23164  0.89577  0.27495  1.0000
  H   H219      1.0  0.21233  0.95663  0.00234  1.0000
  C   C239      1.0  0.25651  0.73339  0.45691  1.0000
  N   N27       1.0  0.06959  0.57134  0.31499  1.0000
  C   C240      1.0  0.24438  0.89714  0.23432  1.0000
  H   H220      1.0  0.25771  0.86824  0.11628  1.0000
  H   H221      1.0  0.22403  0.69845  0.23431  1.0000
  C   C241      1.0  0.01675  0.56120  0.00719  1.0000
  N   N28       1.0  0.25056  0.99529  0.46049  1.0000
  C   C242      1.0  0.25539  0.72089  0.00497  1.0000
  S   S79       1.0  0.23740  0.74239  0.28895  1.0000
  C   C243      1.0  0.16380  0.60134  0.08003  1.0000
  H   H222      1.0  0.16368  0.51921  0.42457  1.0000
  Fe  Fe43      1.0  0.24028  0.75849  0.11304  1.0000
  C   C244      1.0  0.26098  0.95747  0.24778  1.0000
  S   S80       1.0  0.23180  0.79526  0.11423  1.0000
  Fe  Fe44      1.0  0.22106  0.71393  0.10939  1.0000
  H   H223      1.0  0.24896  0.74376  0.19179  1.0000
  S   S81       1.0  0.18915  0.69738  0.10783  1.0000
  S   S82       1.0  0.25622  0.76381  0.35791  1.0000
  H   H224      1.0  0.17324  0.64216  0.03734  1.0000
  C   C245      1.0  0.24611  0.89693  0.26257  1.0000
  H   H225      1.0  0.24646  0.94074  0.43581  1.0000
  S   S83       1.0  0.22820  0.73614  0.14402  1.0000
  S   S84       1.0  0.22950  0.73808  0.07803  1.0000
  Fe  Fe45      1.0  0.08753  0.60217  0.20701  1.0000
  S   S85       1.0  0.09961  0.56674  0.20345  1.0000
  S   S86       1.0  0.05092  0.61247  0.21225  1.0000
  Fe  Fe46      1.0  0.13461  0.61639  0.20458  1.0000
  S   S87       1.0  0.14953  0.58151  0.20188  1.0000
  S   S88       1.0  0.15977  0.64162  0.20601  1.0000
  Fe  Fe47      1.0  0.12225  0.57734  0.17195  1.0000
  S   S89       1.0  0.13024  0.55631  0.13497  1.0000
  Fe  Fe48      1.0  0.12535  0.57471  0.23386  1.0000
  S   S90       1.0  0.13104  0.55020  0.26751  1.0000
  S   S91       1.0  0.10843  0.61254  0.17284  1.0000
  S   S92       1.0  0.11230  0.60982  0.23920  1.0000
  H   H226      1.0  0.23516  0.95976  0.21742  1.0000
  S   S93       1.0  0.08607  0.57930  0.44403  1.0000
  C   C246      1.0  0.16680  0.51824  0.20669  1.0000
  H   H227      1.0  0.17961  0.73325  0.16639  1.0000
  Fe  Fe49      1.0  0.26387  0.72123  0.08039  1.0000
  S   S94       1.0  0.10929  0.59561  0.01905  1.0000
  Fe  Fe50      1.0  0.11726  0.56543  0.42402  1.0000
  S   S95       1.0  0.13071  0.58390  0.38960  1.0000
  H   H228      1.0  0.02744  0.53811  0.21935  1.0000
  C   C247      1.0  0.12208  0.56668  0.10304  1.0000
  C   C248      1.0  0.12703  0.55378  0.07987  1.0000
  C   C249      1.0  0.12259  0.56233  0.05398  1.0000
  C   C250      1.0  0.11320  0.58387  0.05116  1.0000
  C   C251      1.0  0.10789  0.59664  0.07431  1.0000
  C   C252      1.0  0.11223  0.58805  0.10019  1.0000
  H   H229      1.0  0.13482  0.53731  0.08189  1.0000
  H   H230      1.0  0.12700  0.55244  0.03626  1.0000
  H   H231      1.0  0.10068  0.61334  0.07224  1.0000
  H   H232      1.0  0.10833  0.59814  0.11782  1.0000
  C   C253      1.0  0.13031  0.55993  0.30127  1.0000
  C   C254      1.0  0.12536  0.54590  0.32201  1.0000
  C   C255      1.0  0.12496  0.55315  0.34913  1.0000
  C   C256      1.0  0.13012  0.57432  0.35576  1.0000
  C   C257      1.0  0.13513  0.58830  0.33501  1.0000
  C   C258      1.0  0.13494  0.58125  0.30783  1.0000
  H   H233      1.0  0.12171  0.52939  0.31706  1.0000
  H   H234      1.0  0.12097  0.54225  0.36487  1.0000
  H   H235      1.0  0.13917  0.60469  0.33997  1.0000
  H   H236      1.0  0.13894  0.59215  0.29203  1.0000
  C   C259      1.0  0.18167  0.68089  0.13458  1.0000
  C   C260      1.0  0.16071  0.67298  0.13419  1.0000
  C   C261      1.0  0.15420  0.65988  0.15523  1.0000
  C   C262      1.0  0.16850  0.65488  0.17708  1.0000
  C   C263      1.0  0.18959  0.66250  0.17723  1.0000
  C   C264      1.0  0.19622  0.67533  0.15601  1.0000
  H   H237      1.0  0.14938  0.67716  0.11762  1.0000
  H   H238      1.0  0.13782  0.65435  0.15504  1.0000
  H   H239      1.0  0.20072  0.65878  0.19411  1.0000
  H   H240      1.0  0.21245  0.68121  0.15646  1.0000
  C   C265      1.0  0.25015  0.83842  0.33301  1.0000
  C   C266      1.0  0.06235  0.56910  0.37026  1.0000
  H   H241      1.0  0.15645  0.58600  0.08002  1.0000
  H   H242      1.0  0.24079  0.83812  0.02957  1.0000
  H   H243      1.0  0.22968  0.00840  0.42865  1.0000
  C   C267      1.0  0.24362  0.74292  0.23455  1.0000
  H   H244      1.0  0.05758  0.57850  0.27525  1.0000
  H   H245      1.0  0.20772  0.81179  0.39768  1.0000
  C   C268      1.0  0.17673  0.52336  0.35844  1.0000
  H   H246      1.0  0.23086  0.75647  0.23443  1.0000
  C   C269      1.0  0.07458  0.58520  0.36016  1.0000
  H   H247      1.0  0.18941  0.63482  0.12155  1.0000
  C   C270      1.0  0.07318  0.57245  0.28578  1.0000
  C   C271      1.0  0.02460  0.57793  0.45072  1.0000
  Fe  Fe51      1.0  0.22928  0.96433  0.35249  1.0000
  S   S96       1.0  0.24919  0.93014  0.03175  1.0000
  H   H248      1.0  0.19028  0.65592  0.07948  1.0000
  H   H249      1.0  0.23632  0.79289  0.04894  1.0000
  H   H250      1.0  0.24350  0.71917  0.02069  1.0000
  H   H251      1.0  0.15356  0.60267  0.13715  1.0000
  C   C272      1.0  0.02026  0.55761  0.43984  1.0000
  C   C273      1.0  0.22437  0.81621  0.40138  1.0000
  C   C274      1.0  0.04897  0.58116  0.00472  1.0000
  C   C275      1.0  0.03533  0.60069  0.00651  1.0000
  S   S97       1.0  0.04199  0.53811  0.42996  1.0000
  C   C276      1.0  0.17025  0.59794  0.12880  1.0000
  C   C277      1.0  0.26183  0.93586  0.00126  1.0000
  H   H252      1.0  0.21763  0.99092  0.47208  1.0000
  H   H253      1.0  0.23348  0.83644  0.32611  1.0000
  S   S98       1.0  0.13523  0.55931  0.46371  1.0000
  H   H254      1.0  0.05962  0.56811  0.39182  1.0000
  H   H255      1.0  0.18361  0.98266  0.44991  1.0000
  H   H256      1.0  0.18276  0.60211  0.14414  1.0000
  H   H257      1.0  0.16176  0.52846  0.22409  1.0000
  C   C278      1.0  0.19197  0.98633  0.40806  1.0000
  H   H258      1.0  0.05053  0.54402  0.31096  1.0000
  C   C279      1.0  0.24658  0.83600  0.11755  1.0000
  H   H259      1.0  0.12654  0.50987  0.14399  1.0000
  S   S99       1.0  0.24548  0.73784  0.42402  1.0000
  N   N29       1.0  0.26172  0.81461  0.05100  1.0000
  H   H260      1.0  0.22926  0.84200  0.11761  1.0000
  H   H261      1.0  0.20701  0.71299  0.25968  1.0000
  H   H262      1.0  0.01490  0.55674  0.15801  1.0000
  H   H263      1.0  0.25499  0.85958  0.39896  1.0000
  H   H264      1.0  0.22820  0.97136  0.97939  1.0000
  C   C280      1.0  0.05364  0.55422  0.35248  1.0000
  S   S100      1.0  0.10665  0.53166  0.41959  1.0000
  H   H265      1.0  0.26019  0.80386  0.33207  1.0000
  H   H266      1.0  0.08760  0.59869  0.32469  1.0000
  C   C281      1.0  0.18289  0.64050  0.07939  1.0000
  H   H267      1.0  0.21681  0.85003  0.39044  1.0000
  C   C282      1.0  0.25090  0.84300  0.40221  1.0000
  H   H268      1.0  0.25342  0.84863  0.05970  1.0000
  H   H269      1.0  0.13614  0.52558  0.18527  1.0000
  C   C283      1.0  0.25267  0.81339  0.11723  1.0000
  C   C284      1.0  0.18203  0.99330  0.43264  1.0000
  C   C285      1.0  0.17335  0.63278  0.05575  1.0000
  C   C286      1.0  0.24829  0.72294  0.97788  1.0000
  H   H270      1.0  0.24090  0.91657  0.97726  1.0000
  Fe  Fe52      1.0  0.07651  0.54507  0.44247  1.0000
  C   C287      1.0  0.25635  0.85941  0.33884  1.0000
  C   C288      1.0  0.03828  0.57051  0.21763  1.0000
  H   H271      1.0  0.07916  0.55605  0.27749  1.0000
  H   H272      1.0  0.05512  0.56458  0.21344  1.0000
  H   H273      1.0  0.25817  0.00266  0.41957  1.0000
  H   H274      1.0  0.12141  0.00230  0.30766  1.0000
  C   C289      1.0  0.25355  0.73545  0.21028  1.0000
  H   H275      1.0  0.20120  0.97045  0.40653  1.0000
  C   C290      1.0  0.03203  0.59301  0.21894  1.0000
  H   H276      1.0  0.14368  0.71754  0.17060  1.0000
  S   S101      1.0  0.25592  0.95315  0.16618  1.0000
  H   H277      1.0  0.15607  0.60690  0.03782  1.0000
  S   S102      1.0  0.25479  0.69544  0.10910  1.0000
  H   H278      1.0  0.17209  0.57989  0.12566  1.0000
  H   H279      1.0  0.06670  0.58145  0.00282  1.0000
  H   H280      1.0  0.16905  0.98633  0.98809  1.0000
  C   C291      1.0  0.18939  0.99967  0.38537  1.0000
  H   H281      1.0  0.04406  0.54170  0.36033  1.0000
  H   H282      1.0  0.16379  0.54681  0.38847  1.0000
  H   H283      1.0  0.24969  0.96065  0.26437  1.0000
  H   H284      1.0  0.05009  0.54600  0.00283  1.0000
  C   C292      1.0  0.16380  0.61301  0.05599  1.0000
  H   H285      1.0  0.23692  0.78379  0.41284  1.0000
  C   C293      1.0  0.07792  0.58620  0.33228  1.0000
  H   H286      1.0  0.08178  0.59662  0.37390  1.0000
  S   S103      1.0  0.26195  0.91261  0.10553  1.0000
  H   H287      1.0  0.04246  0.61621  0.00592  1.0000
  C   C294      1.0  0.15231  0.51642  0.18474  1.0000
  S   S104      1.0  0.10080  0.53864  0.98692  1.0000
  H   H288      1.0  0.20592  0.68395  0.25397  1.0000
  C   C295      1.0  0.22941  0.83763  0.39748  1.0000
  C   C296      1.0  0.18233  0.62850  0.10315  1.0000
  Fe  Fe53      1.0  0.26250  0.71913  0.14223  1.0000
  H   H289      1.0  0.24135  0.98049  0.42361  1.0000
  C   C297      1.0  0.02249  0.55547  0.22096  1.0000
  H   H290      1.0  0.22833  0.89615  0.22484  1.0000
  N   N30       1.0  0.18989  0.70473  0.22391  1.0000
  C   C298      1.0  0.19323  0.71827  0.20296  1.0000
  C   C299      1.0  0.16997  0.69637  0.22668  1.0000
  C   C300      1.0  0.17662  0.72321  0.18358  1.0000
  C   C301      1.0  0.15296  0.70107  0.20776  1.0000
  C   C302      1.0  0.15641  0.71444  0.18598  1.0000
  C   C303      1.0  0.20753  0.69979  0.24397  1.0000
  H   H291      1.0  0.20896  0.72497  0.20082  1.0000
  H   H292      1.0  0.16733  0.68539  0.24305  1.0000
  C   C304      1.0  0.05739  0.55561  0.32471  1.0000
  H   H293      1.0  0.13757  0.69359  0.20942  1.0000
  C   C305      1.0  0.24603  0.83427  0.05064  1.0000
  H   H294      1.0  0.02519  0.59493  0.15651  1.0000
  C   C306      1.0  0.21154  0.97054  0.98814  1.0000
  C   C307      1.0  0.16961  0.52985  0.38428  1.0000
  C   C308      1.0  0.16968  0.51438  0.40461  1.0000
  Fe  Fe54      1.0  0.11300  0.57180  0.98392  1.0000
  H   H295      1.0  0.23123  0.83179  0.06283  1.0000
  C   C309      1.0  0.24469  0.99684  0.43169  1.0000
  C   C310      1.0  0.24102  0.80040  0.40982  1.0000
  C   C311      1.0  0.25691  0.94007  0.45352  1.0000
  H   H296      1.0  0.17624  0.53525  0.34237  1.0000
  H   H297      1.0  0.15676  0.00409  0.33307  1.0000
  H   H298      1.0  0.26241  0.75951  0.04720  1.0000
  H   H299      1.0  0.04131  0.58217  0.45253  1.0000
  H   H300      1.0  0.20758  0.98607  0.99968  1.0000
  C   C312      1.0  0.26271  0.85095  0.11673  1.0000
  H   H301      1.0  0.08600  0.58352  0.28098  1.0000
  Fe  Fe55      1.0  0.26024  0.73859  0.32488  1.0000
  H   H302      1.0  0.24530  0.90824  0.18259  1.0000
  H   H303      1.0  0.26009  0.88114  0.18174  1.0000
  C   C313      1.0  0.26055  0.89823  0.18928  1.0000
  N   N31       1.0  0.26266  0.89869  0.21885  1.0000
  S   S105      1.0  0.26370  0.97472  0.35527  1.0000
  S   S106      1.0  0.26255  0.97482  0.85605  1.0000
  H   H304      1.0  0.25419  0.86749  0.60627  1.0000
  H   H305      1.0  0.04728  0.59724  0.54432  1.0000
  C   C314      1.0  0.18674  0.51151  0.85749  1.0000
  S   S107      1.0  0.24816  0.93564  0.53401  1.0000
  H   H306      1.0  0.02094  0.61520  0.93964  1.0000
  H   H307      1.0  0.04216  0.52790  0.49851  1.0000
  S   S108      1.0  0.23864  0.93394  0.88304  1.0000
  C   C315      1.0  0.26090  0.73688  0.71032  1.0000
  H   H308      1.0  0.08887  0.60656  0.79973  1.0000
  S   S109      1.0  0.23895  0.93969  0.81714  1.0000
  H   H309      1.0  0.23013  0.93552  0.48039  1.0000
  C   C316      1.0  0.01718  0.59833  0.93971  1.0000
  Fe  Fe56      1.0  0.25110  0.91396  0.84692  1.0000
  S   S110      1.0  0.24356  0.87928  0.83743  1.0000
  H   H310      1.0  0.05721  0.56236  0.51330  1.0000
  H   H311      1.0  0.05764  0.54087  0.83346  1.0000
  C   C317      1.0  0.26347  0.93213  0.95227  1.0000
  H   H312      1.0  0.15943  0.52291  0.72321  1.0000
  H   H313      1.0  0.25965  0.77196  0.92886  1.0000
  C   C318      1.0  0.20085  0.95573  0.94408  1.0000
  C   C319      1.0  0.21347  0.69791  0.73536  1.0000
  C   C320      1.0  0.26162  0.99019  0.51489  1.0000
  Fe  Fe57      1.0  0.26139  0.72417  0.57979  1.0000
  H   H314      1.0  0.02207  0.61281  0.53365  1.0000
  H   H315      1.0  0.24846  0.82353  0.54735  1.0000
  C   C321      1.0  0.18917  0.99778  0.88374  1.0000
  H   H316      1.0  0.18936  0.65034  0.73903  1.0000
  Fe  Fe58      1.0  0.23656  0.75836  0.61541  1.0000
  H   H317      1.0  0.14122  0.98234  0.95212  1.0000
  S   S111      1.0  0.22734  0.79508  0.61548  1.0000
  Fe  Fe59      1.0  0.22163  0.71176  0.61213  1.0000
  N   N32       1.0  0.23230  0.79045  0.91010  1.0000
  S   S112      1.0  0.19648  0.68642  0.61014  1.0000
  C   C322      1.0  0.22410  0.69390  0.71064  1.0000
  C   C323      1.0  0.02969  0.55962  0.93720  1.0000
  S   S113      1.0  0.09540  0.58003  0.94479  1.0000
  C   C324      1.0  0.03495  0.59965  0.52762  1.0000
  S   S114      1.0  0.22846  0.73417  0.64696  1.0000
  S   S115      1.0  0.22575  0.73740  0.58075  1.0000
  Fe  Fe60      1.0  0.08365  0.59816  0.70584  1.0000
  S   S116      1.0  0.09986  0.56408  0.70142  1.0000
  S   S117      1.0  0.04653  0.60593  0.70905  1.0000
  Fe  Fe61      1.0  0.12803  0.61834  0.70552  1.0000
  S   S118      1.0  0.14743  0.58543  0.70228  1.0000
  S   S119      1.0  0.14418  0.65032  0.70794  1.0000
  Fe  Fe62      1.0  0.12163  0.57823  0.67133  1.0000
  S   S120      1.0  0.13349  0.56007  0.63346  1.0000
  Fe  Fe63      1.0  0.12386  0.57451  0.73285  1.0000
  S   S121      1.0  0.13199  0.54972  0.76580  1.0000
  S   S122      1.0  0.10348  0.61174  0.67284  1.0000
  S   S123      1.0  0.10643  0.60803  0.73902  1.0000
  H   H318      1.0  0.09015  0.57052  0.88256  1.0000
  C   C325      1.0  0.23829  0.82687  0.89674  1.0000
  H   H319      1.0  0.12395  0.69280  0.63505  1.0000
  H   H320      1.0  0.06035  0.57137  0.88270  1.0000
  C   C326      1.0  0.20370  0.99983  0.90555  1.0000
  S   S124      1.0  0.09450  0.59143  0.51976  1.0000
  Fe  Fe64      1.0  0.12586  0.56477  0.92432  1.0000
  S   S125      1.0  0.13856  0.58166  0.88813  1.0000
  C   C327      1.0  0.23443  0.67097  0.67125  1.0000
  C   C328      1.0  0.12178  0.56827  0.60207  1.0000
  C   C329      1.0  0.13073  0.55869  0.57824  1.0000
  C   C330      1.0  0.12210  0.56528  0.55287  1.0000
  C   C331      1.0  0.10470  0.58180  0.55123  1.0000
  C   C332      1.0  0.09575  0.59144  0.57506  1.0000
  C   C333      1.0  0.10408  0.58450  0.60043  1.0000
  S   S126      1.0  0.19685  0.98141  0.85513  1.0000
  H   H321      1.0  0.12918  0.55786  0.53459  1.0000
  H   H322      1.0  0.08231  0.60426  0.57390  1.0000
  H   H323      1.0  0.09683  0.59170  0.61868  1.0000
  C   C334      1.0  0.13289  0.55896  0.79973  1.0000
  C   C335      1.0  0.13775  0.58022  0.80619  1.0000
  C   C336      1.0  0.13953  0.58685  0.83339  1.0000
  C   C337      1.0  0.13593  0.57249  0.85434  1.0000
  C   C338      1.0  0.13055  0.55136  0.84790  1.0000
  C   C339      1.0  0.12934  0.54454  0.82066  1.0000
  H   H324      1.0  0.14068  0.59140  0.79023  1.0000
  H   H325      1.0  0.14374  0.60320  0.83823  1.0000
  H   H326      1.0  0.12768  0.54017  0.86383  1.0000
  H   H327      1.0  0.12559  0.52805  0.81575  1.0000
  C   C340      1.0  0.18379  0.67614  0.63868  1.0000
  C   C341      1.0  0.17862  0.65430  0.63827  1.0000
  C   C342      1.0  0.16658  0.64613  0.65939  1.0000
  C   C343      1.0  0.15941  0.65984  0.68100  1.0000
  C   C344      1.0  0.16489  0.68157  0.68162  1.0000
  C   C345      1.0  0.17712  0.68968  0.66064  1.0000
  H   H328      1.0  0.18366  0.64374  0.62132  1.0000
  H   H329      1.0  0.16263  0.62932  0.65880  1.0000
  H   H330      1.0  0.15949  0.69226  0.69834  1.0000
  H   H331      1.0  0.18078  0.70659  0.66105  1.0000
  H   H332      1.0  0.21935  0.51098  0.95898  1.0000
  Fe  Fe65      1.0  0.13157  0.52740  0.96412  1.0000
  C   C346      1.0  0.14457  0.66181  0.58199  1.0000
  Fe  Fe66      1.0  0.08553  0.54594  0.94608  1.0000
  C   C347      1.0  0.18537  0.95317  0.92337  1.0000
  H   H333      1.0  0.22729  0.98568  0.52040  1.0000
  H   H334      1.0  0.15187  0.96160  0.90990  1.0000
  H   H335      1.0  0.23036  0.89447  0.72495  1.0000
  H   H336      1.0  0.22040  0.76360  0.93035  1.0000
  H   H337      1.0  0.24045  0.75792  0.73703  1.0000
  S   S127      1.0  0.25381  0.72628  0.92334  1.0000
  S   S128      1.0  0.05100  0.53815  0.93502  1.0000
  H   H338      1.0  0.14043  0.53015  0.67927  1.0000
  C   C348      1.0  0.17368  0.97656  0.97023  1.0000
  C   C349      1.0  0.11944  0.65879  0.62792  1.0000
  H   H339      1.0  0.20039  0.77828  0.90892  1.0000
  C   C350      1.0  0.17504  0.51867  0.88056  1.0000
  Fe  Fe67      1.0  0.10262  0.56951  0.48337  1.0000
  H   H340      1.0  0.22441  0.73731  0.47530  1.0000
  H   H341      1.0  0.23868  0.73091  0.52195  1.0000
  H   H342      1.0  0.12869  0.62208  0.55552  1.0000
  H   H343      1.0  0.14360  0.60764  0.58263  1.0000
  H   H344      1.0  0.02722  0.53277  0.73444  1.0000
  S   S129      1.0  0.25676  0.69700  0.60842  1.0000
  N   N33       1.0  0.13722  0.64220  0.58855  1.0000
  H   H345      1.0  0.19029  0.94467  0.90468  1.0000
  H   H346      1.0  0.16911  0.53584  0.88313  1.0000
  H   H347      1.0  0.19231  0.68516  0.76466  1.0000
  C   C351      1.0  0.16762  0.00817  0.88512  1.0000
  C   C352      1.0  0.26127  0.89898  0.68837  1.0000
  H   H348      1.0  0.02623  0.56580  0.66257  1.0000
  H   H349      1.0  0.24429  0.83356  0.82504  1.0000
  N   N34       1.0  0.22283  0.67454  0.69697  1.0000
  H   H350      1.0  0.07086  0.58213  0.76751  1.0000
  C   C353      1.0  0.13968  0.68035  0.59842  1.0000
  C   C354      1.0  0.24801  0.81361  0.61743  1.0000
  C   C355      1.0  0.24242  0.83574  0.61145  1.0000
  H   H351      1.0  0.20845  0.81174  0.88889  1.0000
  C   C356      1.0  0.24202  0.73422  0.47885  1.0000
  H   H352      1.0  0.07711  0.54605  0.87622  1.0000
  H   H353      1.0  0.22551  0.84131  0.60626  1.0000
  H   H354      1.0  0.13078  0.51751  0.51819  1.0000
  C   C357      1.0  0.15778  0.97428  0.94995  1.0000
  C   C358      1.0  0.16377  0.96268  0.92629  1.0000
  H   H355      1.0  0.23612  0.95935  0.71848  1.0000
  H   H356      1.0  0.22875  0.68417  0.65699  1.0000
  S   S130      1.0  0.26110  0.91388  0.60698  1.0000
  H   H357      1.0  0.22039  0.99202  0.90459  1.0000
  C   C359      1.0  0.12715  0.67875  0.62161  1.0000
  C   C360      1.0  0.21817  0.77242  0.91089  1.0000
  H   H358      1.0  0.11012  0.65727  0.64627  1.0000
  C   C361      1.0  0.20103  0.68210  0.74578  1.0000
  S   S131      1.0  0.09115  0.53587  0.48302  1.0000
  H   H359      1.0  0.15614  0.51262  0.63726  1.0000
  C   C362      1.0  0.25965  0.82412  0.90749  1.0000
  H   H360      1.0  0.18982  0.52306  0.84191  1.0000
  C   C363      1.0  0.03426  0.58148  0.93673  1.0000
  H   H361      1.0  0.18747  0.51983  0.47709  1.0000
  C   C364      1.0  0.03113  0.54167  0.50564  1.0000
  H   H362      1.0  0.05089  0.58554  0.93403  1.0000
  C   C365      1.0  0.03953  0.56122  0.51374  1.0000
  C   C366      1.0  0.03630  0.56485  0.72459  1.0000
  C   C367      1.0  0.25377  0.95753  0.72224  1.0000
  H   H363      1.0  0.05374  0.55962  0.72325  1.0000
  C   C368      1.0  0.25867  0.85067  0.61161  1.0000
  C   C369      1.0  0.23452  0.99206  0.47876  1.0000
  H   H364      1.0  0.23321  0.70640  0.70221  1.0000
  Fe  Fe68      1.0  0.22977  0.96087  0.85365  1.0000
  H   H365      1.0  0.25595  0.76297  0.55223  1.0000
  H   H366      1.0  0.25038  0.96082  0.76551  1.0000
  C   C370      1.0  0.16653  0.51527  0.70495  1.0000
  H   H367      1.0  0.23119  0.65523  0.66131  1.0000
  C   C371      1.0  0.25340  0.78750  0.92024  1.0000
  H   H368      1.0  0.15472  0.66316  0.56433  1.0000
  C   C372      1.0  0.19961  0.66245  0.73158  1.0000
  C   C373      1.0  0.25269  0.74396  0.73563  1.0000
  C   C374      1.0  0.26354  0.72467  0.95713  1.0000
  H   H369      1.0  0.23247  0.84205  0.88683  1.0000
  H   H370      1.0  0.22261  0.76051  0.89423  1.0000
  N   N35       1.0  0.02559  0.57903  0.52117  1.0000
  H   H371      1.0  0.14636  0.69562  0.59376  1.0000
  S   S132      1.0  0.11504  0.53097  0.92318  1.0000
  H   H372      1.0  0.20926  0.64371  0.69602  1.0000
  H   H373      1.0  0.21773  0.94873  0.94140  1.0000
  N   N36       1.0  0.07466  0.56874  0.84369  1.0000
  C   C375      1.0  0.08296  0.58717  0.83453  1.0000
  C   C376      1.0  0.06455  0.55529  0.82614  1.0000
  C   C377      1.0  0.08180  0.59221  0.80702  1.0000
  C   C378      1.0  0.06305  0.55988  0.79850  1.0000
  C   C379      1.0  0.07181  0.57844  0.78892  1.0000
  C   C380      1.0  0.07558  0.56397  0.87267  1.0000
  H   H374      1.0  0.09096  0.59788  0.84843  1.0000
  C   C381      1.0  0.25953  0.83614  0.83562  1.0000
  H   H375      1.0  0.21478  0.71327  0.74624  1.0000
  H   H376      1.0  0.25795  0.92474  0.93381  1.0000
  H   H377      1.0  0.23488  0.89383  0.77494  1.0000
  C   C382      1.0  0.23981  0.98938  0.50617  1.0000
  C   C383      1.0  0.15563  0.51938  0.68022  1.0000
  H   H378      1.0  0.23650  0.78619  0.55804  1.0000
  H   H379      1.0  0.19486  0.51185  0.74587  1.0000
  H   H380      1.0  0.04350  0.60524  0.50960  1.0000
  H   H381      1.0  0.14451  0.54623  0.57942  1.0000
  C   C384      1.0  0.21085  0.65884  0.70715  1.0000
  H   H382      1.0  0.25522  0.74559  0.69237  1.0000
  C   C385      1.0  0.14212  0.62301  0.57086  1.0000
  H   H383      1.0  0.05519  0.54914  0.78453  1.0000
  S   S133      1.0  0.24913  0.74193  0.79037  1.0000
  H   H384      1.0  0.15632  0.00668  0.86826  1.0000
  H   H385      1.0  0.25254  0.67121  0.67453  1.0000
  H   H386      1.0  0.15804  0.62370  0.56026  1.0000
  H   H387      1.0  0.11879  0.62507  0.61622  1.0000
  C   C386      1.0  0.12459  0.64059  0.61100  1.0000
  C   C387      1.0  0.26182  0.95833  0.74895  1.0000
  S   S134      1.0  0.14481  0.56026  0.96352  1.0000
  H   H388      1.0  0.24572  0.90880  0.68232  1.0000
  C   C388      1.0  0.02865  0.58660  0.71934  1.0000
  C   C389      1.0  0.26383  0.85738  0.84352  1.0000
  C   C390      1.0  0.25008  0.73064  0.50534  1.0000
  C   C391      1.0  0.22483  0.80967  0.89794  1.0000
  C   C392      1.0  0.26080  0.93674  0.50232  1.0000
  C   C393      1.0  0.25132  0.78012  0.54618  1.0000
  C   C394      1.0  0.24884  0.89605  0.76210  1.0000
  C   C395      1.0  0.26033  0.73316  0.75913  1.0000
  C   C396      1.0  0.02124  0.54965  0.73089  1.0000
  C   C397      1.0  0.24643  0.89642  0.73392  1.0000
  S   S135      1.0  0.25722  0.95440  0.66727  1.0000
  H   H389      1.0  0.24706  0.78002  0.52430  1.0000
  N   N37       1.0  0.19499  0.96768  0.96689  1.0000
  C   C398      1.0  0.24765  0.93711  0.47887  1.0000
  Fe  Fe69      1.0  0.26376  0.72062  0.64165  1.0000
  H   H390      1.0  0.23091  0.72284  0.97297  1.0000
  H   H391      1.0  0.26090  0.88190  0.68072  1.0000
  N   N38       1.0  0.26407  0.89928  0.71787  1.0000
  Fe  Fe70      1.0  0.42276  0.10102  0.22262  1.0000
  C   C399      1.0  0.39075  0.08643  0.37692  1.0000
  Fe  Fe71      1.0  0.37441  0.11938  0.21723  1.0000
  S   S136      1.0  0.36223  0.08610  0.22004  1.0000
  S   S137      1.0  0.34869  0.14844  0.21341  1.0000
  Fe  Fe72      1.0  0.38740  0.08045  0.25353  1.0000
  C   C400      1.0  0.27164  0.40443  0.25806  1.0000
  S   S138      1.0  0.39759  0.11466  0.25305  1.0000
  S   S139      1.0  0.40066  0.10920  0.18698  1.0000
  Fe  Fe73      1.0  0.27779  0.25823  0.07928  1.0000
  C   C401      1.0  0.49663  0.07322  0.26892  1.0000
  S   S140      1.0  0.28171  0.29316  0.06850  1.0000
  Fe  Fe74      1.0  0.29959  0.21271  0.09185  1.0000
  C   C402      1.0  0.27616  0.33285  0.35710  1.0000
  S   S141      1.0  0.33073  0.19010  0.09759  1.0000
  H   H392      1.0  0.50147  0.03835  0.26202  1.0000
  C   C403      1.0  0.38720  0.06454  0.37212  1.0000
  H   H393      1.0  0.27821  0.22046  0.16718  1.0000
  C   C404      1.0  0.27551  0.48565  0.02233  1.0000
  S   S142      1.0  0.29303  0.23084  0.05295  1.0000
  S   S143      1.0  0.28791  0.24157  0.11821  1.0000
  C   C405      1.0  0.33399  0.15618  0.33345  1.0000
  H   H394      1.0  0.46406  0.04031  0.42149  1.0000
  H   H395      1.0  0.46659  0.08793  0.98028  1.0000
  H   H396      1.0  0.43717  0.11554  0.42680  1.0000
  H   H397      1.0  0.28000  0.27197  0.41655  1.0000
  S   S144      1.0  0.28811  0.37458  0.36493  1.0000
  Fe  Fe75      1.0  0.29064  0.45770  0.36339  1.0000
  S   S145      1.0  0.38669  0.05266  0.15624  1.0000
  S   S146      1.0  0.31825  0.48009  0.35986  1.0000
  H   H398      1.0  0.28654  0.41125  0.26511  1.0000
  S   S147      1.0  0.27036  0.42925  0.04832  1.0000
  C   C406      1.0  0.43969  0.07395  0.10273  1.0000
  C   C407      1.0  0.43773  0.09368  0.08876  1.0000
  S   S148      1.0  0.28673  0.43425  0.39705  1.0000
  S   S149      1.0  0.28441  0.43293  0.33046  1.0000
  H   H399      1.0  0.37040  0.46300  0.34538  1.0000
  H   H400      1.0  0.33742  0.48882  0.45613  1.0000
  H   H401      1.0  0.28003  0.27709  0.21374  1.0000
  H   H402      1.0  0.33466  0.14748  0.35242  1.0000
  H   H403      1.0  0.31199  0.18334  0.34824  1.0000
  C   C408      1.0  0.26472  0.22099  0.23378  1.0000
  H   H404      1.0  0.44625  0.09291  0.16608  1.0000
  H   H405      1.0  0.26946  0.29185  0.26021  1.0000
  H   H406      1.0  0.27691  0.34000  0.06603  1.0000
  C   C409      1.0  0.45566  0.07473  0.41443  1.0000
  H   H407      1.0  0.39173  0.03504  0.10231  1.0000
  S   S150      1.0  0.41406  0.06654  0.22541  1.0000
  H   H408      1.0  0.40375  0.47802  0.45473  1.0000
  S   S151      1.0  0.36995  0.06844  0.97757  1.0000
  C   C410      1.0  0.34571  0.14727  0.31119  1.0000
  H   H409      1.0  0.29773  0.16725  0.97765  1.0000
  Fe  Fe76      1.0  0.39636  0.07526  0.44667  1.0000
  H   H410      1.0  0.46191  0.04708  0.14733  1.0000
  C   C411      1.0  0.50695  0.09263  0.27028  1.0000
  H   H411      1.0  0.28504  0.21576  0.99652  1.0000
  C   C412      1.0  0.31021  0.15947  0.04416  1.0000
  C   C413      1.0  0.48348  0.08231  0.97560  1.0000
  H   H412      1.0  0.28936  0.43602  0.99674  1.0000
  C   C414      1.0  0.26664  0.22108  0.43151  1.0000
  C   C415      1.0  0.32718  0.48621  0.41439  1.0000
  N   N39       1.0  0.44223  0.07385  0.13025  1.0000
  H   H413      1.0  0.45827  0.06374  0.20772  1.0000
  C   C416      1.0  0.38900  0.06261  0.07569  1.0000
  H   H414      1.0  0.36484  0.43993  0.42604  1.0000
  H   H415      1.0  0.27655  0.46474  0.22998  1.0000
  C   C417      1.0  0.28041  0.22149  0.45446  1.0000
  C   C418      1.0  0.27785  0.21977  0.21066  1.0000
  C   C419      1.0  0.33009  0.49310  0.38799  1.0000
  H   H416      1.0  0.43635  0.05511  0.16483  1.0000
  H   H417      1.0  0.35369  0.02424  0.17178  1.0000
  H   H418      1.0  0.45606  0.12932  0.40707  1.0000
  H   H419      1.0  0.27391  0.44657  0.45045  1.0000
  C   C420      1.0  0.44169  0.11302  0.13108  1.0000
  C   C421      1.0  0.32132  0.17627  0.33112  1.0000
  H   H420      1.0  0.43544  0.04050  0.13364  1.0000
  H   H421      1.0  0.40830  0.48854  0.41027  1.0000
  C   C422      1.0  0.33929  0.49473  0.43589  1.0000
  H   H422      1.0  0.35237  0.12884  0.01491  1.0000
  C   C423      1.0  0.39691  0.47710  0.40309  1.0000
  H   H423      1.0  0.39810  0.48767  0.36172  1.0000
  C   C424      1.0  0.47024  0.05584  0.41693  1.0000
  H   H424      1.0  0.40242  0.44880  0.45572  1.0000
  C   C425      1.0  0.30659  0.16116  0.99561  1.0000
  C   C426      1.0  0.27167  0.43619  0.99395  1.0000
  H   H425      1.0  0.29199  0.32765  0.36627  1.0000
  H   H426      1.0  0.48862  0.03622  0.19392  1.0000
  C   C427      1.0  0.49291  0.05728  0.41474  1.0000
  Fe  Fe77      1.0  0.27698  0.41086  0.36435  1.0000
  H   H427      1.0  0.35441  0.02962  0.12213  1.0000
  H   H428      1.0  0.49677  0.10801  0.27264  1.0000
  C   C428      1.0  0.38425  0.05689  0.34547  1.0000
  H   H429      1.0  0.34733  0.18773  0.24839  1.0000
  H   H430      1.0  0.35387  0.43903  0.37769  1.0000
  C   C429      1.0  0.27846  0.28209  0.46915  1.0000
  C   C430      1.0  0.36650  0.44926  0.38458  1.0000
  H   H431      1.0  0.29762  0.22414  0.45218  1.0000
  C   C431      1.0  0.44769  0.11408  0.40850  1.0000
  C   C432      1.0  0.47872  0.09046  0.20967  1.0000
  H   H432      1.0  0.43806  0.07357  0.41639  1.0000
  C   C433      1.0  0.43847  0.11333  0.10311  1.0000
  C   C434      1.0  0.28081  0.38067  0.99599  1.0000
  Fe  Fe78      1.0  0.38706  0.03437  0.97803  1.0000
  H   H433      1.0  0.29565  0.21725  0.21260  1.0000
  C   C435      1.0  0.34442  0.50935  0.38351  1.0000
  Fe  Fe79      1.0  0.39667  0.07608  0.00680  1.0000
  S   S152      1.0  0.27782  0.22500  0.39943  1.0000
  S   S153      1.0  0.26731  0.19783  0.09080  1.0000
  C   C436      1.0  0.37263  0.45002  0.41190  1.0000
  C   C437      1.0  0.29860  0.16733  0.02119  1.0000
  H   H434      1.0  0.31855  0.18312  0.24577  1.0000
  C   C438      1.0  0.34351  0.15951  0.18093  1.0000
  C   C439      1.0  0.35735  0.15330  0.15922  1.0000
  C   C440      1.0  0.35333  0.16284  0.13380  1.0000
  C   C441      1.0  0.33526  0.17842  0.12976  1.0000
  C   C442      1.0  0.32117  0.18440  0.15131  1.0000
  C   C443      1.0  0.32539  0.17510  0.17689  1.0000
  H   H435      1.0  0.37138  0.14145  0.16203  1.0000
  H   H436      1.0  0.36440  0.15824  0.11731  1.0000
  H   H437      1.0  0.30723  0.19639  0.14830  1.0000
  H   H438      1.0  0.31464  0.18006  0.19354  1.0000
  C   C444      1.0  0.38194  0.08816  0.12262  1.0000
  C   C445      1.0  0.38249  0.09814  0.09737  1.0000
  H   H439      1.0  0.37845  0.09812  0.14045  1.0000
  H   H440      1.0  0.38029  0.11578  0.09620  1.0000
  C   C446      1.0  0.44377  0.09299  0.14435  1.0000
  C   C447      1.0  0.38512  0.07098  0.32349  1.0000
  C   C448      1.0  0.37581  0.46276  0.36638  1.0000
  S   S154      1.0  0.38830  0.09844  0.04266  1.0000
  C   C449      1.0  0.26659  0.40353  0.23040  1.0000
  C   C450      1.0  0.39181  0.10047  0.35494  1.0000
  H   H441      1.0  0.31065  0.20272  0.30477  1.0000
  C   C451      1.0  0.27679  0.49068  0.99503  1.0000
  H   H442      1.0  0.39003  0.10364  0.31152  1.0000
  C   C452      1.0  0.38895  0.05266  0.10103  1.0000
  S   S155      1.0  0.38031  0.06099  0.29049  1.0000
  C   C453      1.0  0.47459  0.06871  0.20486  1.0000
  H   H443      1.0  0.35543  0.13155  0.31266  1.0000
  C   C454      1.0  0.38563  0.06543  0.12459  1.0000
  S   S156      1.0  0.39365  0.09701  0.41000  1.0000
  C   C455      1.0  0.33720  0.13963  0.01674  1.0000
  H   H444      1.0  0.38649  0.05360  0.38893  1.0000
  C   C456      1.0  0.50934  0.05341  0.26427  1.0000
  H   H445      1.0  0.49201  0.11184  0.40509  1.0000
  C   C457      1.0  0.32068  0.18721  0.30648  1.0000
  H   H446      1.0  0.43495  0.09374  0.06703  1.0000
  N   N40       1.0  0.38755  0.46391  0.42084  1.0000
  C   C458      1.0  0.33942  0.01522  0.16793  1.0000
  H   H447      1.0  0.32974  0.01642  0.20984  1.0000
  H   H448      1.0  0.33793  0.01099  0.33662  1.0000
  S   S157      1.0  0.41275  0.04165  0.00910  1.0000
  C   C459      1.0  0.44421  0.05308  0.14466  1.0000
  H   H449      1.0  0.29276  0.49050  0.98542  1.0000
  C   C460      1.0  0.38619  0.08541  0.07383  1.0000
  H   H450      1.0  0.29338  0.28722  0.46045  1.0000
  H   H451      1.0  0.38134  0.04000  0.34177  1.0000
  S   S158      1.0  0.45794  0.11005  0.22168  1.0000
  N   N41       1.0  0.32916  0.14570  0.04172  1.0000
  H   H452      1.0  0.43859  0.05879  0.09147  1.0000
  H   H453      1.0  0.32674  0.20773  0.26173  1.0000
  C   C461      1.0  0.49184  0.05310  0.19715  1.0000
  H   H454      1.0  0.29045  0.48131  0.03407  1.0000
  H   H455      1.0  0.47878  0.07370  0.27017  1.0000
  C   C462      1.0  0.34144  0.13776  0.06583  1.0000
  H   H456      1.0  0.28710  0.28183  0.00461  1.0000
  C   C463      1.0  0.39335  0.46453  0.44968  1.0000
  H   H457      1.0  0.44236  0.12817  0.14254  1.0000
  H   H458      1.0  0.27781  0.40972  0.21611  1.0000
  C   C464      1.0  0.51339  0.05906  0.19454  1.0000
  H   H459      1.0  0.35704  0.14577  0.06770  1.0000
  H   H460      1.0  0.33191  0.14144  0.08464  1.0000
  H   H461      1.0  0.34547  0.11975  0.06441  1.0000
  H   H462      1.0  0.37813  0.46769  0.46193  1.0000
  N   N42       1.0  0.33254  0.17852  0.28488  1.0000
  C   C465      1.0  0.32603  0.14722  0.99331  1.0000
  H   H463      1.0  0.31621  0.47374  0.41811  1.0000
  C   C466      1.0  0.50012  0.09657  0.20617  1.0000
  S   S159      1.0  0.41322  0.04117  0.44809  1.0000
  H   H464      1.0  0.30401  0.16455  0.06395  1.0000
  S   S160      1.0  0.27736  0.21790  0.26580  1.0000
  C   C467      1.0  0.38917  0.09274  0.32830  1.0000
  C   C468      1.0  0.39122  0.47670  0.37560  1.0000
  Fe  Fe80      1.0  0.38993  0.07561  0.19187  1.0000
  H   H465      1.0  0.39136  0.05261  0.05769  1.0000
  N   N43       1.0  0.46346  0.09455  0.41021  1.0000
  C   C469      1.0  0.34923  0.01281  0.12010  1.0000
  H   H466      1.0  0.50344  0.11338  0.20972  1.0000
  H   H467      1.0  0.43641  0.12876  0.09256  1.0000
  H   H468      1.0  0.29174  0.37962  0.01353  1.0000
  H   H469      1.0  0.39464  0.11740  0.35854  1.0000
  C   C470      1.0  0.49559  0.10432  0.47127  1.0000
  C   C471      1.0  0.34475  0.15871  0.28690  1.0000
  H   H470      1.0  0.28353  0.17819  0.02325  1.0000
  C   C472      1.0  0.33123  0.18987  0.25899  1.0000
  H   H471      1.0  0.35385  0.15161  0.26967  1.0000
  H   H472      1.0  0.43672  0.11276  0.39051  1.0000
  H   H473      1.0  0.27400  0.16844  0.19615  1.0000
  C   C473      1.0  0.27344  0.27621  0.99288  1.0000
  H   H474      1.0  0.49487  0.11447  0.97924  1.0000
  H   H475      1.0  0.35564  0.02640  0.37736  1.0000
  H   H476      1.0  0.34086  0.01162  0.10010  1.0000
  C   C474      1.0  0.27411  0.21350  0.97956  1.0000
  H   H477      1.0  0.26708  0.29992  0.35118  1.0000
  C   C475      1.0  0.26990  0.35529  0.35390  1.0000
  C   C476      1.0  0.26480  0.31302  0.08670  1.0000
  H   H478      1.0  0.48956  0.12116  0.46757  1.0000
  C   C477      1.0  0.26566  0.33524  0.08113  1.0000
  C   C478      1.0  0.48566  0.09610  0.40777  1.0000
  S   S161      1.0  0.26709  0.25331  0.33124  1.0000
  C   C479      1.0  0.26801  0.22169  0.18490  1.0000
  H   H479      1.0  0.50443  0.04289  0.41760  1.0000
  C   C480      1.0  0.50071  0.07750  0.40995  1.0000
  H   H480      1.0  0.26708  0.27588  0.16608  1.0000
  H   H481      1.0  0.26451  0.46148  0.27739  1.0000
  C   C481      1.0  0.49958  0.09733  0.97509  1.0000
  C   C482      1.0  0.32594  0.01084  0.18953  1.0000
  C   C483      1.0  0.34901  0.01063  0.37822  1.0000
  S   S162      1.0  0.41892  0.08601  0.97426  1.0000
  Fe  Fe81      1.0  0.41887  0.09992  0.72327  1.0000
  H   H482      1.0  0.32752  0.01773  0.80071  1.0000
  Fe  Fe82      1.0  0.37069  0.11875  0.71869  1.0000
  S   S163      1.0  0.35819  0.08551  0.72037  1.0000
  S   S164      1.0  0.34546  0.14829  0.71558  1.0000
  Fe  Fe83      1.0  0.38352  0.07870  0.75343  1.0000
  S   S165      1.0  0.45392  0.10920  0.72346  1.0000
  S   S166      1.0  0.39393  0.11284  0.75428  1.0000
  S   S167      1.0  0.39677  0.10913  0.68800  1.0000
  Fe  Fe84      1.0  0.27573  0.25963  0.58032  1.0000
  C   C484      1.0  0.48781  0.05482  0.69158  1.0000
  S   S168      1.0  0.28266  0.29456  0.57278  1.0000
  Fe  Fe85      1.0  0.29486  0.21308  0.59341  1.0000
  C   C485      1.0  0.29134  0.16901  0.52998  1.0000
  S   S169      1.0  0.32561  0.18997  0.59984  1.0000
  H   H483      1.0  0.49868  0.11437  0.71024  1.0000
  H   H484      1.0  0.37787  0.10261  0.81064  1.0000
  C   C486      1.0  0.48811  0.06716  0.48178  1.0000
  C   C487      1.0  0.28186  0.21487  0.95301  1.0000
  S   S170      1.0  0.29039  0.23164  0.55449  1.0000
  S   S171      1.0  0.28399  0.24236  0.61930  1.0000
  C   C488      1.0  0.43531  0.06467  0.64180  1.0000
  H   H485      1.0  0.44474  0.06608  0.92337  1.0000
  C   C489      1.0  0.27203  0.21859  0.48037  1.0000
  Fe  Fe86      1.0  0.27570  0.40629  0.86520  1.0000
  C   C490      1.0  0.33274  0.49459  0.94108  1.0000
  S   S172      1.0  0.28644  0.36988  0.86381  1.0000
  Fe  Fe87      1.0  0.28835  0.45370  0.86664  1.0000
  C   C491      1.0  0.28983  0.38241  0.97029  1.0000
  S   S173      1.0  0.31492  0.47734  0.86427  1.0000
  C   C492      1.0  0.50920  0.06134  0.68935  1.0000
  C   C493      1.0  0.34222  0.50538  0.88826  1.0000
  C   C494      1.0  0.27442  0.32823  0.85608  1.0000
  H   H486      1.0  0.48481  0.03813  0.68665  1.0000
  S   S174      1.0  0.28487  0.42889  0.89892  1.0000
  S   S175      1.0  0.28302  0.42965  0.83254  1.0000
  H   H487      1.0  0.28921  0.43902  0.49635  1.0000
  C   C495      1.0  0.49728  0.10951  0.90849  1.0000
  H   H488      1.0  0.26788  0.34454  0.79213  1.0000
  C   C496      1.0  0.33387  0.13673  0.57243  1.0000
  S   S176      1.0  0.40890  0.04454  0.51426  1.0000
  H   H489      1.0  0.32350  0.02263  0.71201  1.0000
  S   S177      1.0  0.38579  0.09656  0.90895  1.0000
  H   H490      1.0  0.43552  0.09411  0.91713  1.0000
  C   C497      1.0  0.33204  0.01735  0.89188  1.0000
  S   S178      1.0  0.37742  0.05806  0.78981  1.0000
  C   C498      1.0  0.51344  0.09234  0.90330  1.0000
  C   C499      1.0  0.27153  0.44213  0.49336  1.0000
  C   C500      1.0  0.38408  0.05467  0.84454  1.0000
  H   H491      1.0  0.29204  0.17349  0.48693  1.0000
  C   C501      1.0  0.26897  0.29962  0.64860  1.0000
  C   C502      1.0  0.33860  0.02288  0.81717  1.0000
  Fe  Fe88      1.0  0.38564  0.07556  0.69164  1.0000
  H   H492      1.0  0.30753  0.38263  0.96794  1.0000
  H   H493      1.0  0.27436  0.38452  0.80895  1.0000
  N   N44       1.0  0.33265  0.01435  0.84335  1.0000
  C   C503      1.0  0.44621  0.07976  0.90929  1.0000
  H   H494      1.0  0.27258  0.44317  0.95152  1.0000
  H   H495      1.0  0.28029  0.33158  0.64678  1.0000
  H   H496      1.0  0.35441  0.02150  0.67985  1.0000
  C   C504      1.0  0.27391  0.27550  0.96458  1.0000
  C   C505      1.0  0.47441  0.09103  0.70822  1.0000
  C   C506      1.0  0.50087  0.09259  0.76953  1.0000
  H   H497      1.0  0.42808  0.08270  0.54843  1.0000
  H   H498      1.0  0.27427  0.26351  0.91291  1.0000
  H   H499      1.0  0.32450  0.15603  0.85653  1.0000
  C   C507      1.0  0.48055  0.08907  0.47743  1.0000
  C   C508      1.0  0.49557  0.09776  0.70498  1.0000
  C   C509      1.0  0.32710  0.48985  0.89262  1.0000
  H   H500      1.0  0.32787  0.15058  0.48144  1.0000
  H   H501      1.0  0.33550  0.02627  0.91036  1.0000
  H   H502      1.0  0.47268  0.07370  0.76859  1.0000
  C   C510      1.0  0.26778  0.21222  0.93074  1.0000
  C   C511      1.0  0.32230  0.48458  0.91919  1.0000
  H   H503      1.0  0.33727  0.04108  0.81743  1.0000
  C   C512      1.0  0.26650  0.32240  0.65159  1.0000
  H   H504      1.0  0.33666  0.11871  0.56952  1.0000
  H   H505      1.0  0.31085  0.47253  0.92282  1.0000
  H   H506      1.0  0.32469  0.14017  0.59156  1.0000
  H   H507      1.0  0.49511  0.03883  0.75712  1.0000
  C   C513      1.0  0.37858  0.08717  0.57381  1.0000
  H   H508      1.0  0.43965  0.07528  0.88911  1.0000
  S   S179      1.0  0.27793  0.21420  0.89769  1.0000
  H   H509      1.0  0.27401  0.45781  0.73014  1.0000
  H   H510      1.0  0.35009  0.14351  0.57490  1.0000
  H   H511      1.0  0.29178  0.32377  0.85240  1.0000
  Fe  Fe89      1.0  0.39376  0.07478  0.94492  1.0000
  C   C514      1.0  0.37897  0.05412  0.60023  1.0000
  C   C515      1.0  0.33119  0.14355  0.52399  1.0000
  H   H512      1.0  0.33245  0.14234  0.97353  1.0000
  H   H513      1.0  0.26522  0.29569  0.84790  1.0000
  C   C516      1.0  0.33977  0.01351  0.67438  1.0000
  H   H514      1.0  0.32932  0.49011  0.96153  1.0000
  Fe  Fe90      1.0  0.38765  0.03507  0.47929  1.0000
  H   H515      1.0  0.28243  0.34133  0.57543  1.0000
  C   C517      1.0  0.38113  0.06894  0.82261  1.0000
  H   H516      1.0  0.48059  0.05066  0.90086  1.0000
  H   H517      1.0  0.29542  0.16201  0.57221  1.0000
  N   N45       1.0  0.46938  0.08426  0.90736  1.0000
  Fe  Fe91      1.0  0.39169  0.07805  0.50821  1.0000
  S   S180      1.0  0.46974  0.04702  0.48751  1.0000
  C   C518      1.0  0.50306  0.05375  0.76036  1.0000
  C   C519      1.0  0.49050  0.07326  0.76693  1.0000
  H   H518      1.0  0.28745  0.21475  0.71258  1.0000
  H   H519      1.0  0.46315  0.09428  0.47849  1.0000
  S   S181      1.0  0.38093  0.05333  0.65563  1.0000
  C   C520      1.0  0.30244  0.15923  0.55226  1.0000
  H   H520      1.0  0.37969  0.03650  0.60098  1.0000
  H   H521      1.0  0.35593  0.01692  0.81219  1.0000
  H   H522      1.0  0.27859  0.39083  0.51825  1.0000
  C   C521      1.0  0.38179  0.09973  0.85394  1.0000
  C   C522      1.0  0.33979  0.15950  0.68319  1.0000
  C   C523      1.0  0.32123  0.17462  0.67930  1.0000
  C   C524      1.0  0.31663  0.18400  0.65381  1.0000
  C   C525      1.0  0.33074  0.17854  0.63213  1.0000
  C   C526      1.0  0.34930  0.16350  0.63603  1.0000
  C   C527      1.0  0.35372  0.15392  0.66136  1.0000
  H   H523      1.0  0.31030  0.17901  0.69597  1.0000
  H   H524      1.0  0.30229  0.19554  0.65098  1.0000
  H   H525      1.0  0.36046  0.15937  0.61951  1.0000
  H   H526      1.0  0.36814  0.14254  0.66406  1.0000
  C   C528      1.0  0.37742  0.08937  0.62284  1.0000
  C   C529      1.0  0.37768  0.09962  0.59777  1.0000
  H   H527      1.0  0.37614  0.09920  0.64103  1.0000
  H   H528      1.0  0.37740  0.11723  0.59706  1.0000
  S   S182      1.0  0.40879  0.04009  0.94272  1.0000
  H   H529      1.0  0.28282  0.21894  0.49785  1.0000
  C   C530      1.0  0.38585  0.06290  0.87110  1.0000
  S   S183      1.0  0.37993  0.10040  0.54269  1.0000
  H   H530      1.0  0.46274  0.11858  0.91470  1.0000
  H   H531      1.0  0.34685  0.13367  0.52157  1.0000
  H   H532      1.0  0.43982  0.09699  0.65717  1.0000
  C   C531      1.0  0.37864  0.06658  0.62424  1.0000
  H   H533      1.0  0.43455  0.05756  0.66164  1.0000
  H   H534      1.0  0.49074  0.10782  0.77329  1.0000
  C   C532      1.0  0.48513  0.06732  0.90233  1.0000
  H   H535      1.0  0.37867  0.05470  0.55671  1.0000
  N   N46       1.0  0.43529  0.08316  0.59089  1.0000
  C   C533      1.0  0.43784  0.09590  0.61346  1.0000
  C   C534      1.0  0.43329  0.06126  0.59321  1.0000
  C   C535      1.0  0.43312  0.05174  0.61868  1.0000
  C   C536      1.0  0.43560  0.09296  0.56408  1.0000
  H   H536      1.0  0.43958  0.11322  0.61163  1.0000
  H   H537      1.0  0.43125  0.05113  0.57535  1.0000
  H   H538      1.0  0.43065  0.03457  0.62056  1.0000
  H   H539      1.0  0.45285  0.09495  0.55820  1.0000
  H   H540      1.0  0.27583  0.17906  0.53263  1.0000
  H   H541      1.0  0.42565  0.10912  0.56396  1.0000
  N   N47       1.0  0.32239  0.18232  0.78591  1.0000
  C   C537      1.0  0.33365  0.16218  0.78950  1.0000
  C   C538      1.0  0.31153  0.19300  0.80706  1.0000
  C   C539      1.0  0.33469  0.15246  0.81494  1.0000
  C   C540      1.0  0.31214  0.18374  0.83276  1.0000
  C   C541      1.0  0.32388  0.16337  0.83668  1.0000
  C   C542      1.0  0.32100  0.19186  0.75891  1.0000
  H   H542      1.0  0.34189  0.15352  0.77260  1.0000
  H   H543      1.0  0.30229  0.20879  0.80418  1.0000
  H   H544      1.0  0.34378  0.13655  0.81770  1.0000
  H   H545      1.0  0.30348  0.19231  0.84948  1.0000
  H   H546      1.0  0.30735  0.18527  0.74717  1.0000
  H   H547      1.0  0.31781  0.20997  0.75994  1.0000
  H   H548      1.0  0.33666  0.18796  0.74771  1.0000
  H   H549      1.0  0.28438  0.29130  0.64138  1.0000
  H   H550      1.0  0.34446  0.04089  0.86587  1.0000
  C   C543      1.0  0.47516  0.10518  0.91031  1.0000
  H   H551      1.0  0.38081  0.11722  0.85753  1.0000
  N   N48       1.0  0.32210  0.14670  0.54906  1.0000
  C   C544      1.0  0.43795  0.08685  0.63924  1.0000
  S   S184      1.0  0.40997  0.06542  0.72462  1.0000
  C   C545      1.0  0.47049  0.06958  0.70122  1.0000
  C   C546      1.0  0.30048  0.16589  0.50433  1.0000
  H   H552      1.0  0.38800  0.05180  0.88786  1.0000
  H   H553      1.0  0.28816  0.28069  0.95436  1.0000
  C   C547      1.0  0.33709  0.02551  0.86666  1.0000
  H   H554      1.0  0.29878  0.21817  0.94972  1.0000
  C   C548      1.0  0.26710  0.35003  0.86257  1.0000
  C   C549      1.0  0.38020  0.09150  0.82737  1.0000
  C   C550      1.0  0.51087  0.06083  0.48071  1.0000
  C   C551      1.0  0.37879  0.06441  0.57506  1.0000
  H   H555      1.0  0.38506  0.03720  0.84096  1.0000
  C   C552      1.0  0.38452  0.08549  0.87589  1.0000
  C   C553      1.0  0.32053  0.15307  0.50125  1.0000
  H   H556      1.0  0.45435  0.06414  0.70407  1.0000
  C   C554      1.0  0.48931  0.06016  0.96984  1.0000
  H   H557      1.0  0.27033  0.21805  0.66702  1.0000
  Fe  Fe92      1.0  0.43260  0.05413  0.48297  1.0000
  S   S185      1.0  0.27053  0.22422  0.76552  1.0000
  H   H558      1.0  0.34620  0.50931  0.86781  1.0000
  C   C555      1.0  0.27049  0.22165  0.71041  1.0000
  S   S186      1.0  0.41706  0.08838  0.47991  1.0000
  H   H559      1.0  0.28265  0.38528  0.92759  1.0000
  C   C556      1.0  0.51143  0.05313  0.96412  1.0000
  C   C557      1.0  0.50737  0.07110  0.90010  1.0000
  H   H560      1.0  0.26984  0.36483  0.52871  1.0000
  C   C558      1.0  0.27691  0.28105  0.49731  1.0000
  C   C559      1.0  0.32231  0.01425  0.69265  1.0000
  S   S187      1.0  0.26868  0.43725  0.54795  1.0000
  H   H561      1.0  0.26834  0.38628  0.77307  1.0000
  H   H562      1.0  0.29039  0.28528  0.51041  1.0000
  H   H563      1.0  0.26908  0.49152  0.51731  1.0000
  C   C560      1.0  0.27587  0.38404  0.94767  1.0000
  H   H564      1.0  0.50202  0.12593  0.91197  1.0000
  H   H565      1.0  0.37023  0.01148  0.63812  1.0000
  S   S188      1.0  0.46942  0.04096  0.96817  1.0000
  C   C561      1.0  0.26513  0.38272  0.52785  1.0000
  C   C562      1.0  0.51293  0.08294  0.69579  1.0000
  Fe  Fe93      1.0  0.43290  0.05099  0.97393  1.0000
  C   C563      1.0  0.26628  0.33723  0.58138  1.0000
  S   S189      1.0  0.36921  0.06841  0.47483  1.0000
  H   H566      1.0  0.36690  0.66187  0.32306  1.0000
  S   S190      1.0  0.28154  0.92324  0.34860  1.0000
  C   C564      1.0  0.28521  0.89984  0.25902  1.0000
  H   H567      1.0  0.50070  0.55018  0.23833  1.0000
  S   S191      1.0  0.30576  0.79930  0.35185  1.0000
  H   H568      1.0  0.32894  0.97364  0.44186  1.0000
  H   H569      1.0  0.29745  0.90106  0.21863  1.0000
  N   N49       1.0  0.44794  0.58640  0.05196  1.0000
  H   H570      1.0  0.27248  0.70837  0.27802  1.0000
  H   H571      1.0  0.34537  0.56889  0.38037  1.0000
  C   C565      1.0  0.44305  0.58556  0.07883  1.0000
  H   H572      1.0  0.33483  0.60551  0.30723  1.0000
  H   H573      1.0  0.34198  0.94936  0.42585  1.0000
  Fe  Fe94      1.0  0.31453  0.94178  0.09290  1.0000
  Fe  Fe95      1.0  0.39295  0.54637  0.45736  1.0000
  S   S192      1.0  0.34494  0.96008  0.08818  1.0000
  C   C566      1.0  0.29817  0.95072  0.23093  1.0000
  S   S193      1.0  0.28060  0.95970  0.09265  1.0000
  S   S194      1.0  0.30971  0.92394  0.13161  1.0000
  H   H574      1.0  0.32225  0.97507  0.33935  1.0000
  C   C567      1.0  0.30313  0.99189  0.15857  1.0000
  N   N50       1.0  0.34208  0.97889  0.40342  1.0000
  Fe  Fe96      1.0  0.43665  0.61791  0.21355  1.0000
  S   S195      1.0  0.42603  0.58412  0.20931  1.0000
  S   S196      1.0  0.47241  0.62519  0.21433  1.0000
  Fe  Fe97      1.0  0.38931  0.63857  0.21938  1.0000
  S   S197      1.0  0.37514  0.60624  0.21539  1.0000
  S   S198      1.0  0.36527  0.66873  0.22420  1.0000
  Fe  Fe98      1.0  0.40289  0.59427  0.24311  1.0000
  S   S199      1.0  0.39885  0.57080  0.27681  1.0000
  Fe  Fe99      1.0  0.39946  0.59935  0.18180  1.0000
  S   S200      1.0  0.39033  0.58010  0.14462  1.0000
  S   S201      1.0  0.41550  0.62707  0.24956  1.0000
  S   S202      1.0  0.41161  0.63270  0.18344  1.0000
  H   H575      1.0  0.28517  0.79260  0.44316  1.0000
  C   C568      1.0  0.45168  0.56755  0.03696  1.0000
  C   C569      1.0  0.27511  0.80586  0.11750  1.0000
  C   C570      1.0  0.35033  0.99882  0.40225  1.0000
  C   C571      1.0  0.44858  0.60798  0.34374  1.0000
  Fe  Fe100     1.0  0.40385  0.58722  0.42949  1.0000
  S   S203      1.0  0.39687  0.61075  0.39524  1.0000
  Fe  Fe101     1.0  0.39408  0.59125  0.99151  1.0000
  S   S204      1.0  0.39046  0.61633  0.02547  1.0000
  S   S205      1.0  0.41742  0.55202  0.42511  1.0000
  S   S206      1.0  0.40765  0.55618  0.99527  1.0000
  C   C572      1.0  0.39630  0.59947  0.36245  1.0000
  C   C573      1.0  0.39420  0.61343  0.34027  1.0000
  C   C574      1.0  0.39448  0.60479  0.31385  1.0000
  C   C575      1.0  0.39682  0.58215  0.30953  1.0000
  C   C576      1.0  0.39825  0.56819  0.33171  1.0000
  C   C577      1.0  0.39804  0.57683  0.35813  1.0000
  H   H576      1.0  0.39264  0.63097  0.34352  1.0000
  H   H577      1.0  0.39285  0.61566  0.29688  1.0000
  H   H578      1.0  0.39981  0.55065  0.32844  1.0000
  H   H579      1.0  0.39911  0.56596  0.37506  1.0000
  C   C578      1.0  0.39047  0.59066  0.11178  1.0000
  C   C579      1.0  0.38631  0.57690  0.08979  1.0000
  C   C580      1.0  0.38647  0.58459  0.06323  1.0000
  C   C581      1.0  0.39032  0.60626  0.05856  1.0000
  C   C582      1.0  0.39424  0.62015  0.08055  1.0000
  C   C583      1.0  0.39455  0.61231  0.10713  1.0000
  H   H580      1.0  0.38306  0.56016  0.09329  1.0000
  H   H581      1.0  0.38324  0.57381  0.04645  1.0000
  H   H582      1.0  0.39726  0.63694  0.07701  1.0000
  H   H583      1.0  0.39781  0.62301  0.12398  1.0000
  C   C584      1.0  0.35553  0.67434  0.25725  1.0000
  C   C585      1.0  0.33685  0.68920  0.26116  1.0000
  C   C586      1.0  0.32874  0.69393  0.28728  1.0000
  C   C587      1.0  0.35829  0.66936  0.30582  1.0000
  C   C588      1.0  0.36614  0.66433  0.27966  1.0000
  H   H584      1.0  0.32852  0.69691  0.24391  1.0000
  H   H585      1.0  0.34186  0.67975  0.12671  1.0000
  H   H586      1.0  0.38062  0.65300  0.27694  1.0000
  H   H587      1.0  0.32432  0.68357  0.17151  1.0000
  C   C589      1.0  0.29906  0.79780  0.05178  1.0000
  S   S207      1.0  0.29083  0.94935  0.42033  1.0000
  S   S208      1.0  0.29573  0.74302  0.31803  1.0000
  S   S209      1.0  0.30584  0.86146  0.11206  1.0000
  H   H588      1.0  0.29699  0.99566  0.20128  1.0000
  C   C590      1.0  0.29126  0.77716  0.04998  1.0000
  H   H589      1.0  0.47359  0.56173  0.28287  1.0000
  C   C591      1.0  0.35422  0.51038  0.43128  1.0000
  H   H590      1.0  0.31529  0.66858  0.21259  1.0000
  C   C592      1.0  0.34393  0.60408  0.38448  1.0000
  H   H591      1.0  0.36789  0.53000  0.40124  1.0000
  H   H592      1.0  0.35103  0.73237  0.24571  1.0000
  C   C593      1.0  0.33950  0.68409  0.30975  1.0000
  H   H593      1.0  0.32532  0.64116  0.22013  1.0000
  S   S210      1.0  0.32964  0.68935  0.34286  1.0000
  S   S211      1.0  0.28752  0.71641  0.04505  1.0000
  C   C594      1.0  0.33818  0.98676  0.01337  1.0000
  C   C595      1.0  0.33360  0.97612  0.03738  1.0000
  C   C596      1.0  0.34883  0.97524  0.05883  1.0000
  C   C597      1.0  0.36816  0.98587  0.05652  1.0000
  S   S212      1.0  0.47664  0.54812  0.46145  1.0000
  C   C598      1.0  0.50700  0.60432  0.45725  1.0000
  H   H594      1.0  0.31863  0.96808  0.03900  1.0000
  H   H595      1.0  0.38006  0.98524  0.07299  1.0000
  H   H596      1.0  0.31052  0.72202  0.99569  1.0000
  H   H597      1.0  0.44030  0.60045  0.09088  1.0000
  C   C599      1.0  0.49316  0.60414  0.22226  1.0000
  H   H598      1.0  0.32496  0.95489  0.38232  1.0000
  C   C600      1.0  0.29311  0.72234  0.99076  1.0000
  Fe  Fe102     1.0  0.29689  0.89767  0.10513  1.0000
  H   H599      1.0  0.44411  0.60799  0.36494  1.0000
  C   C601      1.0  0.48803  0.58288  0.22732  1.0000
  C   C602      1.0  0.30045  0.76113  0.24393  1.0000
  S   S213      1.0  0.30551  0.91375  0.06661  1.0000
  C   C603      1.0  0.33984  0.75877  0.27297  1.0000
  H   H600      1.0  0.47119  0.57891  0.22565  1.0000
  H   H601      1.0  0.27453  0.90540  0.17952  1.0000
  H   H602      1.0  0.27134  0.78036  0.28377  1.0000
  Fe  Fe103     1.0  0.44025  0.56001  0.45925  1.0000
  C   C604      1.0  0.31602  0.65149  0.20478  1.0000
  H   H603      1.0  0.32665  0.98691  0.99658  1.0000
  C   C605      1.0  0.44388  0.54625  0.07566  1.0000
  H   H604      1.0  0.34986  0.60992  0.13611  1.0000
  H   H605      1.0  0.35474  0.64268  0.10869  1.0000
  S   S214      1.0  0.30254  0.74073  0.38388  1.0000
  C   C606      1.0  0.28295  0.89976  0.23083  1.0000
  H   H606      1.0  0.31572  0.73460  0.21942  1.0000
  Fe  Fe104     1.0  0.30248  0.71684  0.34873  1.0000
  C   C607      1.0  0.34302  0.58440  0.37003  1.0000
  C   C608      1.0  0.26667  0.89833  0.27492  1.0000
  S   S215      1.0  0.26682  0.71055  0.35330  1.0000
  C   C609      1.0  0.31780  0.74577  0.23632  1.0000
  H   H607      1.0  0.28903  0.98267  0.15465  1.0000
  H   H608      1.0  0.33206  0.61445  0.18070  1.0000
  S   S216      1.0  0.42844  0.59553  0.46118  1.0000
  N   N51       1.0  0.45471  0.58854  0.30154  1.0000
  H   H609      1.0  0.29016  0.83247  0.05393  1.0000
  C   C610      1.0  0.45000  0.58850  0.32852  1.0000
  C   C611      1.0  0.28671  0.82224  0.34592  1.0000
  C   C612      1.0  0.32218  0.77406  0.27991  1.0000
  H   H610      1.0  0.29403  0.78887  0.40841  1.0000
  C   C613      1.0  0.33193  0.97047  0.38126  1.0000
  H   H611      1.0  0.44673  0.57349  0.33829  1.0000
  H   H612      1.0  0.45205  0.53238  0.03624  1.0000
  H   H613      1.0  0.44804  0.57087  0.26555  1.0000
  C   C614      1.0  0.49662  0.56725  0.46143  1.0000
  C   C615      1.0  0.33759  0.74455  0.25104  1.0000
  C   C616      1.0  0.44975  0.60747  0.03908  1.0000
  S   S217      1.0  0.29449  0.95524  0.28614  1.0000
  C   C617      1.0  0.33987  0.58487  0.34205  1.0000
  H   H614      1.0  0.35868  0.96928  0.44026  1.0000
  C   C618      1.0  0.49753  0.60787  0.98100  1.0000
  C   C619      1.0  0.26974  0.71771  0.21018  1.0000
  H   H615      1.0  0.34679  0.51472  0.36312  1.0000
  C   C620      1.0  0.33711  0.60494  0.32900  1.0000
  H   H616      1.0  0.46740  0.60990  0.03587  1.0000
  H   H617      1.0  0.50238  0.62138  0.45298  1.0000
  C   C621      1.0  0.34301  0.96720  0.42906  1.0000
  H   H618      1.0  0.32385  0.78460  0.29751  1.0000
  H   H619      1.0  0.30971  0.84521  0.35817  1.0000
  C   C622      1.0  0.28372  0.95447  0.25282  1.0000
  H   H620      1.0  0.33982  0.56972  0.33046  1.0000
  H   H621      1.0  0.30857  0.81483  0.11668  1.0000
  H   H622      1.0  0.34723  0.60353  0.40607  1.0000
  H   H623      1.0  0.32498  0.91145  0.00973  1.0000
  H   H624      1.0  0.46292  0.60752  0.26803  1.0000
  S   S218      1.0  0.27507  0.74300  0.11377  1.0000
  C   C623      1.0  0.27970  0.78909  0.42220  1.0000
  C   C624      1.0  0.26716  0.95316  0.19927  1.0000
  S   S219      1.0  0.37149  0.51799  0.45826  1.0000
  N   N52       1.0  0.34180  0.62365  0.37139  1.0000
  C   C625      1.0  0.33783  0.62429  0.34415  1.0000
  C   C626      1.0  0.34366  0.64418  0.38639  1.0000
  H   H625      1.0  0.33557  0.63985  0.33397  1.0000
  H   H626      1.0  0.31580  0.94838  0.23467  1.0000
  H   H627      1.0  0.35032  0.64131  0.40718  1.0000
  H   H628      1.0  0.35528  0.65414  0.37603  1.0000
  H   H629      1.0  0.32728  0.65383  0.38748  1.0000
  C   C627      1.0  0.31701  0.99648  0.13748  1.0000
  C   C628      1.0  0.44956  0.54721  0.04849  1.0000
  H   H630      1.0  0.31403  0.70497  0.28994  1.0000
  H   H631      1.0  0.29889  0.64684  0.20264  1.0000
  H   H632      1.0  0.28919  0.69442  0.23493  1.0000
  H   H633      1.0  0.28499  0.76171  0.23273  1.0000
  N   N53       1.0  0.32720  0.64925  0.17868  1.0000
  C   C629      1.0  0.32983  0.66737  0.16377  1.0000
  C   C630      1.0  0.33415  0.62882  0.16891  1.0000
  C   C631      1.0  0.33979  0.66531  0.13841  1.0000
  C   C632      1.0  0.34421  0.62616  0.14366  1.0000
  C   C633      1.0  0.34700  0.64454  0.12833  1.0000
  C   C634      1.0  0.32764  0.66572  0.98509  1.0000
  C   C635      1.0  0.44080  0.56551  0.09104  1.0000
  C   C636      1.0  0.29311  0.84325  0.35104  1.0000
  C   C637      1.0  0.33844  0.92094  0.00448  1.0000
  H   H634      1.0  0.29055  0.72853  0.44494  1.0000
  H   H635      1.0  0.31662  0.67097  0.00157  1.0000
  C   C638      1.0  0.37261  0.99671  0.03264  1.0000
  H   H636      1.0  0.30118  0.94671  0.18758  1.0000
  C   C639      1.0  0.28397  0.81649  0.05202  1.0000
  H   H637      1.0  0.31359  0.99052  0.11725  1.0000
  H   H638      1.0  0.31007  0.94412  0.47347  1.0000
  C   C640      1.0  0.28992  0.94973  0.20425  1.0000
  Fe  Fe105     1.0  0.29223  0.76638  0.35311  1.0000
  H   H639      1.0  0.44700  0.55550  0.29549  1.0000
  C   C641      1.0  0.29126  0.82082  0.11700  1.0000
  H   H640      1.0  0.46025  0.64234  0.29375  1.0000
  H   H641      1.0  0.26817  0.89836  0.29679  1.0000
  C   C642      1.0  0.26724  0.71601  0.25915  1.0000
  H   H642      1.0  0.49268  0.62489  0.98574  1.0000
  S   S220      1.0  0.37789  0.58124  0.45965  1.0000
  H   H643      1.0  0.28009  0.78855  0.11748  1.0000
  H   H644      1.0  0.45599  0.56818  0.01581  1.0000
  H   H645      1.0  0.28293  0.87775  0.35249  1.0000
  H   H646      1.0  0.31665  0.79933  0.05341  1.0000
  C   C643      1.0  0.27670  0.70813  0.23473  1.0000
  C   C644      1.0  0.45211  0.62751  0.33120  1.0000
  C   C645      1.0  0.45747  0.62729  0.30385  1.0000
  C   C646      1.0  0.37200  0.93699  0.01638  1.0000
  H   H647      1.0  0.35435  0.91813  0.04369  1.0000
  C   C647      1.0  0.45605  0.56811  0.28569  1.0000
  H   H648      1.0  0.38462  0.94031  0.03118  1.0000
  H   H649      1.0  0.27580  0.79852  0.25640  1.0000
  H   H650      1.0  0.44190  0.62132  0.05138  1.0000
  H   H651      1.0  0.28480  0.95641  0.01947  1.0000
  H   H652      1.0  0.44092  0.60801  0.01925  1.0000
  C   C648      1.0  0.28513  0.84340  0.11590  1.0000
  C   C649      1.0  0.49096  0.58927  0.45550  1.0000
  H   H653      1.0  0.28494  0.99759  0.45428  1.0000
  H   H654      1.0  0.45055  0.64278  0.34265  1.0000
  C   C650      1.0  0.27937  0.94287  0.45143  1.0000
  C   C651      1.0  0.35638  0.51804  0.40507  1.0000
  C   C652      1.0  0.33901  0.00201  0.35540  1.0000
  S   S221      1.0  0.28154  0.70748  0.17971  1.0000
  C   C653      1.0  0.27923  0.72928  0.46168  1.0000
  N   N54       1.0  0.30276  0.77499  0.26549  1.0000
  C   C654      1.0  0.45889  0.60751  0.28931  1.0000
  C   C655      1.0  0.35783  0.99681  0.01075  1.0000
  C   C656      1.0  0.35496  0.92454  0.02340  1.0000
  C   C657      1.0  0.27897  0.94948  0.00079  1.0000
  C   C658      1.0  0.26725  0.82669  0.41007  1.0000
  C   C659      1.0  0.37194  0.94618  0.99067  1.0000
  C   C660      1.0  0.33030  0.98184  0.35690  1.0000
  H   H655      1.0  0.47425  0.59478  0.44960  1.0000
  H   H656      1.0  0.35798  0.00569  0.42000  1.0000
  H   H657      1.0  0.38475  0.95660  0.98579  1.0000
  C   C661      1.0  0.27786  0.72028  0.01147  1.0000
  H   H658      1.0  0.46403  0.59972  0.97557  1.0000
  H   H659      1.0  0.35498  0.75762  0.28492  1.0000
  H   H660      1.0  0.30267  0.76244  0.04995  1.0000
  H   H661      1.0  0.38788  0.00423  0.03081  1.0000
  C   C662      1.0  0.34705  0.65229  0.99009  1.0000
  C   C663      1.0  0.50480  0.56661  0.23446  1.0000
  H   H662      1.0  0.30115  0.90155  0.26852  1.0000
  H   H663      1.0  0.28411  0.83082  0.41272  1.0000
  C   C664      1.0  0.27795  0.86177  0.34766  1.0000
  H   H664      1.0  0.27405  0.77241  0.42173  1.0000
  N   N55       1.0  0.33468  0.00829  0.14228  1.0000
  H   H665      1.0  0.36411  0.00082  0.12025  1.0000
  Fe  Fe106     1.0  0.27003  0.94596  0.38258  1.0000
  C   C665      1.0  0.28373  0.78984  0.27403  1.0000
  H   H666      1.0  0.35124  0.64681  0.01045  1.0000
  H   H667      1.0  0.28860  0.80240  0.28880  1.0000
  C   C666      1.0  0.28800  0.95478  0.97600  1.0000
  Fe  Fe107     1.0  0.27118  0.93049  0.06877  1.0000
  Fe  Fe108     1.0  0.27514  0.93993  0.12956  1.0000
  H   H668      1.0  0.43610  0.56501  0.11214  1.0000
  Fe  Fe109     1.0  0.27138  0.95099  0.32085  1.0000
  Fe  Fe110     1.0  0.26635  0.73643  0.38627  1.0000
  C   C667      1.0  0.48123  0.59359  0.97523  1.0000
  C   C668      1.0  0.27204  0.99596  0.46884  1.0000
  H   H669      1.0  0.44175  0.53065  0.08477  1.0000
  C   C669      1.0  0.30763  0.99918  0.18474  1.0000
  S   S222      1.0  0.36474  0.00677  0.97891  1.0000
  H   H670      1.0  0.30086  0.96575  0.97566  1.0000
  C   C670      1.0  0.33906  0.93013  0.97885  1.0000
  C   C671      1.0  0.26859  0.77547  0.04853  1.0000
  C   C672      1.0  0.26524  0.81989  0.33662  1.0000
  H   H671      1.0  0.30488  0.72239  0.49174  1.0000
  S   S223      1.0  0.31103  0.73768  0.88879  1.0000
  C   C673      1.0  0.28342  0.93885  0.50021  1.0000
  C   C674      1.0  0.28405  0.70782  0.73184  1.0000
  H   H672      1.0  0.45220  0.58422  0.91882  1.0000
  H   H673      1.0  0.34514  0.65582  0.66417  1.0000
  C   C675      1.0  0.27785  0.99367  0.49619  1.0000
  C   C676      1.0  0.34279  0.58731  0.85192  1.0000
  C   C677      1.0  0.35356  0.72867  0.75069  1.0000
  H   H674      1.0  0.28743  0.98561  0.65512  1.0000
  C   C678      1.0  0.27465  0.81811  0.84178  1.0000
  S   S224      1.0  0.30456  0.91242  0.56713  1.0000
  N   N56       1.0  0.26937  0.79385  0.55142  1.0000
  Fe  Fe111     1.0  0.31536  0.94003  0.59292  1.0000
  H   H675      1.0  0.30324  0.90412  0.76628  1.0000
  S   S225      1.0  0.34546  0.95869  0.58724  1.0000
  H   H676      1.0  0.28225  0.70691  0.77539  1.0000
  S   S226      1.0  0.30212  0.86111  0.61577  1.0000
  S   S227      1.0  0.30997  0.92288  0.63206  1.0000
  H   H677      1.0  0.37635  0.63563  0.97254  1.0000
  Fe  Fe112     1.0  0.27110  0.93105  0.56999  1.0000
  C   C679      1.0  0.45857  0.61514  0.52080  1.0000
  Fe  Fe113     1.0  0.44699  0.61771  0.71666  1.0000
  S   S228      1.0  0.44054  0.58254  0.71274  1.0000
  S   S229      1.0  0.48153  0.62786  0.71500  1.0000
  Fe  Fe114     1.0  0.39831  0.63329  0.72279  1.0000
  S   S230      1.0  0.38809  0.59924  0.71874  1.0000
  S   S231      1.0  0.37057  0.66027  0.72771  1.0000
  Fe  Fe115     1.0  0.41674  0.59047  0.74653  1.0000
  S   S232      1.0  0.41414  0.56736  0.78090  1.0000
  Fe  Fe116     1.0  0.41270  0.59479  0.68512  1.0000
  S   S233      1.0  0.40616  0.57423  0.64804  1.0000
  S   S234      1.0  0.42559  0.62477  0.75286  1.0000
  S   S235      1.0  0.42063  0.62970  0.68660  1.0000
  N   N57       1.0  0.34617  0.59776  0.82831  1.0000
  C   C680      1.0  0.27636  0.71534  0.75729  1.0000
  S   S236      1.0  0.41725  0.55078  0.49152  1.0000
  C   C681      1.0  0.37180  0.99746  0.53272  1.0000
  C   C682      1.0  0.28597  0.72474  0.96369  1.0000
  Fe  Fe117     1.0  0.39367  0.58854  0.92987  1.0000
  S   S237      1.0  0.38615  0.61003  0.89381  1.0000
  Fe  Fe118     1.0  0.40396  0.58607  0.49133  1.0000
  S   S238      1.0  0.39990  0.60866  0.52806  1.0000
  S   S239      1.0  0.40763  0.55336  0.92899  1.0000
  C   C683      1.0  0.32258  0.67249  0.95867  1.0000
  C   C684      1.0  0.39508  0.59820  0.86283  1.0000
  C   C685      1.0  0.39643  0.61152  0.84034  1.0000
  C   C686      1.0  0.40232  0.60223  0.81506  1.0000
  C   C687      1.0  0.40725  0.57960  0.81231  1.0000
  C   C688      1.0  0.40628  0.56634  0.83489  1.0000
  C   C689      1.0  0.40005  0.57560  0.86003  1.0000
  H   H678      1.0  0.39257  0.62901  0.84238  1.0000
  H   H679      1.0  0.40254  0.61257  0.79771  1.0000
  H   H680      1.0  0.40984  0.54879  0.83282  1.0000
  H   H681      1.0  0.39840  0.56511  0.87690  1.0000
  C   C690      1.0  0.40766  0.58372  0.61471  1.0000
  C   C691      1.0  0.40542  0.56896  0.59310  1.0000
  C   C692      1.0  0.40394  0.57629  0.56631  1.0000
  C   C693      1.0  0.40442  0.59850  0.56100  1.0000
  C   C694      1.0  0.40730  0.61320  0.58251  1.0000
  C   C695      1.0  0.40904  0.60583  0.60931  1.0000
  H   H682      1.0  0.40422  0.55186  0.59717  1.0000
  H   H683      1.0  0.40154  0.56485  0.54993  1.0000
  H   H684      1.0  0.40766  0.63042  0.57850  1.0000
  H   H685      1.0  0.41066  0.61734  0.62580  1.0000
  C   C696      1.0  0.36258  0.66764  0.76108  1.0000
  C   C697      1.0  0.34217  0.67976  0.76549  1.0000
  C   C698      1.0  0.33594  0.68698  0.79166  1.0000
  C   C699      1.0  0.37027  0.66945  0.80935  1.0000
  C   C700      1.0  0.37653  0.66235  0.78317  1.0000
  H   H686      1.0  0.33124  0.68374  0.74855  1.0000
  C   C701      1.0  0.28032  0.94609  0.95167  1.0000
  H   H687      1.0  0.39238  0.65326  0.78008  1.0000
  H   H688      1.0  0.33794  0.95970  0.94034  1.0000
  Fe  Fe119     1.0  0.31409  0.71647  0.85116  1.0000
  H   H689      1.0  0.29581  0.69353  0.73033  1.0000
  C   C702      1.0  0.28731  0.72578  0.48821  1.0000
  C   C703      1.0  0.28439  0.90158  0.72919  1.0000
  C   C704      1.0  0.32250  0.99761  0.89312  1.0000
  C   C705      1.0  0.34271  0.62171  0.82745  1.0000
  C   C706      1.0  0.29111  0.95236  0.70552  1.0000
  N   N58       1.0  0.33645  0.66605  0.93786  1.0000
  H   H690      1.0  0.27441  0.78991  0.62964  1.0000
  C   C707      1.0  0.33140  0.67417  0.91057  1.0000
  S   S240      1.0  0.34270  0.69042  0.84677  1.0000
  C   C708      1.0  0.47929  0.55641  0.53045  1.0000
  H   H691      1.0  0.38132  0.66566  0.82627  1.0000
  C   C709      1.0  0.35003  0.68187  0.81366  1.0000
  H   H692      1.0  0.37676  0.98905  0.57462  1.0000
  C   C710      1.0  0.36010  0.99384  0.50881  1.0000
  C   C711      1.0  0.34334  0.97955  0.50914  1.0000
  C   C712      1.0  0.33832  0.96902  0.53312  1.0000
  C   C713      1.0  0.35038  0.97233  0.55687  1.0000
  C   C714      1.0  0.36713  0.98658  0.55651  1.0000
  S   S241      1.0  0.28356  0.72173  0.54312  1.0000
  C   C715      1.0  0.35565  0.65312  0.94264  1.0000
  H   H693      1.0  0.32555  0.95793  0.53308  1.0000
  H   H694      1.0  0.47935  0.55290  0.55238  1.0000
  C   C716      1.0  0.49840  0.61201  0.52147  1.0000
  H   H695      1.0  0.31883  0.98451  0.62374  1.0000
  C   C717      1.0  0.50264  0.60928  0.72808  1.0000
  H   H696      1.0  0.27104  0.80183  0.83581  1.0000
  C   C718      1.0  0.29919  0.95377  0.73226  1.0000
  Fe  Fe120     1.0  0.30092  0.76512  0.86029  1.0000
  H   H697      1.0  0.29496  0.99367  0.50270  1.0000
  C   C719      1.0  0.49796  0.58990  0.74038  1.0000
  H   H698      1.0  0.45918  0.56001  0.80459  1.0000
  N   N59       1.0  0.46026  0.57810  0.84162  1.0000
  H   H699      1.0  0.27042  0.83717  0.90615  1.0000
  H   H700      1.0  0.48103  0.58674  0.74359  1.0000
  H   H701      1.0  0.29194  0.76354  0.76773  1.0000
  H   H702      1.0  0.30306  0.81597  0.62958  1.0000
  C   C720      1.0  0.28456  0.95666  0.75409  1.0000
  H   H703      1.0  0.44197  0.61580  0.88888  1.0000
  H   H704      1.0  0.31369  0.78092  0.77475  1.0000
  C   C721      1.0  0.35758  0.64137  0.66285  1.0000
  C   C722      1.0  0.30769  0.79751  0.56105  1.0000
  H   H705      1.0  0.30406  0.75428  0.70888  1.0000
  H   H706      1.0  0.36535  0.96713  0.94567  1.0000
  H   H707      1.0  0.44379  0.58514  0.52592  1.0000
  H   H708      1.0  0.31682  0.95243  0.73607  1.0000
  H   H709      1.0  0.35953  0.59789  0.65549  1.0000
  C   C723      1.0  0.31988  0.99296  0.64304  1.0000
  C   C724      1.0  0.33232  0.73058  0.70920  1.0000
  C   C725      1.0  0.35015  0.72120  0.72434  1.0000
  S   S242      1.0  0.28538  0.92437  0.84954  1.0000
  C   C726      1.0  0.35215  0.58595  0.80542  1.0000
  H   H710      1.0  0.37437  0.64703  0.66456  1.0000
  C   C727      1.0  0.29885  0.84253  0.86302  1.0000
  H   H711      1.0  0.30250  0.94999  0.68889  1.0000
  S   S243      1.0  0.36073  0.52207  0.96495  1.0000
  H   H712      1.0  0.28711  0.87684  0.86324  1.0000
  Fe  Fe121     1.0  0.27255  0.95144  0.82189  1.0000
  H   H713      1.0  0.35162  0.62823  0.81030  1.0000
  H   H714      1.0  0.46464  0.54986  0.52071  1.0000
  H   H715      1.0  0.33901  0.68970  0.90758  1.0000
  C   C728      1.0  0.31813  0.74740  0.72066  1.0000
  H   H716      1.0  0.32616  0.92729  0.96421  1.0000
  Fe  Fe122     1.0  0.29538  0.89721  0.60613  1.0000
  H   H717      1.0  0.35517  0.59417  0.78676  1.0000
  C   C729      1.0  0.45922  0.59257  0.52464  1.0000
  C   C730      1.0  0.44894  0.60031  0.88037  1.0000
  H   H718      1.0  0.48203  0.57684  0.80825  1.0000
  H   H719      1.0  0.36098  0.70776  0.71596  1.0000
  N   N60       1.0  0.35527  0.62935  0.63729  1.0000
  C   C731      1.0  0.35656  0.60698  0.63696  1.0000
  C   C732      1.0  0.35289  0.64065  0.61365  1.0000
  C   C733      1.0  0.35493  0.59538  0.61256  1.0000
  C   C734      1.0  0.35149  0.62954  0.58885  1.0000
  C   C735      1.0  0.35251  0.60676  0.58837  1.0000
  H   H720      1.0  0.32023  0.69642  0.79481  1.0000
  C   C736      1.0  0.30339  0.00407  0.68577  1.0000
  H   H721      1.0  0.35233  0.65836  0.61384  1.0000
  H   H722      1.0  0.35668  0.57762  0.61236  1.0000
  H   H723      1.0  0.35015  0.63846  0.57004  1.0000
  H   H724      1.0  0.35221  0.59792  0.56919  1.0000
  C   C737      1.0  0.45439  0.58254  0.89716  1.0000
  S   S244      1.0  0.30755  0.74457  0.82287  1.0000
  C   C738      1.0  0.46426  0.57587  0.81249  1.0000
  N   N61       1.0  0.35533  0.94304  0.97253  1.0000
  C   C739      1.0  0.27615  0.71843  0.70831  1.0000
  H   H725      1.0  0.31330  0.67721  0.90694  1.0000
  N   N62       1.0  0.32158  0.75463  0.74653  1.0000
  H   H726      1.0  0.35511  0.63110  0.68067  1.0000
  C   C740      1.0  0.35699  0.00137  0.63128  1.0000
  C   C741      1.0  0.35504  0.95311  0.94586  1.0000
  C   C742      1.0  0.46268  0.56251  0.88597  1.0000
  C   C743      1.0  0.35539  0.56310  0.80598  1.0000
  H   H727      1.0  0.26605  0.98720  0.53592  1.0000
  H   H728      1.0  0.33800  0.66219  0.89489  1.0000
  H   H729      1.0  0.34152  0.75076  0.78229  1.0000
  C   C744      1.0  0.46555  0.56056  0.85797  1.0000
  H   H730      1.0  0.44780  0.61173  0.83957  1.0000
  H   H731      1.0  0.34923  0.62919  0.84618  1.0000
  H   H732      1.0  0.46684  0.54863  0.89904  1.0000
  C   C745      1.0  0.26744  0.80421  0.91890  1.0000
  H   H733      1.0  0.45438  0.58884  0.80093  1.0000
  C   C746      1.0  0.45218  0.59784  0.85249  1.0000
  H   H734      1.0  0.36121  0.94081  0.93041  1.0000
  H   H735      1.0  0.47197  0.54491  0.84939  1.0000
  H   H736      1.0  0.31398  0.84504  0.87387  1.0000
  H   H737      1.0  0.32417  0.79004  0.56557  1.0000
  H   H738      1.0  0.30746  0.68290  0.95494  1.0000
  S   S245      1.0  0.46727  0.55302  0.96180  1.0000
  C   C747      1.0  0.26942  0.89865  0.77379  1.0000
  C   C748      1.0  0.26832  0.95455  0.70044  1.0000
  C   C749      1.0  0.29034  0.78446  0.55623  1.0000
  S   S246      1.0  0.29251  0.95236  0.92095  1.0000
  H   H739      1.0  0.29371  0.76678  0.55668  1.0000
  H   H740      1.0  0.36428  0.98413  0.62947  1.0000
  H   H741      1.0  0.32485  0.62711  0.82525  1.0000
  S   S247      1.0  0.31233  0.79877  0.86652  1.0000
  Fe  Fe123     1.0  0.43049  0.56366  0.96196  1.0000
  C   C750      1.0  0.48731  0.57157  0.96898  1.0000
  H   H742      1.0  0.29838  0.90390  0.71653  1.0000
  H   H743      1.0  0.29783  0.72627  0.94790  1.0000
  S   S248      1.0  0.28528  0.70827  0.67662  1.0000
  C   C751      1.0  0.28612  0.82159  0.62458  1.0000
  H   H744      1.0  0.34338  0.55622  0.87201  1.0000
  Fe  Fe124     1.0  0.27221  0.73757  0.82612  1.0000
  H   H745      1.0  0.36427  0.52727  0.90652  1.0000
  S   S249      1.0  0.36795  0.58433  0.96093  1.0000
  H   H746      1.0  0.28978  0.00423  0.69982  1.0000
  H   H747      1.0  0.29365  0.93873  0.51820  1.0000
  H   H748      1.0  0.44280  0.62492  0.51896  1.0000
  H   H749      1.0  0.49396  0.54744  0.52079  1.0000
  C   C752      1.0  0.29420  0.82121  0.85590  1.0000
  S   S250      1.0  0.29510  0.95830  0.78746  1.0000
  H   H750      1.0  0.33430  0.97647  0.49079  1.0000
  Fe  Fe125     1.0  0.27218  0.94649  0.88335  1.0000
  C   C753      1.0  0.30577  0.77140  0.75865  1.0000
  C   C754      1.0  0.33895  0.74539  0.76160  1.0000
  H   H751      1.0  0.35127  0.00704  0.61094  1.0000
  C   C755      1.0  0.28067  0.84359  0.61792  1.0000
  N   N63       1.0  0.47898  0.58001  0.52630  1.0000
  S   S251      1.0  0.27901  0.70785  0.85183  1.0000
  H   H752      1.0  0.32911  0.72449  0.68895  1.0000
  S   S252      1.0  0.28225  0.95954  0.59364  1.0000
  H   H753      1.0  0.36683  0.64825  0.92621  1.0000
  H   H754      1.0  0.49252  0.60477  0.65960  1.0000
  H   H755      1.0  0.51158  0.55910  0.75681  1.0000
  C   C756      1.0  0.50984  0.56401  0.96856  1.0000
  H   H756      1.0  0.28445  0.80157  0.92597  1.0000
  C   C757      1.0  0.30207  0.99351  0.66072  1.0000
  C   C758      1.0  0.26991  0.80669  0.62431  1.0000
  C   C759      1.0  0.50692  0.59337  0.66354  1.0000
  H   H757      1.0  0.36102  0.55387  0.78806  1.0000
  H   H758      1.0  0.36705  0.72103  0.76286  1.0000
  H   H759      1.0  0.31130  0.97062  0.87013  1.0000
  H   H760      1.0  0.38487  0.00819  0.53277  1.0000
  C   C760      1.0  0.49843  0.58948  0.52524  1.0000
  Fe  Fe126     1.0  0.38324  0.54949  0.96192  1.0000
  H   H761      1.0  0.33839  0.59666  0.87017  1.0000
  H   H762      1.0  0.27145  0.89852  0.79561  1.0000
  H   H763      1.0  0.27486  0.90640  0.67813  1.0000
  H   H764      1.0  0.48798  0.56859  0.67924  1.0000
  S   S253      1.0  0.36647  0.00633  0.47809  1.0000
  C   C761      1.0  0.35209  0.55232  0.82999  1.0000
  C   C762      1.0  0.28365  0.86056  0.85698  1.0000
  C   C763      1.0  0.36117  0.64596  0.96877  1.0000
  C   C764      1.0  0.34570  0.56446  0.85314  1.0000
  Fe  Fe127     1.0  0.27602  0.94036  0.63070  1.0000
  C   C765      1.0  0.47832  0.62486  0.51902  1.0000
  H   H765      1.0  0.27871  0.84730  0.55520  1.0000
  H   H766      1.0  0.47806  0.64227  0.51551  1.0000
  C   C766      1.0  0.50438  0.57308  0.67474  1.0000
  S   S254      1.0  0.41828  0.59904  0.96016  1.0000
  C   C767      1.0  0.27276  0.72632  0.51012  1.0000
  H   H767      1.0  0.31816  0.99123  0.91249  1.0000
  S   S255      1.0  0.27229  0.74619  0.61289  1.0000
  H   H768      1.0  0.35479  0.53461  0.83075  1.0000
  C   C768      1.0  0.34785  0.51012  0.93670  1.0000
  H   H769      1.0  0.31659  0.83065  0.56504  1.0000
  N   N64       1.0  0.33841  0.00285  0.64999  1.0000
  Fe  Fe128     1.0  0.27540  0.73126  0.88736  1.0000
  H   H770      1.0  0.29879  0.78319  0.74327  1.0000
  C   C769      1.0  0.32372  0.99473  0.84442  1.0000
  C   C770      1.0  0.30351  0.82024  0.56045  1.0000
  H   H771      1.0  0.32042  0.98568  0.82598  1.0000
  C   C771      1.0  0.31851  0.98610  0.86930  1.0000
  C   C772      1.0  0.29267  0.94200  0.47483  1.0000
  C   C773      1.0  0.35248  0.51556  0.91015  1.0000
  C   C774      1.0  0.28218  0.82962  0.55492  1.0000
  C   C775      1.0  0.26516  0.81611  0.55063  1.0000
  C   C776      1.0  0.28731  0.90154  0.75730  1.0000
  H   H772      1.0  0.51389  0.61932  0.51952  1.0000
  H   H773      1.0  0.51412  0.57955  0.52647  1.0000
  S   S256      1.0  0.26507  0.76019  0.86150  1.0000
  C   C777      1.0  0.65879  0.10332  0.37626  1.0000
  Fe  Fe129     1.0  0.72829  0.41115  0.07681  1.0000
  C   C778      1.0  0.75575  0.44999  0.97713  1.0000
  S   S257      1.0  0.72042  0.37602  0.07485  1.0000
  N   N65       1.0  0.52934  0.09226  0.26727  1.0000
  H   H774      1.0  0.64484  0.01688  0.36219  1.0000
  Fe  Fe130     1.0  0.74500  0.44898  0.04728  1.0000
  H   H775      1.0  0.76117  0.01341  0.17667  1.0000
  S   S258      1.0  0.72064  0.43066  0.11480  1.0000
  S   S259      1.0  0.71145  0.43679  0.04953  1.0000
  H   H776      1.0  0.73008  0.43047  0.98924  1.0000
  S   S260      1.0  0.64982  0.50092  0.21688  1.0000
  S   S261      1.0  0.73687  0.45436  0.26004  1.0000
  H   H777      1.0  0.56567  0.07763  0.00136  1.0000
  C   C779      1.0  0.66089  0.13550  0.30113  1.0000
  H   H778      1.0  0.71675  0.19274  0.00983  1.0000
  C   C780      1.0  0.56962  0.08113  0.09305  1.0000
  C   C781      1.0  0.76309  0.31306  0.33449  1.0000
  C   C782      1.0  0.73374  0.40125  0.20230  1.0000
  H   H779      1.0  0.76291  0.29715  0.00745  1.0000
  H   H780      1.0  0.69934  0.28052  0.23008  1.0000
  S   S262      1.0  0.63429  0.08550  0.44287  1.0000
  C   C783      1.0  0.75053  0.21970  0.19546  1.0000
  S   S263      1.0  0.73720  0.23432  0.02725  1.0000
  H   H781      1.0  0.68273  0.48926  0.03588  1.0000
  S   S264      1.0  0.74047  0.22393  0.16217  1.0000
  S   S265      1.0  0.76347  0.24924  0.34534  1.0000
  N   N66       1.0  0.75988  0.27180  0.25528  1.0000
  Fe  Fe131     1.0  0.72864  0.26450  0.34415  1.0000
  H   H782      1.0  0.70049  0.38034  0.15466  1.0000
  S   S266      1.0  0.72024  0.30080  0.33660  1.0000
  Fe  Fe132     1.0  0.70969  0.22000  0.35061  1.0000
  S   S267      1.0  0.74356  0.20174  0.35147  1.0000
  S   S268      1.0  0.67836  0.20217  0.35057  1.0000
  Fe  Fe133     1.0  0.75230  0.22910  0.37907  1.0000
  C   C784      1.0  0.75190  0.31586  0.08671  1.0000
  Fe  Fe134     1.0  0.75149  0.22359  0.31759  1.0000
  H   H783      1.0  0.68409  0.01441  0.46948  1.0000
  S   S269      1.0  0.71796  0.24628  0.38029  1.0000
  S   S270      1.0  0.71707  0.23990  0.31427  1.0000
  Fe  Fe135     1.0  0.62012  0.12065  0.44571  1.0000
  S   S271      1.0  0.74823  0.42338  0.32715  1.0000
  S   S272      1.0  0.64646  0.14476  0.44646  1.0000
  C   C785      1.0  0.71456  0.39444  0.19045  1.0000
  H   H784      1.0  0.54213  0.03793  0.25734  1.0000
  S   S273      1.0  0.53488  0.03873  0.18669  1.0000
  C   C786      1.0  0.73517  0.38396  0.15021  1.0000
  S   S274      1.0  0.62919  0.05137  0.00813  1.0000
  Fe  Fe136     1.0  0.60578  0.08154  0.41475  1.0000
  S   S275      1.0  0.61157  0.05936  0.37839  1.0000
  H   H785      1.0  0.57296  0.11275  0.11117  1.0000
  S   S276      1.0  0.59255  0.11690  0.41565  1.0000
  Fe  Fe137     1.0  0.60933  0.06567  0.16649  1.0000
  S   S277      1.0  0.62000  0.08416  0.13034  1.0000
  Fe  Fe138     1.0  0.59985  0.07293  0.22689  1.0000
  S   S278      1.0  0.58802  0.03971  0.23150  1.0000
  S   S279      1.0  0.59751  0.09786  0.26102  1.0000
  Fe  Fe139     1.0  0.57017  0.04680  0.19220  1.0000
  Fe  Fe140     1.0  0.75325  0.44367  0.10814  1.0000
  S   S280      1.0  0.63045  0.06106  0.20405  1.0000
  S   S281      1.0  0.57992  0.08085  0.18930  1.0000
  C   C787      1.0  0.69679  0.16696  0.99743  1.0000
  Fe  Fe141     1.0  0.75883  0.23242  0.06459  1.0000
  H   H786      1.0  0.64302  0.01012  0.31211  1.0000
  S   S282      1.0  0.60370  0.11000  0.98226  1.0000
  N   N67       1.0  0.68633  0.49789  0.99458  1.0000
  H   H787      1.0  0.53389  0.08573  0.19673  1.0000
  H   H788      1.0  0.73124  0.49632  0.14573  1.0000
  C   C788      1.0  0.67596  0.49899  0.01904  1.0000
  H   H789      1.0  0.65392  0.01698  0.16692  1.0000
  H   H790      1.0  0.72019  0.45607  0.44476  1.0000
  C   C789      1.0  0.67234  0.47754  0.17668  1.0000
  H   H791      1.0  0.68813  0.16689  0.01647  1.0000
  N   N68       1.0  0.68462  0.48350  0.28880  1.0000
  C   C790      1.0  0.60603  0.07013  0.34605  1.0000
  C   C791      1.0  0.59856  0.09215  0.34245  1.0000
  C   C792      1.0  0.59576  0.10054  0.31625  1.0000
  C   C793      1.0  0.60032  0.08692  0.29361  1.0000
  C   C794      1.0  0.60749  0.06488  0.29723  1.0000
  C   C795      1.0  0.61029  0.05651  0.32339  1.0000
  H   H792      1.0  0.59529  0.10282  0.35976  1.0000
  H   H793      1.0  0.59035  0.11768  0.31355  1.0000
  H   H794      1.0  0.61136  0.05435  0.27992  1.0000
  H   H795      1.0  0.61608  0.03948  0.32603  1.0000
  C   C796      1.0  0.62624  0.06045  0.04207  1.0000
  C   C797      1.0  0.62659  0.08255  0.04896  1.0000
  C   C798      1.0  0.62500  0.08939  0.07615  1.0000
  C   C799      1.0  0.62243  0.07434  0.09664  1.0000
  C   C800      1.0  0.62159  0.05224  0.08976  1.0000
  C   C801      1.0  0.62384  0.04528  0.06257  1.0000
  H   H796      1.0  0.62869  0.09434  0.03344  1.0000
  H   H797      1.0  0.62569  0.10651  0.08133  1.0000
  H   H798      1.0  0.61941  0.04052  0.10535  1.0000
  H   H799      1.0  0.62355  0.02813  0.05737  1.0000
  C   C802      1.0  0.66922  0.18728  0.37807  1.0000
  C   C803      1.0  0.64888  0.17815  0.37585  1.0000
  C   C804      1.0  0.64170  0.16495  0.39645  1.0000
  C   C805      1.0  0.65464  0.16112  0.41977  1.0000
  C   C806      1.0  0.67479  0.17055  0.42218  1.0000
  C   C807      1.0  0.68213  0.18345  0.40140  1.0000
  H   H800      1.0  0.63872  0.18112  0.35793  1.0000
  H   H801      1.0  0.62606  0.15801  0.39444  1.0000
  H   H802      1.0  0.68483  0.16777  0.44021  1.0000
  H   H803      1.0  0.69777  0.19041  0.40338  1.0000
  H   H804      1.0  0.54961  0.11395  0.24890  1.0000
  C   C808      1.0  0.71637  0.27848  0.23707  1.0000
  H   H805      1.0  0.67861  0.04115  0.09353  1.0000
  C   C809      1.0  0.75074  0.22805  0.99665  1.0000
  Fe  Fe142     1.0  0.70717  0.45751  0.08736  1.0000
  C   C810      1.0  0.74523  0.23855  0.45084  1.0000
  H   H806      1.0  0.57990  0.05464  0.01798  1.0000
  Fe  Fe143     1.0  0.61715  0.02822  0.20602  1.0000
  C   C811      1.0  0.75334  0.39943  0.18757  1.0000
  H   H807      1.0  0.73347  0.23960  0.43431  1.0000
  H   H808      1.0  0.62510  0.02967  0.42235  1.0000
  C   C812      1.0  0.73531  0.21972  0.21658  1.0000
  C   C813      1.0  0.74257  0.21782  0.24360  1.0000
  C   C814      1.0  0.72146  0.28154  0.26437  1.0000
  H   H809      1.0  0.64614  0.03323  0.46503  1.0000
  C   C815      1.0  0.53216  0.05318  0.26158  1.0000
  H   H810      1.0  0.71778  0.22158  0.21203  1.0000
  H   H811      1.0  0.73067  0.21811  0.25968  1.0000
  Fe  Fe144     1.0  0.75974  0.44500  0.29509  1.0000
  S   S283      1.0  0.74981  0.25562  0.09887  1.0000
  H   H812      1.0  0.68866  0.02074  0.98576  1.0000
  H   H813      1.0  0.68059  0.46832  0.19287  1.0000
  H   H814      1.0  0.68985  0.47657  0.24721  1.0000
  C   C816      1.0  0.66514  0.03141  0.13103  1.0000
  C   C817      1.0  0.73351  0.34207  0.33121  1.0000
  C   C818      1.0  0.74044  0.31975  0.33415  1.0000
  C   C819      1.0  0.56735  0.10224  0.04382  1.0000
  H   H815      1.0  0.64376  0.08987  0.32848  1.0000
  H   H816      1.0  0.74338  0.37471  0.32677  1.0000
  H   H817      1.0  0.71604  0.34742  0.33093  1.0000
  C   C820      1.0  0.67471  0.01287  0.45085  1.0000
  H   H818      1.0  0.71222  0.48245  0.34875  1.0000
  C   C821      1.0  0.74145  0.35471  0.08042  1.0000
  C   C822      1.0  0.73577  0.33318  0.08136  1.0000
  H   H819      1.0  0.74183  0.18463  0.44805  1.0000
  C   C823      1.0  0.71275  0.18149  0.99370  1.0000
  C   C824      1.0  0.74900  0.35760  0.32886  1.0000
  N   N69       1.0  0.75378  0.39112  0.16173  1.0000
  H   H820      1.0  0.71877  0.32986  0.07808  1.0000
  H   H821      1.0  0.52808  0.12733  0.26945  1.0000
  Fe  Fe145     1.0  0.61852  0.07561  0.97536  1.0000
  C   C825      1.0  0.56796  0.06944  0.06873  1.0000
  C   C826      1.0  0.66390  0.01421  0.14897  1.0000
  S   S284      1.0  0.58418  0.07165  0.44773  1.0000
  H   H822      1.0  0.57114  0.07266  0.11218  1.0000
  H   H823      1.0  0.66361  0.46979  0.25975  1.0000
  C   C827      1.0  0.73451  0.45619  0.20497  1.0000
  C   C828      1.0  0.74320  0.45459  0.17879  1.0000
  H   H824      1.0  0.71685  0.45862  0.20767  1.0000
  H   H825      1.0  0.73222  0.45600  0.16148  1.0000
  H   H826      1.0  0.56799  0.05179  0.06928  1.0000
  C   C829      1.0  0.70716  0.48408  0.99131  1.0000
  C   C830      1.0  0.73762  0.45719  0.44843  1.0000
  C   C831      1.0  0.75193  0.45759  0.42637  1.0000
  S   S285      1.0  0.73945  0.47188  0.08307  1.0000
  C   C832      1.0  0.51744  0.08089  0.19886  1.0000
  C   C833      1.0  0.76349  0.35882  0.08470  1.0000
  C   C834      1.0  0.54012  0.11262  0.26780  1.0000
  S   S286      1.0  0.53623  0.11694  0.45829  1.0000
  H   H827      1.0  0.69193  0.46063  0.14548  1.0000
  H   H828      1.0  0.67389  0.09199  0.37939  1.0000
  Fe  Fe146     1.0  0.57281  0.10720  0.45135  1.0000
  C   C835      1.0  0.74853  0.45395  0.22764  1.0000
  C   C836      1.0  0.66810  0.48496  0.12868  1.0000
  S   S287      1.0  0.59822  0.03191  0.16658  1.0000
  S   S288      1.0  0.67696  0.48121  0.09488  1.0000
  C   C837      1.0  0.65342  0.02339  0.44837  1.0000
  H   H829      1.0  0.67828  0.15931  0.32319  1.0000
  H   H830      1.0  0.74718  0.29944  0.08731  1.0000
  N   N70       1.0  0.65978  0.11425  0.35023  1.0000
  S   S289      1.0  0.74090  0.45773  0.39301  1.0000
  C   C838      1.0  0.67066  0.14404  0.32414  1.0000
  H   H831      1.0  0.70716  0.45960  0.30800  1.0000
  H   H832      1.0  0.70852  0.28625  0.27885  1.0000
  H   H833      1.0  0.55968  0.07265  0.26110  1.0000
  C   C839      1.0  0.74344  0.27815  0.27314  1.0000
  H   H834      1.0  0.64358  0.10899  0.28490  1.0000
  C   C840      1.0  0.67782  0.02799  0.10778  1.0000
  C   C841      1.0  0.64473  0.50574  0.16162  1.0000
  C   C842      1.0  0.65077  0.50095  0.13468  1.0000
  H   H835      1.0  0.56635  0.11068  0.02465  1.0000
  H   H836      1.0  0.74724  0.28038  0.29440  1.0000
  C   C843      1.0  0.67871  0.47310  0.14978  1.0000
  C   C844      1.0  0.69837  0.47580  0.30935  1.0000
  H   H837      1.0  0.51835  0.07896  0.40913  1.0000
  C   C845      1.0  0.75286  0.18297  0.46546  1.0000
  C   C846      1.0  0.70142  0.48873  0.33240  1.0000
  H   H838      1.0  0.62029  0.01208  0.38026  1.0000
  H   H839      1.0  0.65620  0.04728  0.13509  1.0000
  H   H840      1.0  0.73554  0.37725  0.12982  1.0000
  H   H841      1.0  0.65730  0.11547  0.39327  1.0000
  C   C847      1.0  0.75513  0.26942  0.22835  1.0000
  H   H842      1.0  0.68847  0.45272  0.26745  1.0000
  C   C848      1.0  0.51826  0.09777  0.46903  1.0000
  H   H843      1.0  0.62956  0.01891  0.26562  1.0000
  H   H844      1.0  0.54994  0.05911  0.01883  1.0000
  H   H845      1.0  0.73340  0.40827  0.22261  1.0000
  C   C849      1.0  0.73331  0.27254  0.21886  1.0000
  H   H846      1.0  0.66089  0.14408  0.28211  1.0000
  H   H847      1.0  0.64406  0.09391  0.37720  1.0000
  C   C850      1.0  0.64155  0.02124  0.42421  1.0000
  C   C851      1.0  0.57063  0.10371  0.09248  1.0000
  C   C852      1.0  0.54196  0.07286  0.26338  1.0000
  C   C853      1.0  0.65107  0.10525  0.32750  1.0000
  C   C854      1.0  0.68148  0.46992  0.26468  1.0000
  C   C855      1.0  0.56552  0.06721  0.01946  1.0000
  H   H848      1.0  0.72958  0.26962  0.19763  1.0000
  H   H849      1.0  0.57031  0.13192  0.06705  1.0000
  C   C856      1.0  0.65569  0.49420  0.18274  1.0000
  H   H850      1.0  0.70771  0.46930  0.00404  1.0000
  N   N71       1.0  0.56696  0.08001  0.04456  1.0000
  H   H851      1.0  0.67773  0.13977  0.36643  1.0000
  C   C857      1.0  0.67016  0.13299  0.34861  1.0000
  C   C858      1.0  0.56937  0.11440  0.06774  1.0000
  C   C859      1.0  0.65118  0.11587  0.30270  1.0000
  C   C860      1.0  0.67407  0.50417  0.29020  1.0000
  S   S290      1.0  0.76216  0.42200  0.07212  1.0000
  H   H852      1.0  0.72134  0.49336  0.99724  1.0000
  H   H853      1.0  0.69918  0.39605  0.20149  1.0000
  Fe  Fe147     1.0  0.76242  0.22827  0.12621  1.0000
  Fe  Fe148     1.0  0.76214  0.44672  0.35692  1.0000
  S   S291      1.0  0.75999  0.46163  0.00953  1.0000
  H   H854      1.0  0.71790  0.50577  0.19214  1.0000
  C   C861      1.0  0.71526  0.38564  0.16426  1.0000
  H   H855      1.0  0.55190  0.11268  0.28516  1.0000
  C   C862      1.0  0.71785  0.50909  0.14885  1.0000
  H   H856      1.0  0.54324  0.07074  0.47306  1.0000
  C   C863      1.0  0.69190  0.15269  0.97645  1.0000
  H   H857      1.0  0.67923  0.14158  0.97895  1.0000
  Fe  Fe149     1.0  0.57654  0.10082  0.95433  1.0000
  Fe  Fe150     1.0  0.74157  0.42061  0.58429  1.0000
  H   H858      1.0  0.70949  0.47816  0.97008  1.0000
  S   S292      1.0  0.73088  0.38636  0.58340  1.0000
  C   C864      1.0  0.75411  0.36652  0.52246  1.0000
  C   C865      1.0  0.74785  0.43416  0.92424  1.0000
  C   C866      1.0  0.75294  0.24167  0.49904  1.0000
  H   H859      1.0  0.54784  0.09855  0.52227  1.0000
  S   S293      1.0  0.73535  0.44235  0.62073  1.0000
  S   S294      1.0  0.72625  0.44553  0.55503  1.0000
  H   H860      1.0  0.73462  0.45743  0.49199  1.0000
  H   H861      1.0  0.52194  0.12735  0.77020  1.0000
  S   S295      1.0  0.74604  0.44557  0.75801  1.0000
  H   H862      1.0  0.55118  0.05262  0.53948  1.0000
  C   C867      1.0  0.69412  0.50094  0.67921  1.0000
  S   S296      1.0  0.75742  0.26314  0.60439  1.0000
  C   C868      1.0  0.53568  0.07324  0.76018  1.0000
  H   H863      1.0  0.72664  0.24799  0.97332  1.0000
  C   C869      1.0  0.65965  0.01805  0.94577  1.0000
  C   C870      1.0  0.76170  0.21828  0.69544  1.0000
  C   C871      1.0  0.75510  0.20952  0.74239  1.0000
  C   C872      1.0  0.74863  0.30650  0.51548  1.0000
  C   C873      1.0  0.52587  0.07601  0.47428  1.0000
  S   S297      1.0  0.74266  0.24564  0.53198  1.0000
  S   S298      1.0  0.54080  0.11011  0.96583  1.0000
  H   H864      1.0  0.74994  0.35922  0.81917  1.0000
  C   C874      1.0  0.66026  0.06608  0.83974  1.0000
  H   H865      1.0  0.65165  0.02439  0.96417  1.0000
  Fe  Fe151     1.0  0.73615  0.25029  0.84368  1.0000
  C   C875      1.0  0.66663  0.02893  0.60883  1.0000
  S   S299      1.0  0.72697  0.28685  0.83883  1.0000
  Fe  Fe152     1.0  0.72071  0.20389  0.84567  1.0000
  N   N72       1.0  0.68242  0.00988  0.65676  1.0000
  S   S300      1.0  0.69491  0.17917  0.84405  1.0000
  C   C876      1.0  0.75934  0.18696  0.51264  1.0000
  C   C877      1.0  0.56047  0.08433  0.60595  1.0000
  H   H866      1.0  0.54360  0.11481  0.74924  1.0000
  C   C878      1.0  0.75055  0.26946  0.76524  1.0000
  S   S301      1.0  0.72527  0.22958  0.87764  1.0000
  S   S302      1.0  0.72778  0.22610  0.81132  1.0000
  Fe  Fe153     1.0  0.62164  0.11803  0.94443  1.0000
  H   H867      1.0  0.54484  0.03553  0.58347  1.0000
  S   S303      1.0  0.64038  0.14841  0.94366  1.0000
  N   N73       1.0  0.75887  0.27448  0.71063  1.0000
  S   S304      1.0  0.59456  0.03731  0.66272  1.0000
  C   C879      1.0  0.64785  0.01977  0.92130  1.0000
  H   H868      1.0  0.73563  0.19294  0.96598  1.0000
  S   S305      1.0  0.61798  0.05493  0.50989  1.0000
  Fe  Fe154     1.0  0.60895  0.07792  0.91463  1.0000
  S   S306      1.0  0.61262  0.05647  0.87734  1.0000
  Fe  Fe155     1.0  0.76065  0.21529  0.87812  1.0000
  S   S307      1.0  0.59281  0.11230  0.91714  1.0000
  Fe  Fe156     1.0  0.60459  0.07137  0.66604  1.0000
  S   S308      1.0  0.61548  0.09073  0.63100  1.0000
  Fe  Fe157     1.0  0.59400  0.07494  0.72653  1.0000
  S   S309      1.0  0.58308  0.04110  0.72760  1.0000
  S   S310      1.0  0.59179  0.09790  0.76269  1.0000
  Fe  Fe158     1.0  0.56579  0.05013  0.68843  1.0000
  H   H869      1.0  0.65835  0.12712  0.80063  1.0000
  S   S311      1.0  0.62516  0.06536  0.70375  1.0000
  S   S312      1.0  0.57463  0.08463  0.68906  1.0000
  H   H870      1.0  0.53075  0.09539  0.90286  1.0000
  C   C880      1.0  0.75186  0.32613  0.89052  1.0000
  H   H871      1.0  0.64656  0.08677  0.76771  1.0000
  H   H872      1.0  0.74704  0.30954  0.89005  1.0000
  C   C881      1.0  0.72335  0.18168  0.96880  1.0000
  H   H873      1.0  0.52916  0.08828  0.69382  1.0000
  H   H874      1.0  0.54566  0.11206  0.78539  1.0000
  S   S313      1.0  0.75626  0.48077  0.58543  1.0000
  H   H875      1.0  0.71001  0.32432  0.87862  1.0000
  H   H876      1.0  0.72275  0.41699  0.94272  1.0000
  H   H877      1.0  0.74942  0.27349  0.66869  1.0000
  C   C882      1.0  0.66735  0.02789  0.65756  1.0000
  H   H878      1.0  0.65501  0.49640  0.56023  1.0000
  C   C883      1.0  0.60432  0.06807  0.84612  1.0000
  C   C884      1.0  0.59905  0.09060  0.84351  1.0000
  C   C885      1.0  0.59438  0.09954  0.81788  1.0000
  C   C886      1.0  0.59528  0.08603  0.79475  1.0000
  C   C887      1.0  0.59995  0.06346  0.79745  1.0000
  C   C888      1.0  0.60431  0.05452  0.82310  1.0000
  H   H879      1.0  0.59914  0.10124  0.86107  1.0000
  H   H880      1.0  0.59072  0.11703  0.81593  1.0000
  H   H881      1.0  0.60077  0.05289  0.77980  1.0000
  H   H882      1.0  0.60808  0.03707  0.82511  1.0000
  C   C889      1.0  0.61729  0.06497  0.54348  1.0000
  C   C890      1.0  0.62038  0.08679  0.54945  1.0000
  C   C891      1.0  0.62001  0.09436  0.57640  1.0000
  C   C892      1.0  0.61619  0.08030  0.59755  1.0000
  C   C893      1.0  0.61282  0.05851  0.59157  1.0000
  C   C894      1.0  0.61360  0.05083  0.56463  1.0000
  H   H883      1.0  0.62350  0.09776  0.53335  1.0000
  H   H884      1.0  0.62270  0.11122  0.58088  1.0000
  H   H885      1.0  0.60974  0.04754  0.60764  1.0000
  H   H886      1.0  0.61117  0.03392  0.56012  1.0000
  C   C895      1.0  0.67952  0.17110  0.87183  1.0000
  C   C896      1.0  0.66944  0.15142  0.86997  1.0000
  C   C897      1.0  0.65708  0.14441  0.89158  1.0000
  C   C898      1.0  0.65445  0.15719  0.91517  1.0000
  C   C899      1.0  0.66423  0.17704  0.91685  1.0000
  C   C900      1.0  0.67686  0.18388  0.89541  1.0000
  H   H887      1.0  0.67139  0.14149  0.85176  1.0000
  H   H888      1.0  0.64964  0.12913  0.89008  1.0000
  H   H889      1.0  0.66218  0.18711  0.93496  1.0000
  H   H890      1.0  0.68422  0.19922  0.89696  1.0000
  S   S314      1.0  0.74136  0.42489  0.89131  1.0000
  C   C901      1.0  0.72904  0.16946  0.92201  1.0000
  H   H891      1.0  0.71266  0.18116  0.49897  1.0000
  C   C902      1.0  0.75998  0.44888  0.72751  1.0000
  C   C903      1.0  0.73963  0.43550  0.97255  1.0000
  C   C904      1.0  0.75122  0.23090  0.94766  1.0000
  C   C905      1.0  0.55353  0.06335  0.60693  1.0000
  H   H892      1.0  0.51607  0.03601  0.95966  1.0000
  N   N74       1.0  0.73616  0.34362  0.88989  1.0000
  H   H893      1.0  0.74400  0.23778  0.92931  1.0000
  H   H894      1.0  0.72249  0.15851  0.90636  1.0000
  C   C906      1.0  0.74743  0.21272  0.71573  1.0000
  H   H895      1.0  0.72622  0.18642  0.91433  1.0000
  H   H896      1.0  0.53566  0.03866  0.75138  1.0000
  C   C907      1.0  0.74224  0.36452  0.89052  1.0000
  C   C908      1.0  0.73531  0.26371  0.74572  1.0000
  H   H897      1.0  0.73028  0.21098  0.71085  1.0000
  H   H898      1.0  0.74396  0.20505  0.75778  1.0000
  H   H899      1.0  0.71574  0.48539  0.64882  1.0000
  H   H900      1.0  0.65298  0.09959  0.85214  1.0000
  C   C909      1.0  0.55378  0.06162  0.55812  1.0000
  H   H901      1.0  0.74734  0.26742  0.78655  1.0000
  C   C910      1.0  0.56391  0.09358  0.58085  1.0000
  H   H902      1.0  0.66044  0.03643  0.59014  1.0000
  C   C911      1.0  0.73997  0.32701  0.82607  1.0000
  C   C912      1.0  0.74685  0.30483  0.83020  1.0000
  H   H903      1.0  0.75341  0.19179  0.53266  1.0000
  Fe  Fe159     1.0  0.76428  0.42570  0.85547  1.0000
  H   H904      1.0  0.72036  0.25686  0.75179  1.0000
  H   H905      1.0  0.72256  0.33258  0.82666  1.0000
  C   C913      1.0  0.68544  0.49964  0.63118  1.0000
  Fe  Fe160     1.0  0.61295  0.03201  0.70219  1.0000
  C   C914      1.0  0.75017  0.36443  0.59275  1.0000
  C   C915      1.0  0.74406  0.34301  0.59083  1.0000
  S   S315      1.0  0.75349  0.40549  0.82025  1.0000
  H   H906      1.0  0.72815  0.26114  0.70324  1.0000
  C   C916      1.0  0.52157  0.09038  0.96862  1.0000
  H   H907      1.0  0.55091  0.05596  0.62631  1.0000
  H   H908      1.0  0.72748  0.34022  0.58435  1.0000
  C   C917      1.0  0.76432  0.44822  0.92891  1.0000
  H   H909      1.0  0.72088  0.24925  0.48065  1.0000
  C   C918      1.0  0.66160  0.05130  0.81800  1.0000
  C   C919      1.0  0.52747  0.06816  0.96339  1.0000
  H   H910      1.0  0.65752  0.04739  0.77493  1.0000
  H   H911      1.0  0.63149  0.12127  0.78759  1.0000
  H   H912      1.0  0.69858  0.14252  0.93546  1.0000
  C   C920      1.0  0.74841  0.45969  0.70623  1.0000
  C   C921      1.0  0.76369  0.27680  0.68190  1.0000
  H   H913      1.0  0.73149  0.46629  0.70890  1.0000
  H   H914      1.0  0.74966  0.47066  0.66520  1.0000
  Fe  Fe161     1.0  0.76312  0.21260  0.81618  1.0000
  Fe  Fe162     1.0  0.72315  0.46821  0.59133  1.0000
  C   C922      1.0  0.73554  0.42784  0.94616  1.0000
  H   H915      1.0  0.64753  0.05214  0.63444  1.0000
  H   H916      1.0  0.70662  0.33914  0.91048  1.0000
  C   C923      1.0  0.74414  0.32925  0.51431  1.0000
  C   C924      1.0  0.65784  0.01145  0.89758  1.0000
  N   N75       1.0  0.68781  0.44917  0.71220  1.0000
  C   C925      1.0  0.70364  0.43264  0.70567  1.0000
  C   C926      1.0  0.67287  0.45724  0.69312  1.0000
  C   C927      1.0  0.70492  0.42392  0.67937  1.0000
  C   C928      1.0  0.67371  0.44895  0.66660  1.0000
  C   C929      1.0  0.68984  0.43217  0.65974  1.0000
  C   C930      1.0  0.68790  0.45954  0.73910  1.0000
  H   H917      1.0  0.71581  0.42653  0.72062  1.0000
  H   H918      1.0  0.66067  0.47072  0.69813  1.0000
  H   H919      1.0  0.71786  0.41122  0.67407  1.0000
  H   H920      1.0  0.66237  0.45600  0.65129  1.0000
  H   H921      1.0  0.69095  0.42586  0.63912  1.0000
  H   H922      1.0  0.67084  0.46494  0.74576  1.0000
  H   H923      1.0  0.69574  0.44821  0.75450  1.0000
  H   H924      1.0  0.69733  0.47418  0.73857  1.0000
  N   N76       1.0  0.64932  0.09547  0.80946  1.0000
  S   S316      1.0  0.63875  0.08407  0.93987  1.0000
  C   C931      1.0  0.65424  0.08827  0.83506  1.0000
  S   S317      1.0  0.59044  0.06602  0.94946  1.0000
  H   H925      1.0  0.63389  0.01136  0.80671  1.0000
  C   C932      1.0  0.69694  0.50297  0.49948  1.0000
  C   C933      1.0  0.64332  0.11883  0.80488  1.0000
  H   H926      1.0  0.71302  0.49382  0.49744  1.0000
  C   C934      1.0  0.65934  0.03775  0.63366  1.0000
  H   H927      1.0  0.72987  0.37849  0.89063  1.0000
  N   N77       1.0  0.71815  0.16800  0.94813  1.0000
  H   H928      1.0  0.64878  0.01248  0.87847  1.0000
  H   H929      1.0  0.71942  0.20756  0.51173  1.0000
  C   C935      1.0  0.70003  0.49451  0.65267  1.0000
  H   H930      1.0  0.69239  0.49264  0.54012  1.0000
  H   H931      1.0  0.51690  0.04395  0.48420  1.0000
  H   H932      1.0  0.56970  0.10974  0.58036  1.0000
  H   H933      1.0  0.66597  0.03400  0.82143  1.0000
  H   H934      1.0  0.55333  0.07316  0.75744  1.0000
  N   N78       1.0  0.75890  0.34277  0.52466  1.0000
  N   N79       1.0  0.56075  0.08213  0.55737  1.0000
  S   S318      1.0  0.75078  0.22334  0.66271  1.0000
  C   C936      1.0  0.74574  0.45802  0.47521  1.0000
  H   H935      1.0  0.51991  0.05755  0.89699  1.0000
  H   H936      1.0  0.63100  0.02742  0.92071  1.0000
  H   H937      1.0  0.66324  0.06031  0.86019  1.0000
  C   C937      1.0  0.73977  0.26629  0.71832  1.0000
  C   C938      1.0  0.65687  0.05883  0.79191  1.0000
  H   H938      1.0  0.63498  0.12686  0.82281  1.0000
  H   H939      1.0  0.73639  0.37149  0.52665  1.0000
  C   C939      1.0  0.74150  0.23680  0.97263  1.0000
  H   H940      1.0  0.75447  0.30873  0.59498  1.0000
  C   C940      1.0  0.68186  0.01042  0.60819  1.0000
  C   C941      1.0  0.75550  0.34219  0.82187  1.0000
  C   C942      1.0  0.56399  0.09210  0.53116  1.0000
  C   C943      1.0  0.53400  0.11271  0.76787  1.0000
  S   S319      1.0  0.59900  0.11471  0.48178  1.0000
  C   C944      1.0  0.65074  0.08111  0.78797  1.0000
  C   C945      1.0  0.55014  0.05189  0.58289  1.0000
  H   H941      1.0  0.57472  0.10574  0.53308  1.0000
  H   H942      1.0  0.72874  0.33602  0.50518  1.0000
  S   S320      1.0  0.69185  0.49065  0.59786  1.0000
  H   H943      1.0  0.56370  0.09321  0.62451  1.0000
  H   H944      1.0  0.74714  0.16521  0.92425  1.0000
  H   H945      1.0  0.57233  0.07992  0.51687  1.0000
  S   S321      1.0  0.53099  0.04203  0.67932  1.0000
  S   S322      1.0  0.75579  0.18860  0.84785  1.0000
  C   C946      1.0  0.75935  0.32510  0.59694  1.0000
  C   C947      1.0  0.70291  0.15333  0.95183  1.0000
  C   C948      1.0  0.71270  0.33990  0.88949  1.0000
  H   H946      1.0  0.66134  0.03466  0.67675  1.0000
  H   H947      1.0  0.70271  0.35316  0.87860  1.0000
  H   H948      1.0  0.54425  0.06255  0.95821  1.0000
  C   C949      1.0  0.75869  0.46223  0.68144  1.0000
  H   H949      1.0  0.73687  0.29568  0.50755  1.0000
  H   H950      1.0  0.70538  0.49666  0.69576  1.0000
  N   N80       1.0  0.52317  0.09240  0.76590  1.0000
  N   N81       1.0  0.74528  0.18858  0.49079  1.0000
  H   H951      1.0  0.71437  0.20386  0.47648  1.0000
  C   C950      1.0  0.68518  0.50236  0.52355  1.0000
  H   H952      1.0  0.75810  0.37183  0.50189  1.0000
  Fe  Fe163     1.0  0.61125  0.07938  0.47637  1.0000
  H   H953      1.0  0.76371  0.37544  0.53758  1.0000
  H   H954      1.0  0.62161  0.01986  0.75974  1.0000
  C   C951      1.0  0.73811  0.24395  0.47716  1.0000
  C   C952      1.0  0.52582  0.05367  0.75706  1.0000
  Fe  Fe164     1.0  0.76050  0.45587  0.55147  1.0000
  C   C953      1.0  0.72177  0.19554  0.49470  1.0000
  H   H955      1.0  0.56777  0.62616  0.13672  1.0000
  S   S323      1.0  0.71689  0.74679  0.06300  1.0000
  H   H956      1.0  0.57185  0.60507  0.18022  1.0000
  S   S324      1.0  0.71321  0.74957  0.12911  1.0000
  H   H957      1.0  0.56170  0.57872  0.18089  1.0000
  Fe  Fe165     1.0  0.70787  0.72478  0.09605  1.0000
  S   S325      1.0  0.67895  0.70401  0.09754  1.0000
  Fe  Fe166     1.0  0.72597  0.76989  0.09617  1.0000
  S   S326      1.0  0.74184  0.70730  0.10013  1.0000
  C   C954      1.0  0.71951  0.89501  0.46574  1.0000
  H   H958      1.0  0.64820  0.51352  0.04217  1.0000
  H   H959      1.0  0.75667  0.87852  0.29502  1.0000
  S   S327      1.0  0.59221  0.57532  0.98525  1.0000
  C   C955      1.0  0.57017  0.58836  0.08585  1.0000
  Fe  Fe167     1.0  0.61494  0.58510  0.01841  1.0000
  S   S328      1.0  0.62296  0.56100  0.05183  1.0000
  Fe  Fe168     1.0  0.62364  0.58045  0.45478  1.0000
  S   S329      1.0  0.63089  0.55502  0.42176  1.0000
  S   S330      1.0  0.59810  0.61900  0.02372  1.0000
  S   S331      1.0  0.60955  0.61498  0.44807  1.0000
  C   C956      1.0  0.76330  0.78468  0.03693  1.0000
  C   C957      1.0  0.58001  0.58583  0.32463  1.0000
  Fe  Fe169     1.0  0.62431  0.57076  0.26478  1.0000
  S   S332      1.0  0.60993  0.53853  0.26431  1.0000
  S   S333      1.0  0.63746  0.58792  0.30149  1.0000
  Fe  Fe170     1.0  0.61545  0.57744  0.20431  1.0000
  S   S334      1.0  0.59985  0.54595  0.19919  1.0000
  S   S335      1.0  0.61913  0.60079  0.17034  1.0000
  Fe  Fe171     1.0  0.58311  0.55556  0.23839  1.0000
  Fe  Fe172     1.0  0.62814  0.53216  0.22517  1.0000
  C   C958      1.0  0.57027  0.60872  0.09874  1.0000
  S   S336      1.0  0.59630  0.58830  0.24142  1.0000
  S   S337      1.0  0.64489  0.56311  0.22781  1.0000
  H   H960      1.0  0.70615  0.89997  0.14820  1.0000
  C   C959      1.0  0.56722  0.61037  0.12672  1.0000
  C   C960      1.0  0.75424  0.86132  0.29724  1.0000
  S   S338      1.0  0.67394  0.97631  0.33328  1.0000
  H   H961      1.0  0.57315  0.58674  0.06428  1.0000
  H   H962      1.0  0.66729  0.53465  0.09796  1.0000
  H   H963      1.0  0.70146  0.94303  0.98215  1.0000
  S   S339      1.0  0.54739  0.55058  0.24560  1.0000
  Fe  Fe173     1.0  0.74644  0.93140  0.31681  1.0000
  C   C961      1.0  0.66543  0.97447  0.25152  1.0000
  C   C962      1.0  0.67330  0.96964  0.27782  1.0000
  C   C963      1.0  0.66517  0.98241  0.29982  1.0000
  S   S340      1.0  0.76393  0.95498  0.41291  1.0000
  C   C964      1.0  0.76229  0.72584  0.25037  1.0000
  N   N82       1.0  0.74987  0.78248  0.01244  1.0000
  N   N83       1.0  0.74813  0.81741  0.30428  1.0000
  H   H964      1.0  0.73982  0.79539  0.37991  1.0000
  C   C965      1.0  0.56977  0.57836  0.40863  1.0000
  C   C966      1.0  0.67308  0.97640  0.16292  1.0000
  S   S341      1.0  0.71695  0.80624  0.09028  1.0000
  C   C967      1.0  0.73045  0.84710  0.08380  1.0000
  Fe  Fe174     1.0  0.74365  0.94474  0.37696  1.0000
  H   H965      1.0  0.75294  0.90511  0.01062  1.0000
  S   S342      1.0  0.54784  0.61739  0.46954  1.0000
  H   H966      1.0  0.70995  0.69040  0.14003  1.0000
  H   H967      1.0  0.68091  0.96048  0.15523  1.0000
  H   H968      1.0  0.72584  0.94655  0.26560  1.0000
  C   C968      1.0  0.76001  0.93376  0.20055  1.0000
  C   C969      1.0  0.56727  0.56539  0.36165  1.0000
  H   H969      1.0  0.68537  0.95583  0.28110  1.0000
  C   C970      1.0  0.62357  0.57211  0.08468  1.0000
  C   C971      1.0  0.62196  0.55835  0.10670  1.0000
  C   C972      1.0  0.62131  0.56691  0.13315  1.0000
  C   C973      1.0  0.62206  0.58935  0.13767  1.0000
  C   C974      1.0  0.62429  0.60305  0.11568  1.0000
  C   C975      1.0  0.62506  0.59445  0.08919  1.0000
  H   H970      1.0  0.62062  0.54110  0.10322  1.0000
  H   H971      1.0  0.61982  0.55620  0.14993  1.0000
  H   H972      1.0  0.62507  0.62042  0.11908  1.0000
  H   H973      1.0  0.62662  0.60515  0.07232  1.0000
  C   C976      1.0  0.63257  0.56425  0.38838  1.0000
  C   C977      1.0  0.62840  0.55020  0.36662  1.0000
  C   C978      1.0  0.62968  0.55725  0.33981  1.0000
  C   C979      1.0  0.63573  0.57819  0.33466  1.0000
  C   C980      1.0  0.64014  0.59209  0.35644  1.0000
  C   C981      1.0  0.63827  0.58528  0.38321  1.0000
  H   H974      1.0  0.62400  0.53390  0.37053  1.0000
  H   H975      1.0  0.62611  0.54646  0.32318  1.0000
  H   H976      1.0  0.64488  0.60830  0.35258  1.0000
  H   H977      1.0  0.64175  0.59614  0.39984  1.0000
  C   C982      1.0  0.66974  0.69051  0.06812  1.0000
  C   C983      1.0  0.67668  0.69566  0.04234  1.0000
  C   C984      1.0  0.66833  0.68530  0.01930  1.0000
  C   C985      1.0  0.65329  0.66942  0.02179  1.0000
  C   C986      1.0  0.64667  0.66396  0.04761  1.0000
  C   C987      1.0  0.65474  0.67460  0.07064  1.0000
  H   H978      1.0  0.68813  0.70792  0.04011  1.0000
  H   H979      1.0  0.67343  0.68981  0.99947  1.0000
  H   H980      1.0  0.63507  0.65183  0.04982  1.0000
  H   H981      1.0  0.64925  0.67053  0.09048  1.0000
  H   H982      1.0  0.75446  0.67835  0.20718  1.0000
  H   H983      1.0  0.67882  0.98908  0.38851  1.0000
  H   H984      1.0  0.72817  0.72079  0.01738  1.0000
  C   C988      1.0  0.73392  0.85038  0.36991  1.0000
  H   H985      1.0  0.66854  0.69173  0.15363  1.0000
  Fe  Fe175     1.0  0.75019  0.73067  0.32468  1.0000
  C   C989      1.0  0.71674  0.95025  0.97882  1.0000
  C   C990      1.0  0.71192  0.86472  0.14815  1.0000
  C   C991      1.0  0.72074  0.68930  0.21700  1.0000
  C   C992      1.0  0.71286  0.68997  0.16170  1.0000
  S   S343      1.0  0.76097  0.75533  0.10013  1.0000
  C   C993      1.0  0.69984  0.69628  0.20646  1.0000
  C   C994      1.0  0.56703  0.56997  0.10100  1.0000
  C   C995      1.0  0.72629  0.94864  0.22209  1.0000
  C   C996      1.0  0.66575  0.70155  0.44142  1.0000
  C   C997      1.0  0.72948  0.95634  0.00107  1.0000
  N   N84       1.0  0.69612  0.69642  0.17911  1.0000
  C   C998      1.0  0.72249  0.89141  0.43805  1.0000
  H   H986      1.0  0.73043  0.79209  0.32017  1.0000
  C   C999      1.0  0.76016  0.77748  0.98841  1.0000
  C   C1000     1.0  0.52008  0.60034  0.98056  1.0000
  S   S344      1.0  0.72017  0.95239  0.03404  1.0000
  C   C1001     1.0  0.74028  0.88900  0.15645  1.0000
  C   C1002     1.0  0.56389  0.57223  0.12893  1.0000
  S   S345      1.0  0.73961  0.75325  0.35921  1.0000
  Fe  Fe176     1.0  0.74788  0.73348  0.13088  1.0000
  C   C1003     1.0  0.67895  0.54575  0.10686  1.0000
  H   H987      1.0  0.71041  0.74811  0.23522  1.0000
  N   N85       1.0  0.69019  0.53551  0.13048  1.0000
  C   C1004     1.0  0.74962  0.85061  0.15727  1.0000
  H   H988      1.0  0.71909  0.86724  0.30297  1.0000
  S   S346      1.0  0.70909  0.93542  0.37990  1.0000
  C   C1005     1.0  0.73035  0.83283  0.30487  1.0000
  C   C1006     1.0  0.73703  0.82530  0.09038  1.0000
  H   H989      1.0  0.76184  0.83667  0.15931  1.0000
  H   H990      1.0  0.54284  0.60239  0.17384  1.0000
  H   H991      1.0  0.71996  0.95227  0.43479  1.0000
  C   C1007     1.0  0.71039  0.51442  0.17489  1.0000
  H   H992      1.0  0.72531  0.74422  0.18867  1.0000
  Fe  Fe177     1.0  0.70358  0.95174  0.33957  1.0000
  C   C1008     1.0  0.73571  0.73924  0.20576  1.0000
  S   S347      1.0  0.72650  0.71588  0.42087  1.0000
  H   H993      1.0  0.56618  0.55502  0.31960  1.0000
  H   H994      1.0  0.66119  0.68452  0.44345  1.0000
  C   C1009     1.0  0.75736  0.73006  0.20158  1.0000
  C   C1010     1.0  0.73400  0.68313  0.17153  1.0000
  H   H995      1.0  0.67544  0.71951  0.15675  1.0000
  C   C1011     1.0  0.74487  0.79421  0.30725  1.0000
  Fe  Fe178     1.0  0.75126  0.73084  0.06915  1.0000
  H   H996      1.0  0.74748  0.67894  0.15765  1.0000
  Fe  Fe179     1.0  0.74825  0.94733  0.13018  1.0000
  H   H997      1.0  0.67146  0.96428  0.23469  1.0000
  H   H998      1.0  0.72385  0.68987  0.23866  1.0000
  C   C1012     1.0  0.72731  0.78579  0.01351  1.0000
  S   S348      1.0  0.64292  0.65718  0.99212  1.0000
  S   S349      1.0  0.64057  0.59466  0.98989  1.0000
  H   H999      1.0  0.66847  0.53404  0.31389  1.0000
  C   C1013     1.0  0.73791  0.68277  0.19936  1.0000
  C   C1014     1.0  0.75906  0.81945  0.09776  1.0000
  S   S350      1.0  0.75078  0.97393  0.10025  1.0000
  C   C1015     1.0  0.74561  0.86303  0.08509  1.0000
  S   S351      1.0  0.73882  0.92338  0.09871  1.0000
  H   H1000     1.0  0.66172  0.70724  0.18397  1.0000
  H   H1001     1.0  0.58807  0.61091  0.38503  1.0000
  H   H1002     1.0  0.74028  0.87968  0.07986  1.0000
  C   C1016     1.0  0.73862  0.94425  0.19856  1.0000
  C   C1017     1.0  0.68801  0.99081  0.12156  1.0000
  C   C1018     1.0  0.74442  0.81144  0.37548  1.0000
  C   C1019     1.0  0.73155  0.95311  0.45140  1.0000
  H   H1003     1.0  0.58324  0.58746  0.30326  1.0000
  H   H1004     1.0  0.65541  0.97437  0.16661  1.0000
  C   C1020     1.0  0.58261  0.59892  0.37072  1.0000
  C   C1021     1.0  0.68948  0.00760  0.10304  1.0000
  H   H1005     1.0  0.63167  0.51839  0.16601  1.0000
  H   H1006     1.0  0.68680  0.70193  0.22034  1.0000
  C   C1022     1.0  0.53205  0.59260  0.23101  1.0000
  H   H1007     1.0  0.75833  0.74523  0.43926  1.0000
  Fe  Fe180     1.0  0.57701  0.60988  0.98816  1.0000
  C   C1023     1.0  0.73820  0.72177  0.99970  1.0000
  H   H1008     1.0  0.70982  0.95693  0.22077  1.0000
  H   H1009     1.0  0.70055  0.99242  0.43077  1.0000
  H   H1010     1.0  0.71265  0.51485  0.10649  1.0000
  H   H1011     1.0  0.72010  0.69701  0.47265  1.0000
  S   S352      1.0  0.71286  0.87214  0.36787  1.0000
  H   H1012     1.0  0.57325  0.62300  0.08719  1.0000
  Fe  Fe181     1.0  0.72145  0.90559  0.35572  1.0000
  H   H1013     1.0  0.75942  0.78523  0.31723  1.0000
  S   S353      1.0  0.71217  0.92075  0.31563  1.0000
  H   H1014     1.0  0.69160  0.73153  0.45940  1.0000
  H   H1015     1.0  0.56789  0.59438  0.41959  1.0000
  N   N86       1.0  0.56407  0.59226  0.14142  1.0000
  Fe  Fe182     1.0  0.74524  0.94864  0.06827  1.0000
  S   S354      1.0  0.72727  0.95302  0.16721  1.0000
  C   C1024     1.0  0.58608  0.60163  0.34311  1.0000
  H   H1016     1.0  0.56160  0.55782  0.14059  1.0000
  S   S355      1.0  0.75636  0.91395  0.35510  1.0000
  S   S356      1.0  0.72874  0.73580  0.28700  1.0000
  C   C1025     1.0  0.72730  0.74140  0.23214  1.0000
  C   C1026     1.0  0.67435  0.70412  0.16802  1.0000
  H   H1017     1.0  0.76077  0.86948  0.36111  1.0000
  S   S357      1.0  0.73749  0.96341  0.33835  1.0000
  H   H1018     1.0  0.55455  0.57026  0.41250  1.0000
  C   C1027     1.0  0.57057  0.56755  0.33388  1.0000
  H   H1019     1.0  0.74223  0.78645  0.28717  1.0000
  H   H1020     1.0  0.71118  0.82679  0.37921  1.0000
  C   C1028     1.0  0.75836  0.90677  0.98998  1.0000
  C   C1029     1.0  0.75400  0.73560  0.45613  1.0000
  N   N87       1.0  0.57295  0.58116  0.37960  1.0000
  Fe  Fe183     1.0  0.62227  0.62817  0.99274  1.0000
  C   C1030     1.0  0.73828  0.72055  0.45280  1.0000
  C   C1031     1.0  0.71819  0.88593  0.15078  1.0000
  C   C1032     1.0  0.74318  0.89343  0.42687  1.0000
  H   H1021     1.0  0.59429  0.61541  0.33611  1.0000
  H   H1022     1.0  0.71347  0.85177  0.07798  1.0000
  H   H1023     1.0  0.58420  0.56830  0.41733  1.0000
  H   H1024     1.0  0.69103  0.54917  0.09120  1.0000
  C   C1033     1.0  0.73314  0.85499  0.30149  1.0000
  C   C1034     1.0  0.74048  0.73451  0.25450  1.0000
  C   C1035     1.0  0.55988  0.59470  0.17048  1.0000
  C   C1036     1.0  0.52686  0.57138  0.23625  1.0000
  C   C1037     1.0  0.73534  0.94276  0.24751  1.0000
  H   H1025     1.0  0.66950  0.56158  0.11228  1.0000
  H   H1026     1.0  0.74532  0.89061  0.40536  1.0000
  H   H1027     1.0  0.76337  0.98397  0.17258  1.0000
  H   H1028     1.0  0.54893  0.59655  0.23266  1.0000
  H   H1029     1.0  0.56030  0.55095  0.36877  1.0000
  C   C1038     1.0  0.68267  0.54078  0.15594  1.0000
  H   H1030     1.0  0.69495  0.86203  0.14315  1.0000
  C   C1039     1.0  0.52879  0.59755  0.46513  1.0000
  C   C1040     1.0  0.72822  0.82934  0.37538  1.0000
  C   C1041     1.0  0.70738  0.51974  0.12674  1.0000
  H   H1031     1.0  0.56754  0.55400  0.09121  1.0000
  C   C1042     1.0  0.75607  0.85349  0.36542  1.0000
  C   C1043     1.0  0.69268  0.53036  0.17851  1.0000
  C   C1044     1.0  0.65847  0.52431  0.97656  1.0000
  H   H1032     1.0  0.70885  0.88725  0.42517  1.0000
  H   H1033     1.0  0.75298  0.78634  0.05530  1.0000
  C   C1045     1.0  0.74912  0.96576  0.99667  1.0000
  H   H1034     1.0  0.71912  0.79000  0.03252  1.0000
  H   H1035     1.0  0.66847  0.55266  0.15889  1.0000
  Fe  Fe184     1.0  0.74774  0.72468  0.38623  1.0000
  H   H1036     1.0  0.68115  0.98017  0.18252  1.0000
  H   H1037     1.0  0.71393  0.82813  0.30868  1.0000
  C   C1046     1.0  0.75387  0.95478  0.44623  1.0000
  C   C1047     1.0  0.64762  0.52527  0.00128  1.0000
  H   H1038     1.0  0.69727  0.97507  0.11788  1.0000
  H   H1039     1.0  0.63944  0.98941  0.37062  1.0000
  C   C1048     1.0  0.72766  0.84691  0.15162  1.0000
  H   H1040     1.0  0.68286  0.70018  0.43340  1.0000
  N   N88       1.0  0.67502  0.99417  0.14393  1.0000
  C   C1049     1.0  0.63813  0.00669  0.37790  1.0000
  C   C1050     1.0  0.64966  0.99228  0.24698  1.0000
  H   H1041     1.0  0.63246  0.53589  0.00384  1.0000
  H   H1042     1.0  0.51931  0.62539  0.22039  1.0000
  S   S358      1.0  0.53989  0.61903  0.98800  1.0000
  C   C1051     1.0  0.75677  0.93240  0.24946  1.0000
  H   H1043     1.0  0.65450  0.71036  0.42658  1.0000
  H   H1044     1.0  0.66015  0.53740  0.46472  1.0000
  H   H1045     1.0  0.72304  0.83033  0.14905  1.0000
  C   C1052     1.0  0.51858  0.56034  0.46846  1.0000
  C   C1053     1.0  0.64937  0.00019  0.29525  1.0000
  N   N89       1.0  0.76036  0.89914  0.44273  1.0000
  H   H1046     1.0  0.69957  0.00475  0.08515  1.0000
  H   H1047     1.0  0.75895  0.97068  0.01370  1.0000
  H   H1048     1.0  0.69656  0.78546  0.99126  1.0000
  C   C1054     1.0  0.67154  0.99863  0.40536  1.0000
  N   N90       1.0  0.65056  0.00873  0.40324  1.0000
  H   H1049     1.0  0.68620  0.53404  0.19858  1.0000
  S   S359      1.0  0.75460  0.70122  0.35143  1.0000
  C   C1055     1.0  0.65643  0.51265  0.02274  1.0000
  C   C1056     1.0  0.68391  0.00048  0.42919  1.0000
  C   C1057     1.0  0.51523  0.60894  0.22411  1.0000
  C   C1058     1.0  0.71444  0.78344  0.99018  1.0000
  H   H1050     1.0  0.76180  0.97736  0.22042  1.0000
  S   S360      1.0  0.64006  0.99775  0.21370  1.0000
  H   H1051     1.0  0.74502  0.90553  0.15828  1.0000
  H   H1052     1.0  0.69672  0.51601  0.45925  1.0000
  C   C1059     1.0  0.64174  0.00521  0.26892  1.0000
  C   C1060     1.0  0.76113  0.72160  0.00234  1.0000
  H   H1053     1.0  0.66344  0.51034  0.27368  1.0000
  C   C1061     1.0  0.75776  0.90211  0.47001  1.0000
  N   N91       1.0  0.66451  0.71310  0.46760  1.0000
  H   H1054     1.0  0.76435  0.80278  0.10313  1.0000
  C   C1062     1.0  0.53457  0.57543  0.47044  1.0000
  H   H1055     1.0  0.69266  0.51994  0.35193  1.0000
  H   H1056     1.0  0.68785  0.99145  0.98303  1.0000
  N   N92       1.0  0.75572  0.87146  0.15915  1.0000
  C   C1063     1.0  0.67683  0.51761  0.31287  1.0000
  C   C1064     1.0  0.69049  0.50974  0.33415  1.0000
  C   C1065     1.0  0.52617  0.57831  0.97429  1.0000
  H   H1057     1.0  0.64220  0.50984  0.11845  1.0000
  H   H1058     1.0  0.52314  0.54331  0.47293  1.0000
  C   C1066     1.0  0.67928  0.72791  0.47392  1.0000
  H   H1059     1.0  0.65908  0.63754  0.67162  1.0000
  S   S361      1.0  0.71503  0.74591  0.56436  1.0000
  C   C1067     1.0  0.64259  0.00328  0.78993  1.0000
  S   S362      1.0  0.71115  0.74428  0.63054  1.0000
  S   S363      1.0  0.59962  0.62231  0.95732  1.0000
  Fe  Fe185     1.0  0.70722  0.72126  0.59500  1.0000
  S   S364      1.0  0.67718  0.70196  0.59137  1.0000
  Fe  Fe186     1.0  0.72239  0.76745  0.59991  1.0000
  S   S365      1.0  0.74189  0.70499  0.59800  1.0000
  H   H1060     1.0  0.74938  0.89878  0.77259  1.0000
  Fe  Fe187     1.0  0.73710  0.95340  0.87755  1.0000
  H   H1061     1.0  0.69890  0.69348  0.94015  1.0000
  H   H1062     1.0  0.72384  0.82612  0.54153  1.0000
  S   S366      1.0  0.75305  0.96675  0.91505  1.0000
  Fe  Fe188     1.0  0.61849  0.58508  0.51621  1.0000
  S   S367      1.0  0.62525  0.56503  0.55364  1.0000
  Fe  Fe189     1.0  0.75258  0.94516  0.56933  1.0000
  S   S368      1.0  0.62674  0.56720  0.92032  1.0000
  S   S369      1.0  0.60337  0.61980  0.51407  1.0000
  Fe  Fe190     1.0  0.74536  0.94308  0.81769  1.0000
  H   H1063     1.0  0.67689  0.59159  0.56940  1.0000
  S   S370      1.0  0.71149  0.87954  0.86073  1.0000
  Fe  Fe191     1.0  0.63203  0.58557  0.76586  1.0000
  S   S371      1.0  0.62207  0.55137  0.76658  1.0000
  S   S372      1.0  0.63846  0.60580  0.80347  1.0000
  Fe  Fe192     1.0  0.62211  0.58933  0.70473  1.0000
  S   S373      1.0  0.61065  0.55573  0.70160  1.0000
  S   S374      1.0  0.62056  0.61166  0.66881  1.0000
  Fe  Fe193     1.0  0.59341  0.56454  0.74065  1.0000
  Fe  Fe194     1.0  0.64062  0.54634  0.72735  1.0000
  C   C1068     1.0  0.72805  0.90283  0.73754  1.0000
  S   S375      1.0  0.60249  0.59891  0.74177  1.0000
  S   S376      1.0  0.65298  0.57974  0.72864  1.0000
  N   N93       1.0  0.66487  0.51380  0.52617  1.0000
  H   H1064     1.0  0.67072  0.60062  0.65523  1.0000
  H   H1065     1.0  0.68446  0.00883  0.70011  1.0000
  S   S377      1.0  0.66955  0.98340  0.82864  1.0000
  C   C1069     1.0  0.67610  0.60224  0.58715  1.0000
  S   S378      1.0  0.72795  0.72779  0.91924  1.0000
  H   H1066     1.0  0.57419  0.60037  0.68042  1.0000
  C   C1070     1.0  0.64736  0.71957  0.51085  1.0000
  H   H1067     1.0  0.71508  0.77580  0.94742  1.0000
  C   C1071     1.0  0.66439  0.98163  0.74657  1.0000
  C   C1072     1.0  0.67169  0.97721  0.77318  1.0000
  C   C1073     1.0  0.66078  0.98805  0.79495  1.0000
  H   H1068     1.0  0.71926  0.77049  0.73396  1.0000
  S   S379      1.0  0.64650  0.58923  0.48834  1.0000
  H   H1069     1.0  0.67259  0.97292  0.72984  1.0000
  H   H1070     1.0  0.55848  0.55508  0.68288  1.0000
  C   C1074     1.0  0.72578  0.84494  0.59663  1.0000
  C   C1075     1.0  0.73690  0.95504  0.74841  1.0000
  H   H1071     1.0  0.75507  0.76981  0.71074  1.0000
  H   H1072     1.0  0.68050  0.66332  0.96011  1.0000
  C   C1076     1.0  0.69393  0.68248  0.89917  1.0000
  C   C1077     1.0  0.66731  0.52745  0.48115  1.0000
  H   H1073     1.0  0.66787  0.63779  0.88146  1.0000
  C   C1078     1.0  0.53730  0.57803  0.74324  1.0000
  C   C1079     1.0  0.66511  0.51168  0.63634  1.0000
  C   C1080     1.0  0.74347  0.96266  0.94790  1.0000
  C   C1081     1.0  0.75385  0.77456  0.73197  1.0000
  C   C1082     1.0  0.72702  0.90195  0.70927  1.0000
  N   N94       1.0  0.67370  0.64849  0.92198  1.0000
  C   C1083     1.0  0.72676  0.83622  0.86319  1.0000
  C   C1084     1.0  0.62314  0.57834  0.58539  1.0000
  C   C1085     1.0  0.62685  0.56587  0.60874  1.0000
  C   C1086     1.0  0.62601  0.57597  0.63438  1.0000
  C   C1087     1.0  0.62116  0.59861  0.63686  1.0000
  C   C1088     1.0  0.61741  0.61113  0.61352  1.0000
  C   C1089     1.0  0.61843  0.60102  0.58781  1.0000
  H   H1074     1.0  0.63065  0.54836  0.60698  1.0000
  H   H1075     1.0  0.62966  0.56625  0.65211  1.0000
  H   H1076     1.0  0.61391  0.62870  0.61528  1.0000
  H   H1077     1.0  0.61581  0.61083  0.56995  1.0000
  C   C1090     1.0  0.63043  0.57841  0.88819  1.0000
  C   C1091     1.0  0.62829  0.60100  0.88409  1.0000
  C   C1092     1.0  0.63090  0.60922  0.85803  1.0000
  C   C1093     1.0  0.63515  0.59493  0.83585  1.0000
  C   C1094     1.0  0.63698  0.57237  0.83993  1.0000
  C   C1095     1.0  0.63489  0.56417  0.86605  1.0000
  H   H1078     1.0  0.62448  0.61209  0.90091  1.0000
  H   H1079     1.0  0.62934  0.62670  0.85494  1.0000
  H   H1080     1.0  0.64053  0.56123  0.82308  1.0000
  H   H1081     1.0  0.63657  0.54668  0.86905  1.0000
  C   C1096     1.0  0.67168  0.68659  0.56196  1.0000
  C   C1097     1.0  0.68626  0.68450  0.54023  1.0000
  C   C1098     1.0  0.68086  0.67271  0.51680  1.0000
  C   C1099     1.0  0.66103  0.66269  0.51509  1.0000
  C   C1100     1.0  0.64677  0.66429  0.53712  1.0000
  C   C1101     1.0  0.65201  0.67632  0.56035  1.0000
  H   H1082     1.0  0.70148  0.69230  0.54128  1.0000
  H   H1083     1.0  0.69192  0.67166  0.49977  1.0000
  H   H1084     1.0  0.63133  0.65689  0.53592  1.0000
  H   H1085     1.0  0.64062  0.67789  0.57706  1.0000
  C   C1102     1.0  0.74190  0.71190  0.50057  1.0000
  S   S380      1.0  0.65332  0.65057  0.48417  1.0000
  H   H1086     1.0  0.73739  0.70253  0.51763  1.0000
  C   C1103     1.0  0.57964  0.56603  0.82417  1.0000
  C   C1104     1.0  0.57432  0.60315  0.80611  1.0000
  C   C1105     1.0  0.73546  0.72161  0.70512  1.0000
  H   H1087     1.0  0.68763  0.00335  0.58901  1.0000
  H   H1088     1.0  0.57743  0.58874  0.89735  1.0000
  Fe  Fe195     1.0  0.69964  0.95963  0.83606  1.0000
  N   N95       1.0  0.57607  0.58809  0.82887  1.0000
  C   C1106     1.0  0.57534  0.59629  0.85476  1.0000
  C   C1107     1.0  0.58211  0.55151  0.84574  1.0000
  C   C1108     1.0  0.57750  0.58223  0.87680  1.0000
  C   C1109     1.0  0.58100  0.55971  0.87221  1.0000
  H   H1089     1.0  0.71139  0.90659  0.69913  1.0000
  H   H1090     1.0  0.72412  0.72161  0.68809  1.0000
  S   S381      1.0  0.73010  0.95694  0.66693  1.0000
  Fe  Fe196     1.0  0.71937  0.91373  0.85088  1.0000
  H   H1091     1.0  0.64319  0.52677  0.66672  1.0000
  H   H1092     1.0  0.58363  0.54875  0.88920  1.0000
  H   H1093     1.0  0.67425  0.57596  0.61518  1.0000
  H   H1094     1.0  0.67772  0.63180  0.56459  1.0000
  N   N96       1.0  0.75245  0.90207  0.94217  1.0000
  H   H1095     1.0  0.70957  0.79231  0.80304  1.0000
  H   H1096     1.0  0.71035  0.72383  0.97225  1.0000
  C   C1110     1.0  0.73916  0.95302  0.50001  1.0000
  H   H1097     1.0  0.73720  0.87694  0.59267  1.0000
  S   S382      1.0  0.76022  0.97125  0.59959  1.0000
  H   H1098     1.0  0.59078  0.60880  0.80207  1.0000
  H   H1099     1.0  0.72677  0.90847  0.91320  1.0000
  C   C1111     1.0  0.74208  0.72101  0.75387  1.0000
  H   H1100     1.0  0.58535  0.53407  0.84193  1.0000
  H   H1101     1.0  0.69157  0.74901  0.50479  1.0000
  H   H1102     1.0  0.70927  0.76378  0.79372  1.0000
  C   C1112     1.0  0.76297  0.85377  0.60793  1.0000
  C   C1113     1.0  0.64824  0.70938  0.48533  1.0000
  H   H1103     1.0  0.65962  0.52465  0.56661  1.0000
  H   H1104     1.0  0.74933  0.88944  0.90192  1.0000
  H   H1105     1.0  0.64021  0.53609  0.50785  1.0000
  S   S383      1.0  0.74090  0.92338  0.60118  1.0000
  S   S384      1.0  0.73138  0.72081  0.78679  1.0000
  Fe  Fe197     1.0  0.61631  0.58818  0.95689  1.0000
  C   C1114     1.0  0.72383  0.95317  0.95228  1.0000
  N   N97       1.0  0.54639  0.58546  0.66525  1.0000
  C   C1115     1.0  0.64646  0.99721  0.74157  1.0000
  H   H1106     1.0  0.72622  0.95770  0.76567  1.0000
  N   N98       1.0  0.67205  0.62966  0.63244  1.0000
  C   C1116     1.0  0.73729  0.90020  0.48192  1.0000
  C   C1117     1.0  0.65918  0.51812  0.66290  1.0000
  H   H1107     1.0  0.68561  0.96531  0.77684  1.0000
  H   H1108     1.0  0.66328  0.74089  0.53829  1.0000
  H   H1109     1.0  0.73275  0.90829  0.65709  1.0000
  H   H1110     1.0  0.57348  0.61380  0.85850  1.0000
  C   C1118     1.0  0.74153  0.86027  0.59878  1.0000
  H   H1111     1.0  0.63503  0.51774  0.54902  1.0000
  C   C1119     1.0  0.72816  0.95789  0.72217  1.0000
  S   S385      1.0  0.55863  0.55737  0.75033  1.0000
  H   H1112     1.0  0.68736  0.99496  0.88030  1.0000
  C   C1120     1.0  0.69266  0.00612  0.97254  1.0000
  H   H1113     1.0  0.68611  0.66777  0.86080  1.0000
  C   C1121     1.0  0.69084  0.00023  0.92336  1.0000
  C   C1122     1.0  0.67488  0.64983  0.89445  1.0000
  H   H1114     1.0  0.71345  0.90822  0.74914  1.0000
  H   H1115     1.0  0.73736  0.87875  0.65878  1.0000
  C   C1123     1.0  0.68512  0.66677  0.88263  1.0000
  H   H1116     1.0  0.53002  0.61554  0.65133  1.0000
  N   N99       1.0  0.75526  0.80742  0.54207  1.0000
  C   C1124     1.0  0.76343  0.82095  0.84989  1.0000
  C   C1125     1.0  0.72481  0.77820  0.96561  1.0000
  Fe  Fe198     1.0  0.74650  0.72980  0.63120  1.0000
  C   C1126     1.0  0.75594  0.96914  0.97015  1.0000
  H   H1117     1.0  0.65370  0.51560  0.61983  1.0000
  N   N100      1.0  0.73204  0.78060  0.77205  1.0000
  C   C1127     1.0  0.74781  0.77547  0.96461  1.0000
  H   H1118     1.0  0.68593  0.98283  0.68291  1.0000
  H   H1119     1.0  0.51472  0.54699  0.96382  1.0000
  C   C1128     1.0  0.73895  0.89487  0.91958  1.0000
  C   C1129     1.0  0.67632  0.62479  0.58443  1.0000
  H   H1120     1.0  0.71068  0.83394  0.87120  1.0000
  C   C1130     1.0  0.67458  0.59347  0.61283  1.0000
  H   H1121     1.0  0.67483  0.65583  0.60531  1.0000
  C   C1131     1.0  0.67450  0.63832  0.60748  1.0000
  C   C1132     1.0  0.67260  0.60751  0.63541  1.0000
  Fe  Fe199     1.0  0.63032  0.62350  0.48423  1.0000
  H   H1122     1.0  0.66191  0.66061  0.65089  1.0000
  H   H1123     1.0  0.63510  0.71576  0.52536  1.0000
  S   S386      1.0  0.75788  0.75455  0.60289  1.0000
  H   H1124     1.0  0.70149  0.98666  0.63198  1.0000
  S   S387      1.0  0.73977  0.75552  0.85096  1.0000
  C   C1133     1.0  0.72418  0.95255  0.47820  1.0000
  C   C1134     1.0  0.73138  0.82297  0.60333  1.0000
  C   C1135     1.0  0.75833  0.72625  0.50354  1.0000
  H   H1125     1.0  0.56834  0.59513  0.78747  1.0000
  H   H1126     1.0  0.68633  0.64596  0.66540  1.0000
  C   C1136     1.0  0.54406  0.56565  0.67660  1.0000
  C   C1137     1.0  0.67948  0.00162  0.89859  1.0000
  H   H1127     1.0  0.71005  0.72020  0.73492  1.0000
  C   C1138     1.0  0.74184  0.95445  0.69961  1.0000
  H   H1128     1.0  0.71404  0.94820  0.93530  1.0000
  H   H1129     1.0  0.73506  0.90360  0.50338  1.0000
  H   H1130     1.0  0.70689  0.95122  0.48205  1.0000
  C   C1139     1.0  0.54190  0.59774  0.73182  1.0000
  H   H1131     1.0  0.58063  0.57829  0.65646  1.0000
  C   C1140     1.0  0.65303  0.51312  0.55172  1.0000
  H   H1132     1.0  0.75895  0.84155  0.54602  1.0000
  H   H1133     1.0  0.69677  0.78484  0.77184  1.0000
  C   C1141     1.0  0.66239  0.63101  0.93397  1.0000
  S   S388      1.0  0.72942  0.95047  0.53317  1.0000
  H   H1134     1.0  0.70925  0.99909  0.68261  1.0000
  H   H1135     1.0  0.66935  0.62672  0.95431  1.0000
  C   C1142     1.0  0.52304  0.55911  0.68136  1.0000
  H   H1136     1.0  0.56245  0.61762  0.81044  1.0000
  H   H1137     1.0  0.70763  0.99247  0.92387  1.0000
  C   C1143     1.0  0.72754  0.72081  0.73164  1.0000
  C   C1144     1.0  0.75264  0.81662  0.61317  1.0000
  S   S389      1.0  0.71180  0.80381  0.59777  1.0000
  C   C1145     1.0  0.68195  0.66405  0.93831  1.0000
  H   H1138     1.0  0.66405  0.61583  0.92132  1.0000
  C   C1146     1.0  0.56854  0.59242  0.66157  1.0000
  H   H1139     1.0  0.55866  0.60078  0.72784  1.0000
  S   S390      1.0  0.75352  0.92414  0.85559  1.0000
  H   H1140     1.0  0.58080  0.55956  0.80365  1.0000
  C   C1147     1.0  0.73168  0.85724  0.85613  1.0000
  S   S391      1.0  0.70335  0.94189  0.87552  1.0000
  Fe  Fe200     1.0  0.75213  0.94765  0.63137  1.0000
  C   C1148     1.0  0.52466  0.61336  0.72444  1.0000
  S   S392      1.0  0.73234  0.97350  0.84003  1.0000
  C   C1149     1.0  0.74256  0.81812  0.86009  1.0000
  C   C1150     1.0  0.73223  0.81079  0.53278  1.0000
  C   C1151     1.0  0.69230  0.68118  0.92717  1.0000
  H   H1141     1.0  0.71071  0.96248  0.71938  1.0000
  S   S393      1.0  0.71227  0.93029  0.81104  1.0000
  C   C1152     1.0  0.75806  0.72211  0.70072  1.0000
  C   C1153     1.0  0.74103  0.72394  0.95088  1.0000
  Fe  Fe201     1.0  0.74990  0.73129  0.56979  1.0000
  C   C1154     1.0  0.75254  0.86007  0.84587  1.0000
  H   H1142     1.0  0.70932  0.85002  0.58917  1.0000
  C   C1155     1.0  0.66982  0.64414  0.65629  1.0000
  H   H1143     1.0  0.73864  0.80209  0.86592  1.0000
  H   H1144     1.0  0.65179  0.53426  0.95985  1.0000
  H   H1145     1.0  0.56891  0.60421  0.64481  1.0000
  H   H1146     1.0  0.75649  0.87616  0.84024  1.0000
  C   C1156     1.0  0.69094  0.99974  0.68185  1.0000
  C   C1157     1.0  0.74597  0.89941  0.96822  1.0000
  C   C1158     1.0  0.71086  0.78040  0.78583  1.0000
  H   H1147     1.0  0.52836  0.62836  0.71504  1.0000
  H   H1148     1.0  0.74925  0.78929  0.80785  1.0000
  H   H1149     1.0  0.73152  0.81142  0.51038  1.0000
  H   H1150     1.0  0.70189  0.69577  0.89036  1.0000
  H   H1151     1.0  0.68645  0.50995  0.95436  1.0000
  S   S394      1.0  0.66528  0.51716  0.71838  1.0000
  C   C1159     1.0  0.73360  0.77504  0.74520  1.0000
  H   H1152     1.0  0.72985  0.88073  0.92506  1.0000
  C   C1160     1.0  0.65605  0.52655  0.50555  1.0000
  H   H1153     1.0  0.64459  0.63657  0.93642  1.0000
  H   H1154     1.0  0.72269  0.79736  0.53970  1.0000
  C   C1161     1.0  0.74387  0.89439  0.66503  1.0000
  H   H1155     1.0  0.63643  0.69773  0.48025  1.0000
  H   H1156     1.0  0.76019  0.89509  0.65537  1.0000
  H   H1157     1.0  0.75597  0.77104  0.94564  1.0000
  H   H1158     1.0  0.75708  0.79987  0.61882  1.0000
  C   C1162     1.0  0.76427  0.73820  0.48136  1.0000
  C   C1163     1.0  0.68964  0.00106  0.63253  1.0000
  N   N101      1.0  0.74556  0.89586  0.69456  1.0000
  C   C1164     1.0  0.68784  0.51550  0.47810  1.0000
  Fe  Fe202     1.0  0.75247  0.72822  0.82302  1.0000
  Fe  Fe203     1.0  0.75057  0.73264  0.88455  1.0000
  C   C1165     1.0  0.75039  0.78524  0.78648  1.0000
  C   C1166     1.0  0.74820  0.89747  0.75071  1.0000
  C   C1167     1.0  0.67800  0.51051  0.97359  1.0000
  C   C1168     1.0  0.66319  0.73369  0.51809  1.0000
  C   C1169     1.0  0.76148  0.95474  0.49487  1.0000
  S   S395      1.0  0.59717  0.57270  0.48320  1.0000
  C   C1170     1.0  0.67914  0.73810  0.49942  1.0000
  H   H1159     1.0  0.52130  0.54369  0.69116  1.0000
  Fe  Fe204     1.0  0.58412  0.60767  0.47847  1.0000
  H   H1160     1.0  0.55121  0.56995  0.47661  1.0000
  C   C1171     1.0  0.75937  0.94855  0.75219  1.0000
  S   S396      1.0  0.75979  0.70441  0.85652  1.0000
  C   C1172     1.0  0.67355  0.51247  0.68450  1.0000
  C   C1173     1.0  0.51528  0.57431  0.74796  1.0000
  H   H1161     1.0  0.70343  0.89400  0.47460  1.0000
  H   H1162     1.0  0.75616  0.77268  0.53947  1.0000
  C   C1174     1.0  0.52819  0.59940  0.65905  1.0000
  C   C1175     1.0  0.76403  0.72280  0.95345  1.0000
  S   S397      1.0  0.63812  0.00303  0.70800  1.0000
  H   H1163     1.0  0.71090  0.00420  0.96989  1.0000
  C   C1176     1.0  0.73211  0.70883  0.47512  1.0000
  N   N102      1.0  0.68093  0.00850  0.94652  1.0000
  C   C1177     1.0  0.63559  0.00805  0.76335  1.0000
  H   H1164     1.0  0.73095  0.89190  0.97231  1.0000
  C   C1178     1.0  0.76443  0.94862  0.70351  1.0000
  H   H1165     1.0  0.54343  0.57227  0.97389  1.0000
  C   C1179     1.0  0.72815  0.72307  0.97404  1.0000
  C   C1180     1.0  0.00431  0.07972  0.01619  1.0000
  H   H1166     1.0  0.00570  0.05910  0.45159  1.0000
  H   H1167     1.0  0.83915  0.10856  0.01768  1.0000
  H   H1168     1.0  0.76602  0.28534  0.04058  1.0000
  H   H1169     1.0  0.86360  0.12188  0.02586  1.0000
  S   S398      1.0  0.79594  0.42853  0.35760  1.0000
  C   C1181     1.0  0.97344  0.13629  0.15978  1.0000
  Fe  Fe205     1.0  0.80333  0.45018  0.32307  1.0000
  S   S399      1.0  0.83530  0.46656  0.32379  1.0000
  H   H1170     1.0  0.96527  0.15253  0.16337  1.0000
  C   C1182     1.0  0.81211  0.25068  0.99036  1.0000
  H   H1171     1.0  0.79780  0.44681  0.19513  1.0000
  S   S400      1.0  0.83252  0.19145  0.08489  1.0000
  C   C1183     1.0  0.84243  0.12633  0.08098  1.0000
  Fe  Fe206     1.0  0.80211  0.21536  0.09068  1.0000
  H   H1172     1.0  0.78500  0.21693  0.18534  1.0000
  C   C1184     1.0  0.79348  0.26487  0.99687  1.0000
  C   C1185     1.0  0.83297  0.26867  0.02436  1.0000
  C   C1186     1.0  0.84639  0.12008  0.03203  1.0000
  C   C1187     1.0  0.83146  0.19605  0.02940  1.0000
  C   C1188     1.0  0.84791  0.09659  0.11234  1.0000
  Fe  Fe207     1.0  0.89947  0.09859  0.42388  1.0000
  S   S401      1.0  0.90731  0.13357  0.42330  1.0000
  S   S402      1.0  0.89337  0.07718  0.38739  1.0000
  H   H1173     1.0  0.79007  0.28432  0.26630  1.0000
  S   S403      1.0  0.86869  0.01673  0.19723  1.0000
  S   S404      1.0  0.90928  0.07393  0.01631  1.0000
  C   C1189     1.0  0.84322  0.11888  0.10755  1.0000
  C   C1190     1.0  0.85193  0.08207  0.09059  1.0000
  S   S405      1.0  0.79314  0.24207  0.06128  1.0000
  C   C1191     1.0  0.77138  0.45084  0.22403  1.0000
  C   C1192     1.0  0.86311  0.49887  0.24992  1.0000
  H   H1174     1.0  0.95168  0.09837  0.02264  1.0000
  Fe  Fe208     1.0  0.88765  0.04701  0.19826  1.0000
  S   S406      1.0  0.87108  0.08141  0.19692  1.0000
  Fe  Fe209     1.0  0.93375  0.06293  0.20651  1.0000
  S   S407      1.0  0.92032  0.09788  0.20538  1.0000
  S   S408      1.0  0.97064  0.05446  0.21186  1.0000
  Fe  Fe210     1.0  0.89354  0.08813  0.23205  1.0000
  S   S409      1.0  0.88595  0.11164  0.26721  1.0000
  Fe  Fe211     1.0  0.89965  0.08773  0.17060  1.0000
  S   S410      1.0  0.89824  0.11110  0.13578  1.0000
  S   S411      1.0  0.90825  0.05340  0.23544  1.0000
  S   S412      1.0  0.91486  0.05298  0.16965  1.0000
  H   H1175     1.0  0.87312  0.49041  0.31706  1.0000
  H   H1176     1.0  0.79986  0.46183  0.46167  1.0000
  C   C1193     1.0  0.85138  0.09015  0.06428  1.0000
  Fe  Fe212     1.0  0.90802  0.09723  0.98147  1.0000
  C   C1194     1.0  0.77514  0.17586  0.46144  1.0000
  C   C1195     1.0  0.98889  0.07508  0.21647  1.0000
  C   C1196     1.0  0.98116  0.09696  0.22133  1.0000
  C   C1197     1.0  0.99612  0.11298  0.22423  1.0000
  H   H1177     1.0  0.84078  0.13042  0.12434  1.0000
  C   C1198     1.0  0.76994  0.21362  0.99568  1.0000
  H   H1178     1.0  0.96371  0.10170  0.22270  1.0000
  H   H1179     1.0  0.98996  0.12991  0.22758  1.0000
  H   H1180     1.0  0.79667  0.34470  0.09333  1.0000
  H   H1181     1.0  0.93905  0.06786  0.35502  1.0000
  H   H1182     1.0  0.81629  0.20640  0.03211  1.0000
  S   S413      1.0  0.77730  0.44705  0.14267  1.0000
  C   C1199     1.0  0.84287  0.15606  0.39589  1.0000
  H   H1183     1.0  0.94595  0.03507  0.32504  1.0000
  H   H1184     1.0  0.95179  0.03990  0.27572  1.0000
  H   H1185     1.0  0.79605  0.32321  0.33225  1.0000
  H   H1186     1.0  0.85263  0.14751  0.41167  1.0000
  S   S414      1.0  0.79460  0.29834  0.09752  1.0000
  C   C1200     1.0  0.90754  0.08462  0.04944  1.0000
  C   C1201     1.0  0.90474  0.10716  0.05452  1.0000
  C   C1202     1.0  0.90225  0.11513  0.08118  1.0000
  C   C1203     1.0  0.90271  0.10063  0.10283  1.0000
  C   C1204     1.0  0.90603  0.07812  0.09777  1.0000
  C   C1205     1.0  0.90839  0.07014  0.07112  1.0000
  H   H1187     1.0  0.90410  0.11845  0.03795  1.0000
  H   H1188     1.0  0.89962  0.13258  0.08500  1.0000
  H   H1189     1.0  0.90615  0.06679  0.11423  1.0000
  H   H1190     1.0  0.91050  0.05267  0.06726  1.0000
  C   C1206     1.0  0.89013  0.08733  0.35433  1.0000
  C   C1207     1.0  0.88841  0.07246  0.33274  1.0000
  C   C1208     1.0  0.88711  0.07972  0.30593  1.0000
  C   C1209     1.0  0.88696  0.10199  0.30059  1.0000
  C   C1210     1.0  0.88812  0.11696  0.32221  1.0000
  C   C1211     1.0  0.88998  0.10964  0.34902  1.0000
  H   H1191     1.0  0.88845  0.05519  0.33674  1.0000
  H   H1192     1.0  0.88602  0.06809  0.28944  1.0000
  H   H1193     1.0  0.88796  0.13424  0.31816  1.0000
  H   H1194     1.0  0.89137  0.12120  0.36551  1.0000
  C   C1212     1.0  0.86230  0.17309  0.04796  1.0000
  C   C1213     1.0  0.87031  0.16836  0.02177  1.0000
  C   C1214     1.0  0.85898  0.17764  0.99936  1.0000
  C   C1215     1.0  0.83969  0.19166  0.00328  1.0000
  H   H1195     1.0  0.85783  0.43293  0.35833  1.0000
  H   H1196     1.0  0.87127  0.16607  0.06525  1.0000
  H   H1197     1.0  0.88538  0.15778  0.01895  1.0000
  H   H1198     1.0  0.78751  0.39777  0.15669  1.0000
  C   C1216     1.0  0.84589  0.47841  0.29487  1.0000
  H   H1199     1.0  0.97359  0.08654  0.44679  1.0000
  C   C1217     1.0  0.78233  0.22956  0.46797  1.0000
  C   C1218     1.0  0.83324  0.17730  0.40056  1.0000
  C   C1219     1.0  0.84419  0.48747  0.24717  1.0000
  C   C1220     1.0  0.83552  0.47739  0.26956  1.0000
  H   H1200     1.0  0.81345  0.20469  0.38385  1.0000
  Fe  Fe213     1.0  0.78253  0.40659  0.32569  1.0000
  S   S415      1.0  0.77040  0.47006  0.32478  1.0000
  H   H1201     1.0  0.82080  0.46890  0.26720  1.0000
  H   H1202     1.0  0.83547  0.18540  0.41995  1.0000
  H   H1203     1.0  0.96263  0.06598  0.15442  1.0000
  H   H1204     1.0  0.97249  0.12493  0.99796  1.0000
  C   C1221     1.0  0.94573  0.05134  0.31675  1.0000
  C   C1222     1.0  0.77389  0.31988  0.09123  1.0000
  C   C1223     1.0  0.77451  0.29401  0.02476  1.0000
  H   H1205     1.0  0.81104  0.23799  0.97501  1.0000
  S   S416      1.0  0.85972  0.16613  0.46549  1.0000
  C   C1224     1.0  0.84275  0.18681  0.05186  1.0000
  C   C1225     1.0  0.99372  0.09441  0.15146  1.0000
  H   H1206     1.0  0.84919  0.09072  0.13292  1.0000
  H   H1207     1.0  0.79292  0.25692  0.25160  1.0000
  S   S417      1.0  0.92201  0.12970  0.98399  1.0000
  C   C1226     1.0  0.01174  0.06938  0.21490  1.0000
  H   H1208     1.0  0.94988  0.07704  0.25724  1.0000
  H   H1209     1.0  0.81489  0.29484  0.04629  1.0000
  S   S418      1.0  0.96913  0.13395  0.45286  1.0000
  H   H1210     1.0  0.78122  0.17230  0.44118  1.0000
  C   C1227     1.0  0.77859  0.32856  0.33189  1.0000
  N   N103      1.0  0.94347  0.09304  0.29522  1.0000
  C   C1228     1.0  0.94109  0.09059  0.32244  1.0000
  C   C1229     1.0  0.94771  0.07511  0.27872  1.0000
  H   H1211     1.0  0.84812  0.26990  0.03586  1.0000
  N   N104      1.0  0.98564  0.09350  0.01160  1.0000
  C   C1230     1.0  0.83997  0.14593  0.37082  1.0000
  H   H1212     1.0  0.76873  0.29600  0.33691  1.0000
  H   H1213     1.0  0.93768  0.10477  0.33559  1.0000
  H   H1214     1.0  0.85550  0.07890  0.04755  1.0000
  C   C1231     1.0  0.94235  0.11496  0.28371  1.0000
  C   C1232     1.0  0.95835  0.08019  0.14106  1.0000
  N   N105      1.0  0.79466  0.28067  0.01652  1.0000
  H   H1215     1.0  0.93185  0.12698  0.29612  1.0000
  N   N106      1.0  0.97128  0.09830  0.14876  1.0000
  H   H1216     1.0  0.93448  0.11507  0.26328  1.0000
  N   N107      1.0  0.81780  0.17799  0.35561  1.0000
  C   C1233     1.0  0.77447  0.45892  0.43134  1.0000
  C   C1234     1.0  0.82076  0.18813  0.38005  1.0000
  H   H1217     1.0  0.95761  0.08059  0.99381  1.0000
  H   H1218     1.0  0.79794  0.21263  0.23301  1.0000
  C   C1235     1.0  0.78278  0.26843  0.26505  1.0000
  C   C1236     1.0  0.80488  0.18952  0.33412  1.0000
  C   C1237     1.0  0.77965  0.34145  0.09012  1.0000
  C   C1238     1.0  0.96109  0.11894  0.15260  1.0000
  H   H1219     1.0  0.00313  0.06281  0.02147  1.0000
  C   C1239     1.0  0.94883  0.05401  0.28915  1.0000
  H   H1220     1.0  0.78236  0.44956  0.24135  1.0000
  H   H1221     1.0  0.81591  0.19421  0.31790  1.0000
  H   H1222     1.0  0.79272  0.17901  0.32506  1.0000
  H   H1223     1.0  0.79531  0.20464  0.34176  1.0000
  C   C1240     1.0  0.85005  0.02139  0.14588  1.0000
  S   S419      1.0  0.77593  0.22129  0.41400  1.0000
  S   S420      1.0  0.76802  0.20395  0.09170  1.0000
  C   C1241     1.0  0.78011  0.44941  0.19783  1.0000
  H   H1224     1.0  0.79942  0.22376  0.46449  1.0000
  Fe  Fe214     1.0  0.93468  0.12268  0.45260  1.0000
  H   H1225     1.0  0.87271  0.43436  0.31235  1.0000
  C   C1242     1.0  0.99183  0.11405  0.45629  1.0000
  H   H1226     1.0  0.83658  0.13624  0.03020  1.0000
  H   H1227     1.0  0.76812  0.37531  0.08368  1.0000
  C   C1243     1.0  0.83693  0.01462  0.12420  1.0000
  C   C1244     1.0  0.98723  0.11439  0.00314  1.0000
  H   H1228     1.0  0.82536  0.14938  0.33116  1.0000
  H   H1229     1.0  0.95921  0.12032  0.28210  1.0000
  H   H1230     1.0  0.77831  0.31012  0.03325  1.0000
  N   N108      1.0  0.85415  0.40930  0.32702  1.0000
  C   C1245     1.0  0.84221  0.39214  0.32046  1.0000
  C   C1246     1.0  0.86314  0.42081  0.30715  1.0000
  C   C1247     1.0  0.83833  0.38663  0.29339  1.0000
  C   C1248     1.0  0.85928  0.41599  0.27988  1.0000
  C   C1249     1.0  0.84676  0.39878  0.27300  1.0000
  C   C1250     1.0  0.85811  0.41490  0.35547  1.0000
  H   H1231     1.0  0.83525  0.38281  0.33616  1.0000
  H   H1232     1.0  0.82835  0.37333  0.28839  1.0000
  H   H1233     1.0  0.86570  0.42579  0.26427  1.0000
  H   H1234     1.0  0.84341  0.39499  0.25195  1.0000
  H   H1235     1.0  0.87438  0.40703  0.36224  1.0000
  H   H1236     1.0  0.84499  0.40955  0.36862  1.0000
  H   H1237     1.0  0.96410  0.07117  0.02746  1.0000
  C   C1251     1.0  0.81410  0.28276  0.03014  1.0000
  C   C1252     1.0  0.77416  0.38974  0.14605  1.0000
  S   S421      1.0  0.79723  0.23778  0.12720  1.0000
  C   C1253     1.0  0.77315  0.21714  0.20149  1.0000
  H   H1238     1.0  0.83889  0.14371  0.07758  1.0000
  C   C1254     1.0  0.83190  0.25248  0.00440  1.0000
  H   H1239     1.0  0.76807  0.40510  0.19679  1.0000
  N   N109      1.0  0.84634  0.11198  0.05974  1.0000
  S   S422      1.0  0.87574  0.10328  0.45856  1.0000
  S   S423      1.0  0.79322  0.42656  0.29122  1.0000
  H   H1240     1.0  0.96158  0.07518  0.11972  1.0000
  S   S424      1.0  0.79176  0.36983  0.32580  1.0000
  C   C1255     1.0  0.94202  0.06972  0.33360  1.0000
  S   S425      1.0  0.77487  0.21353  0.28339  1.0000
  H   H1241     1.0  0.78563  0.45935  0.41456  1.0000
  C   C1256     1.0  0.99635  0.13245  0.16266  1.0000
  C   C1257     1.0  0.86499  0.48952  0.29755  1.0000
  H   H1242     1.0  0.85628  0.06480  0.09416  1.0000
  C   C1258     1.0  0.78042  0.21474  0.22850  1.0000
  Fe  Fe215     1.0  0.88566  0.13759  0.46008  1.0000
  H   H1243     1.0  0.83609  0.48657  0.22763  1.0000
  C   C1259     1.0  0.87349  0.49983  0.27525  1.0000
  H   H1244     1.0  0.84743  0.12941  0.36698  1.0000
  H   H1245     1.0  0.77110  0.39837  0.12661  1.0000
  C   C1260     1.0  0.82740  0.15726  0.35072  1.0000
  C   C1261     1.0  0.76602  0.45091  0.17515  1.0000
  H   H1246     1.0  0.85725  0.03680  0.14507  1.0000
  C   C1262     1.0  0.98944  0.09183  0.45228  1.0000
  C   C1263     1.0  0.78248  0.46037  0.45809  1.0000
  Fe  Fe216     1.0  0.78483  0.26359  0.09740  1.0000
  S   S426      1.0  0.92829  0.08747  0.45067  1.0000
  H   H1247     1.0  0.94327  0.12206  0.15039  1.0000
  H   H1248     1.0  0.84625  0.24106  0.00017  1.0000
  H   H1249     1.0  0.83096  0.01270  0.23261  1.0000
  H   H1250     1.0  0.77702  0.20667  0.01416  1.0000
  C   C1264     1.0  0.01276  0.12061  0.46284  1.0000
  C   C1265     1.0  0.77164  0.35091  0.32918  1.0000
  H   H1251     1.0  0.78003  0.37235  0.14177  1.0000
  H   H1252     1.0  0.83424  0.02484  0.10665  1.0000
  H   H1253     1.0  0.80950  0.01680  0.19000  1.0000
  H   H1254     1.0  0.94035  0.08486  0.14299  1.0000
  H   H1255     1.0  0.77795  0.26280  0.98660  1.0000
  H   H1256     1.0  0.83095  0.19887  0.98599  1.0000
  C   C1266     1.0  0.96378  0.08551  0.01401  1.0000
  C   C1267     1.0  0.00660  0.11143  0.15824  1.0000
  H   H1257     1.0  0.00172  0.07795  0.14900  1.0000
  H   H1258     1.0  0.78351  0.26089  0.28538  1.0000
  C   C1268     1.0  0.76728  0.23101  0.44620  1.0000
  H   H1259     1.0  0.76812  0.26436  0.21410  1.0000
  C   C1269     1.0  0.00790  0.12217  0.99982  1.0000
  H   H1260     1.0  0.00905  0.13849  0.99223  1.0000
  H   H1261     1.0  0.00757  0.11609  0.40083  1.0000
  H   H1262     1.0  0.00615  0.14555  0.16904  1.0000
  C   C1270     1.0  0.76516  0.21534  0.24965  1.0000
  C   C1271     1.0  0.00774  0.07627  0.45483  1.0000
  H   H1263     1.0  0.87807  0.50750  0.10786  1.0000
  H   H1264     1.0  0.87333  0.50936  0.15769  1.0000
  H   H1265     1.0  0.88819  0.50834  0.27763  1.0000
  C   C1272     1.0  0.85662  0.38830  0.77115  1.0000
  H   H1266     1.0  0.77504  0.28091  0.83206  1.0000
  C   C1273     1.0  0.84628  0.37640  0.79039  1.0000
  H   H1267     1.0  0.89311  0.40759  0.75030  1.0000
  H   H1268     1.0  0.82758  0.07362  0.61680  1.0000
  H   H1269     1.0  0.96928  0.14854  0.50794  1.0000
  H   H1270     1.0  0.84011  0.49516  0.49828  1.0000
  Fe  Fe217     1.0  0.80655  0.43530  0.82672  1.0000
  S   S427      1.0  0.83641  0.45469  0.83007  1.0000
  Fe  Fe218     1.0  0.93695  0.11967  0.94375  1.0000
  H   H1271     1.0  0.82304  0.21558  0.53314  1.0000
  H   H1272     1.0  0.81049  0.49712  0.50308  1.0000
  S   S428      1.0  0.83962  0.19987  0.58531  1.0000
  C   C1274     1.0  0.84351  0.01614  0.77213  1.0000
  S   S429      1.0  0.80082  0.30634  0.61182  1.0000
  C   C1275     1.0  0.84518  0.19075  0.55195  1.0000
  C   C1276     1.0  0.79045  0.49487  0.74150  1.0000
  Fe  Fe219     1.0  0.79228  0.27176  0.60391  1.0000
  H   H1273     1.0  0.80355  0.35270  0.61357  1.0000
  H   H1274     1.0  0.88420  0.43336  0.76650  1.0000
  H   H1275     1.0  0.85115  0.17138  0.63238  1.0000
  Fe  Fe220     1.0  0.89497  0.10242  0.92166  1.0000
  S   S430      1.0  0.90812  0.13516  0.91970  1.0000
  S   S431      1.0  0.87813  0.08590  0.88694  1.0000
  C   C1277     1.0  0.79803  0.50106  0.78882  1.0000
  Fe  Fe221     1.0  0.76547  0.43117  0.79377  1.0000
  S   S432      1.0  0.90927  0.07430  0.52182  1.0000
  H   H1276     1.0  0.79856  0.30483  0.54737  1.0000
  H   H1277     1.0  0.81047  0.19951  0.86284  1.0000
  S   S433      1.0  0.79897  0.40956  0.85638  1.0000
  C   C1278     1.0  0.76455  0.36828  0.89057  1.0000
  C   C1279     1.0  0.78388  0.22036  0.70189  1.0000
  C   C1280     1.0  0.77434  0.32932  0.89027  1.0000
  Fe  Fe222     1.0  0.87579  0.05380  0.70203  1.0000
  S   S434      1.0  0.85836  0.08770  0.70079  1.0000
  Fe  Fe223     1.0  0.92144  0.07140  0.70272  1.0000
  S   S435      1.0  0.90693  0.10623  0.70064  1.0000
  S   S436      1.0  0.95866  0.06287  0.70363  1.0000
  Fe  Fe224     1.0  0.88334  0.09647  0.73186  1.0000
  S   S437      1.0  0.87548  0.12017  0.76669  1.0000
  Fe  Fe225     1.0  0.88361  0.09387  0.66991  1.0000
  S   S438      1.0  0.87224  0.11325  0.63301  1.0000
  S   S439      1.0  0.89907  0.06215  0.73579  1.0000
  S   S440      1.0  0.89970  0.05943  0.66927  1.0000
  C   C1281     1.0  0.78088  0.32848  0.60510  1.0000
  H   H1278     1.0  0.81399  0.48334  0.60212  1.0000
  H   H1279     1.0  0.80234  0.30743  0.82397  1.0000
  H   H1280     1.0  0.91443  0.13464  0.57694  1.0000
  C   C1282     1.0  0.79271  0.44435  0.69939  1.0000
  C   C1283     1.0  0.97665  0.08244  0.71449  1.0000
  C   C1284     1.0  0.96902  0.10439  0.71903  1.0000
  C   C1285     1.0  0.98403  0.11995  0.72488  1.0000
  S   S441      1.0  0.79332  0.45720  0.64641  1.0000
  C   C1286     1.0  0.83520  0.13933  0.86299  1.0000
  H   H1281     1.0  0.95158  0.10947  0.71775  1.0000
  H   H1282     1.0  0.97793  0.13691  0.72810  1.0000
  S   S442      1.0  0.97210  0.12562  0.93395  1.0000
  C   C1287     1.0  0.85820  0.04317  0.54995  1.0000
  H   H1283     1.0  0.83878  0.37386  0.83260  1.0000
  H   H1284     1.0  0.84118  0.15576  0.74737  1.0000
  S   S443      1.0  0.78746  0.20656  0.78196  1.0000
  H   H1285     1.0  0.93973  0.10428  0.55838  1.0000
  H   H1286     1.0  0.82522  0.18250  0.90512  1.0000
  C   C1288     1.0  0.84370  0.14192  0.91150  1.0000
  H   H1287     1.0  0.84202  0.12236  0.86296  1.0000
  C   C1289     1.0  0.77519  0.23490  0.49438  1.0000
  C   C1290     1.0  0.89945  0.08608  0.55238  1.0000
  C   C1291     1.0  0.88339  0.10396  0.55290  1.0000
  C   C1292     1.0  0.87528  0.11245  0.57779  1.0000
  C   C1293     1.0  0.88351  0.10336  0.60215  1.0000
  C   C1294     1.0  0.90011  0.08600  0.60151  1.0000
  C   C1295     1.0  0.90781  0.07717  0.57671  1.0000
  H   H1288     1.0  0.87685  0.11089  0.53415  1.0000
  H   H1289     1.0  0.86240  0.12588  0.57814  1.0000
  H   H1290     1.0  0.90690  0.07918  0.62009  1.0000
  H   H1291     1.0  0.92031  0.06339  0.57638  1.0000
  C   C1296     1.0  0.88034  0.09477  0.85338  1.0000
  C   C1297     1.0  0.88578  0.11585  0.84773  1.0000
  C   C1298     1.0  0.88452  0.12342  0.82101  1.0000
  C   C1299     1.0  0.87868  0.10970  0.79966  1.0000
  C   C1300     1.0  0.87400  0.08838  0.80519  1.0000
  C   C1301     1.0  0.87450  0.08108  0.83200  1.0000
  H   H1292     1.0  0.89016  0.12660  0.86401  1.0000
  H   H1293     1.0  0.88810  0.13995  0.81687  1.0000
  H   H1294     1.0  0.86931  0.07776  0.78890  1.0000
  H   H1295     1.0  0.87016  0.06481  0.83625  1.0000
  C   C1302     1.0  0.86042  0.17250  0.54744  1.0000
  C   C1303     1.0  0.86497  0.16478  0.52102  1.0000
  C   C1304     1.0  0.85460  0.17553  0.49891  1.0000
  C   C1305     1.0  0.83954  0.19393  0.50344  1.0000
  C   C1306     1.0  0.83467  0.20140  0.52988  1.0000
  H   H1296     1.0  0.86855  0.16418  0.56445  1.0000
  H   H1297     1.0  0.87636  0.15045  0.51784  1.0000
  S   S444      1.0  0.77648  0.21277  0.59016  1.0000
  C   C1307     1.0  0.84732  0.46623  0.80123  1.0000
  C   C1308     1.0  0.85450  0.05356  0.57506  1.0000
  H   H1298     1.0  0.96866  0.09089  0.65278  1.0000
  C   C1309     1.0  0.86621  0.48456  0.75595  1.0000
  C   C1310     1.0  0.85045  0.46937  0.75253  1.0000
  C   C1311     1.0  0.84085  0.46043  0.77506  1.0000
  H   H1299     1.0  0.79504  0.22461  0.68640  1.0000
  S   S445      1.0  0.91373  0.13029  0.48913  1.0000
  H   H1300     1.0  0.84535  0.46480  0.73235  1.0000
  H   H1301     1.0  0.82852  0.44902  0.77215  1.0000
  H   H1302     1.0  0.86688  0.42236  0.74132  1.0000
  H   H1303     1.0  0.94398  0.17927  0.52556  1.0000
  H   H1304     1.0  0.83162  0.20247  0.48645  1.0000
  S   S446      1.0  0.80525  0.24358  0.63006  1.0000
  C   C1312     1.0  0.96996  0.10637  0.52027  1.0000
  S   S447      1.0  0.86848  0.17211  0.96626  1.0000
  H   H1305     1.0  0.98641  0.11124  0.51457  1.0000
  C   C1313     1.0  0.86329  0.48117  0.80462  1.0000
  C   C1314     1.0  0.92668  0.13789  0.56214  1.0000
  H   H1306     1.0  0.82872  0.13910  0.81997  1.0000
  C   C1315     1.0  0.77004  0.27762  0.75721  1.0000
  N   N110      1.0  0.82934  0.49670  0.53937  1.0000
  H   H1307     1.0  0.91608  0.17233  0.56005  1.0000
  C   C1316     1.0  0.87853  0.41784  0.75826  1.0000
  H   H1308     1.0  0.77654  0.38430  0.60270  1.0000
  C   C1317     1.0  0.82751  0.14867  0.83863  1.0000
  C   C1318     1.0  0.00065  0.10349  0.65548  1.0000
  H   H1309     1.0  0.85322  0.05963  0.62876  1.0000
  H   H1310     1.0  0.84577  0.12373  0.91037  1.0000
  C   C1319     1.0  0.78074  0.45432  0.67780  1.0000
  C   C1320     1.0  0.87252  0.49050  0.78210  1.0000
  C   C1321     1.0  0.82799  0.02920  0.58582  1.0000
  H   H1311     1.0  0.82796  0.04757  0.63352  1.0000
  S   S448      1.0  0.85309  0.02653  0.70413  1.0000
  H   H1312     1.0  0.87707  0.42613  0.81169  1.0000
  N   N111      1.0  0.83429  0.15143  0.88647  1.0000
  C   C1322     1.0  0.86869  0.41200  0.80550  1.0000
  C   C1323     1.0  0.78961  0.17421  0.48356  1.0000
  C   C1324     1.0  0.84714  0.38268  0.81757  1.0000
  Fe  Fe226     1.0  0.89179  0.14167  0.95994  1.0000
  H   H1313     1.0  0.99363  0.12013  0.65937  1.0000
  H   H1314     1.0  0.85429  0.02821  0.76581  1.0000
  H   H1315     1.0  0.87088  0.15049  0.66914  1.0000
  S   S449      1.0  0.79978  0.41453  0.79053  1.0000
  H   H1316     1.0  0.85565  0.38349  0.75001  1.0000
  H   H1317     1.0  0.83721  0.36269  0.78430  1.0000
  C   C1325     1.0  0.99943  0.07618  0.71657  1.0000
  C   C1326     1.0  0.76807  0.45628  0.95522  1.0000
  C   C1327     1.0  0.85833  0.40063  0.82521  1.0000
  S   S450      1.0  0.87666  0.10981  0.96042  1.0000
  N   N112      1.0  0.95635  0.12474  0.53269  1.0000
  C   C1328     1.0  0.95765  0.14550  0.52359  1.0000
  H   H1318     1.0  0.80699  0.16893  0.48062  1.0000
  C   C1329     1.0  0.92768  0.15906  0.55274  1.0000
  N   N113      1.0  0.86758  0.40589  0.77883  1.0000
  H   H1319     1.0  0.76927  0.38487  0.89077  1.0000
  H   H1320     1.0  0.78670  0.31540  0.88942  1.0000
  N   N114      1.0  0.83991  0.04628  0.59284  1.0000
  S   S451      1.0  0.77260  0.45314  0.82887  1.0000
  H   H1321     1.0  0.81236  0.17789  0.81981  1.0000
  Fe  Fe227     1.0  0.81022  0.22475  0.59085  1.0000
  H   H1322     1.0  0.79297  0.17907  0.52660  1.0000
  H   H1323     1.0  0.85853  0.40613  0.84617  1.0000
  H   H1324     1.0  0.80988  0.43838  0.69676  1.0000
  C   C1330     1.0  0.81752  0.18260  0.86261  1.0000
  C   C1331     1.0  0.77724  0.21156  0.74890  1.0000
  C   C1332     1.0  0.78492  0.31298  0.82445  1.0000
  S   S452      1.0  0.79830  0.35397  0.81774  1.0000
  C   C1333     1.0  0.94112  0.12080  0.55170  1.0000
  H   H1325     1.0  0.83301  0.14687  0.92903  1.0000
  H   H1326     1.0  0.82710  0.47183  0.50915  1.0000
  H   H1327     1.0  0.96152  0.10073  0.50174  1.0000
  C   C1334     1.0  0.00683  0.11380  0.72617  1.0000
  S   S453      1.0  0.87686  0.49626  0.72706  1.0000
  N   N115      1.0  0.83720  0.16386  0.67005  1.0000
  C   C1335     1.0  0.81905  0.16941  0.68570  1.0000
  C   C1336     1.0  0.85661  0.15529  0.68159  1.0000
  C   C1337     1.0  0.82018  0.16664  0.71375  1.0000
  C   C1338     1.0  0.85835  0.15247  0.70953  1.0000
  C   C1339     1.0  0.84000  0.15813  0.72567  1.0000
  C   C1340     1.0  0.83566  0.16594  0.64061  1.0000
  H   H1328     1.0  0.80355  0.17601  0.67658  1.0000
  C   C1341     1.0  0.83136  0.01829  0.56097  1.0000
  H   H1329     1.0  0.80580  0.17104  0.72617  1.0000
  H   H1330     1.0  0.82206  0.17829  0.63439  1.0000
  S   S454      1.0  0.77611  0.42932  0.57828  1.0000
  S   S455      1.0  0.80093  0.25391  0.56491  1.0000
  S   S456      1.0  0.92495  0.08632  0.94283  1.0000
  H   H1331     1.0  0.77151  0.48302  0.77390  1.0000
  H   H1332     1.0  0.97275  0.09235  0.53421  1.0000
  C   C1342     1.0  0.99317  0.10402  0.93727  1.0000
  Fe  Fe228     1.0  0.78843  0.39053  0.82008  1.0000
  H   H1333     1.0  0.80881  0.21842  0.73348  1.0000
  Fe  Fe229     1.0  0.77079  0.23363  0.62763  1.0000
  H   H1334     1.0  0.87379  0.14573  0.71864  1.0000
  H   H1335     1.0  0.86016  0.14783  0.91535  1.0000
  C   C1343     1.0  0.81851  0.17043  0.83852  1.0000
  H   H1336     1.0  0.83299  0.14989  0.63110  1.0000
  C   C1344     1.0  0.78228  0.44143  0.72414  1.0000
  H   H1337     1.0  0.86841  0.48572  0.82481  1.0000
  C   C1345     1.0  0.82574  0.17284  0.88651  1.0000
  H   H1338     1.0  0.98430  0.05240  0.64743  1.0000
  C   C1346     1.0  0.84664  0.02529  0.54299  1.0000
  H   H1339     1.0  0.77383  0.45328  0.91218  1.0000
  C   C1347     1.0  0.98865  0.08321  0.94542  1.0000
  H   H1340     1.0  0.86343  0.06742  0.58035  1.0000
  H   H1341     1.0  0.79151  0.43337  0.74040  1.0000
  Fe  Fe230     1.0  0.90548  0.09572  0.48526  1.0000
  H   H1342     1.0  0.79799  0.35332  0.88909  1.0000
  C   C1348     1.0  0.79163  0.21691  0.72856  1.0000
  H   H1343     1.0  0.84957  0.01683  0.52376  1.0000
  C   C1349     1.0  0.78523  0.49218  0.76862  1.0000
  H   H1344     1.0  0.97181  0.07962  0.94798  1.0000
  C   C1350     1.0  0.76818  0.45996  0.48014  1.0000
  C   C1351     1.0  0.77937  0.20735  0.97063  1.0000
  H   H1345     1.0  0.00246  0.05127  0.95806  1.0000
  C   C1352     1.0  0.76991  0.21582  0.94655  1.0000
  H   H1346     1.0  0.78675  0.23305  0.51113  1.0000
  C   C1353     1.0  0.78693  0.34993  0.60724  1.0000
  C   C1354     1.0  0.76941  0.29785  0.82901  1.0000
  S   S457      1.0  0.77887  0.46303  0.51334  1.0000
  S   S458      1.0  0.78110  0.20647  0.91541  1.0000
  C   C1355     1.0  0.82151  0.49223  0.58639  1.0000
  C   C1356     1.0  0.81972  0.48573  0.55927  1.0000
  H   H1347     1.0  0.76792  0.29363  0.67769  1.0000
  C   C1357     1.0  0.00605  0.06712  0.95098  1.0000
  C   C1358     1.0  0.83690  0.05732  0.61924  1.0000
  C   C1359     1.0  0.82670  0.48994  0.51105  1.0000
  C   C1360     1.0  0.77809  0.33528  0.82133  1.0000
  C   C1361     1.0  0.77399  0.27998  0.72964  1.0000
  H   H1348     1.0  0.81881  0.02514  0.74200  1.0000
  H   H1349     1.0  0.79463  0.49850  0.80997  1.0000
  C   C1362     1.0  0.98643  0.08706  0.65170  1.0000
  H   H1350     1.0  0.77777  0.26491  0.67604  1.0000
  C   C1363     1.0  0.78067  0.35056  0.89003  1.0000
  C   C1364     1.0  0.82339  0.01429  0.75866  1.0000
  H   H1351     1.0  0.00749  0.12230  0.78751  1.0000
  H   H1352     1.0  0.87011  0.04886  0.53612  1.0000
  H   H1353     1.0  0.79002  0.34486  0.54455  1.0000
  Fe  Fe231     1.0  0.76876  0.45326  0.61252  1.0000
  H   H1354     1.0  0.88460  0.50220  0.78501  1.0000
  S   S459      1.0  0.77177  0.23769  0.84692  1.0000
  H   H1355     1.0  0.78183  0.01288  0.74391  1.0000
  H   H1356     1.0  0.78040  0.48806  0.72589  1.0000
  H   H1357     1.0  0.78205  0.28195  0.77228  1.0000
  H   H1358     1.0  0.00550  0.05923  0.71326  1.0000
  C   C1365     1.0  0.94334  0.16296  0.53344  1.0000
  C   C1366     1.0  0.78173  0.17983  0.50935  1.0000
  H   H1359     1.0  0.79371  0.19552  0.96987  1.0000
  C   C1367     1.0  0.99526  0.06536  0.64883  1.0000
  C   C1368     1.0  0.00913  0.11509  0.83014  1.0000
  C   C1369     1.0  0.77166  0.36786  0.60103  1.0000
  C   C1370     1.0  0.78339  0.31155  0.53757  1.0000
  H   H1360     1.0  0.81625  0.02343  0.59974  1.0000
  H   H1361     1.0  0.78928  0.28613  0.72350  1.0000
  H   H1362     1.0  0.78054  0.46751  0.95859  1.0000
  Fe  Fe232     1.0  0.76671  0.24337  0.56707  1.0000
  H   H1363     1.0  0.81060  0.47182  0.55426  1.0000
  C   C1371     1.0  0.84566  0.01121  0.67538  1.0000
  C   C1372     1.0  0.77842  0.33421  0.53599  1.0000
  H   H1364     1.0  0.99207  0.12116  0.83388  1.0000
  C   C1373     1.0  0.81408  0.50722  0.70619  1.0000
  H   H1365     1.0  0.80979  0.49256  0.69440  1.0000
  H   H1366     1.0  0.83219  0.50792  0.70395  1.0000
  H   H1367     1.0  0.77197  0.28010  0.52817  1.0000
  H   H1368     1.0  0.87319  0.01823  0.65115  1.0000
  N   N116      1.0  0.80825  0.50559  0.73471  1.0000
  C   C1374     1.0  0.76839  0.29768  0.52714  1.0000
  C   C1375     1.0  0.01445  0.09176  0.72234  1.0000
  C   C1376     1.0  0.85834  0.00986  0.65193  1.0000
  H   H1369     1.0  0.84856  0.53090  0.37235  1.0000
  H   H1370     1.0  0.97038  0.59466  0.00255  1.0000
  S   S460      1.0  0.78679  0.79214  0.36711  1.0000
  Fe  Fe233     1.0  0.78972  0.70931  0.35673  1.0000
  C   C1377     1.0  0.77405  0.72181  0.97914  1.0000
  S   S461      1.0  0.81619  0.68061  0.35561  1.0000
  H   H1371     1.0  0.97354  0.56552  0.00138  1.0000
  C   C1378     1.0  0.82579  0.53226  0.29914  1.0000
  H   H1372     1.0  0.78002  0.90687  0.40942  1.0000
  C   C1379     1.0  0.90824  0.56621  0.32866  1.0000
  S   S462      1.0  0.78585  0.73706  0.32712  1.0000
  S   S463      1.0  0.78309  0.73117  0.39298  1.0000
  S   S464      1.0  0.90786  0.60491  0.43757  1.0000
  Fe  Fe234     1.0  0.91106  0.58944  0.00135  1.0000
  S   S465      1.0  0.92256  0.62284  0.99652  1.0000
  C   C1380     1.0  0.80393  0.64543  0.46139  1.0000
  H   H1373     1.0  0.79735  0.68126  0.00362  1.0000
  S   S466      1.0  0.89355  0.55011  0.40469  1.0000
  S   S467      1.0  0.86854  0.58209  0.46958  1.0000
  C   C1381     1.0  0.91648  0.57129  0.12048  1.0000
  C   C1382     1.0  0.92033  0.63537  0.38107  1.0000
  S   S468      1.0  0.90088  0.60110  0.15981  1.0000
  C   C1383     1.0  0.82345  0.52026  0.34517  1.0000
  H   H1374     1.0  0.97555  0.55000  0.16347  1.0000
  S   S469      1.0  0.78426  0.93577  0.13034  1.0000
  C   C1384     1.0  0.79655  0.63961  0.43559  1.0000
  C   C1385     1.0  0.01245  0.60004  0.00854  1.0000
  S   S470      1.0  0.78118  0.93721  0.06384  1.0000
  H   H1375     1.0  0.78601  0.95735  0.46422  1.0000
  H   H1376     1.0  0.77802  0.77459  0.98766  1.0000
  S   S471      1.0  0.78675  0.87713  0.09645  1.0000
  Fe  Fe235     1.0  0.78661  0.96090  0.09833  1.0000
  S   S472      1.0  0.81048  0.98722  0.09753  1.0000
  C   C1386     1.0  0.77226  0.84547  0.29645  1.0000
  C   C1387     1.0  0.85373  0.00822  0.16859  1.0000
  Fe  Fe236     1.0  0.90609  0.57824  0.25753  1.0000
  H   H1377     1.0  0.81566  0.65987  0.01789  1.0000
  C   C1388     1.0  0.78687  0.68152  0.45633  1.0000
  C   C1389     1.0  0.89519  0.58594  0.32491  1.0000
  S   S473      1.0  0.92203  0.54387  0.19312  1.0000
  H   H1378     1.0  0.93248  0.62579  0.39336  1.0000
  C   C1390     1.0  0.84428  0.98820  0.16930  1.0000
  C   C1391     1.0  0.77733  0.91708  0.98492  1.0000
  C   C1392     1.0  0.81521  0.52091  0.31871  1.0000
  H   H1379     1.0  0.84718  0.97782  0.18670  1.0000
  C   C1393     1.0  0.80841  0.99222  0.25080  1.0000
  H   H1380     1.0  0.86309  0.54507  0.18018  1.0000
  H   H1381     1.0  0.78742  0.71647  0.22091  1.0000
  N   N117      1.0  0.96985  0.60533  0.16347  1.0000
  H   H1382     1.0  0.94159  0.62104  0.18305  1.0000
  H   H1383     1.0  0.99476  0.53685  0.42908  1.0000
  C   C1394     1.0  0.96405  0.58437  0.16402  1.0000
  H   H1384     1.0  0.79026  0.86161  0.15669  1.0000
  Fe  Fe237     1.0  0.77499  0.91330  0.09638  1.0000
  H   H1385     1.0  0.79183  0.72157  0.98106  1.0000
  H   H1386     1.0  0.78572  0.92001  0.22738  1.0000
  C   C1395     1.0  0.84181  0.53132  0.35189  1.0000
  S   S474      1.0  0.92072  0.54332  0.25954  1.0000
  H   H1387     1.0  0.86601  0.55113  0.33719  1.0000
  C   C1396     1.0  0.00025  0.56273  0.22546  1.0000
  C   C1397     1.0  0.90428  0.59980  0.07795  1.0000
  C   C1398     1.0  0.81577  0.00484  0.23014  1.0000
  C   C1399     1.0  0.78886  0.98226  0.24726  1.0000
  C   C1400     1.0  0.91978  0.56444  0.09349  1.0000
  C   C1401     1.0  0.76874  0.95588  0.46807  1.0000
  S   S475      1.0  0.76892  0.92568  0.28101  1.0000
  S   S476      1.0  0.98066  0.54321  0.22666  1.0000
  H   H1388     1.0  0.89011  0.53245  0.06835  1.0000
  C   C1402     1.0  0.82712  0.99481  0.12515  1.0000
  H   H1389     1.0  0.94696  0.58134  0.16675  1.0000
  H   H1390     1.0  0.85829  0.57894  0.15292  1.0000
  S   S477      1.0  0.76789  0.72480  0.16876  1.0000
  H   H1391     1.0  0.79079  0.91377  0.44155  1.0000
  C   C1403     1.0  0.83084  0.98162  0.14784  1.0000
  C   C1404     1.0  0.86218  0.56313  0.14309  1.0000
  H   H1392     1.0  0.97714  0.59110  0.23144  1.0000
  S   S478      1.0  0.93080  0.58872  0.22827  1.0000
  H   H1393     1.0  0.82364  0.96621  0.14868  1.0000
  H   H1394     1.0  0.83819  0.63894  0.37068  1.0000
  Fe  Fe238     1.0  0.89741  0.53760  0.22523  1.0000
  C   C1405     1.0  0.90683  0.59238  0.12632  1.0000
  C   C1406     1.0  0.85525  0.55440  0.28527  1.0000
  H   H1395     1.0  0.86070  0.53064  0.06395  1.0000
  S   S479      1.0  0.89372  0.59886  0.29339  1.0000
  H   H1396     1.0  0.00965  0.54566  0.00705  1.0000
  C   C1407     1.0  0.78400  0.65515  0.42015  1.0000
  C   C1408     1.0  0.95256  0.62357  0.16578  1.0000
  H   H1397     1.0  0.79124  0.83075  0.10479  1.0000
  N   N118      1.0  0.79893  0.66615  0.47149  1.0000
  C   C1409     1.0  0.88274  0.59538  0.34649  1.0000
  C   C1410     1.0  0.88316  0.58499  0.37158  1.0000
  H   H1398     1.0  0.87244  0.61054  0.34372  1.0000
  H   H1399     1.0  0.87320  0.59211  0.38801  1.0000
  H   H1400     1.0  0.76979  0.93047  0.18273  1.0000
  H   H1401     1.0  0.89931  0.61080  0.06164  1.0000
  H   H1402     1.0  0.89351  0.62303  0.10937  1.0000
  H   H1403     1.0  0.78366  0.69811  0.46387  1.0000
  C   C1411     1.0  0.86486  0.56164  0.11506  1.0000
  Fe  Fe239     1.0  0.77547  0.75819  0.36316  1.0000
  H   H1404     1.0  0.78284  0.97249  0.26324  1.0000
  H   H1405     1.0  0.85153  0.54848  0.26451  1.0000
  C   C1412     1.0  0.00795  0.59180  0.15785  1.0000
  H   H1406     1.0  0.78929  0.83809  0.36158  1.0000
  H   H1407     1.0  0.78879  0.85026  0.29365  1.0000
  C   C1413     1.0  0.98092  0.56721  0.44727  1.0000
  S   S480      1.0  0.87325  0.51162  0.22131  1.0000
  H   H1408     1.0  0.00493  0.61765  0.22566  1.0000
  H   H1409     1.0  0.92092  0.56006  0.13666  1.0000
  N   N119      1.0  0.87057  0.54184  0.10270  1.0000
  C   C1414     1.0  0.99830  0.55247  0.43763  1.0000
  C   C1415     1.0  0.86514  0.54420  0.15843  1.0000
  S   S481      1.0  0.88151  0.57207  0.22486  1.0000
  H   H1410     1.0  0.77865  0.65112  0.39981  1.0000
  C   C1416     1.0  0.91347  0.57856  0.07213  1.0000
  C   C1417     1.0  0.77713  0.98482  0.22283  1.0000
  S   S482      1.0  0.91585  0.56834  0.03867  1.0000
  C   C1418     1.0  0.87339  0.54032  0.07331  1.0000
  C   C1419     1.0  0.82885  0.67149  0.38620  1.0000
  C   C1420     1.0  0.82984  0.68559  0.40853  1.0000
  C   C1421     1.0  0.84031  0.67812  0.43255  1.0000
  C   C1422     1.0  0.84985  0.65649  0.43450  1.0000
  C   C1423     1.0  0.84919  0.64241  0.41206  1.0000
  C   C1424     1.0  0.83875  0.64993  0.38794  1.0000
  H   H1411     1.0  0.82269  0.70233  0.40727  1.0000
  H   H1412     1.0  0.84089  0.68914  0.44976  1.0000
  H   H1413     1.0  0.85645  0.62569  0.41342  1.0000
  C   C1425     1.0  0.97952  0.58004  0.01179  1.0000
  N   N120      1.0  0.88865  0.65925  0.34970  1.0000
  C   C1426     1.0  0.88949  0.66294  0.37703  1.0000
  C   C1427     1.0  0.90329  0.64387  0.33774  1.0000
  N   N121      1.0  0.00345  0.58044  0.00875  1.0000
  C   C1428     1.0  0.85181  0.54264  0.33187  1.0000
  H   H1414     1.0  0.81976  0.53204  0.27844  1.0000
  C   C1429     1.0  0.87111  0.67070  0.33326  1.0000
  H   H1415     1.0  0.87763  0.67483  0.38665  1.0000
  H   H1416     1.0  0.90223  0.64049  0.31619  1.0000
  H   H1417     1.0  0.87201  0.55670  0.06379  1.0000
  H   H1418     1.0  0.95951  0.63947  0.16929  1.0000
  H   H1419     1.0  0.85026  0.57225  0.28693  1.0000
  H   H1420     1.0  0.86385  0.68596  0.34341  1.0000
  H   H1421     1.0  0.87752  0.67529  0.31343  1.0000
  H   H1422     1.0  0.85760  0.65995  0.32971  1.0000
  S   S483      1.0  0.77402  0.72162  0.03428  1.0000
  Fe  Fe240     1.0  0.90778  0.57879  0.19554  1.0000
  C   C1430     1.0  0.89557  0.56484  0.37494  1.0000
  C   C1431     1.0  0.77900  0.67621  0.43061  1.0000
  C   C1432     1.0  0.90819  0.55552  0.35350  1.0000
  H   H1423     1.0  0.83439  0.63159  0.98898  1.0000
  H   H1424     1.0  0.91838  0.55911  0.31251  1.0000
  H   H1425     1.0  0.93050  0.61911  0.34368  1.0000
  H   H1426     1.0  0.87348  0.55176  0.28803  1.0000
  H   H1427     1.0  0.90554  0.65367  0.41490  1.0000
  H   H1428     1.0  0.78326  0.89026  0.15573  1.0000
  C   C1433     1.0  0.87356  0.52320  0.11763  1.0000
  Fe  Fe241     1.0  0.89636  0.57156  0.44148  1.0000
  C   C1434     1.0  0.00218  0.57038  0.15871  1.0000
  C   C1435     1.0  0.99147  0.60921  0.16028  1.0000
  C   C1436     1.0  0.99409  0.58523  0.22757  1.0000
  H   H1429     1.0  0.92692  0.54797  0.08910  1.0000
  C   C1437     1.0  0.78193  0.90119  0.43062  1.0000
  H   H1430     1.0  0.81592  0.51078  0.36024  1.0000
  H   H1431     1.0  0.78302  0.81123  0.29994  1.0000
  N   N122      1.0  0.84407  0.54267  0.30583  1.0000
  H   H1432     1.0  0.94225  0.62458  0.14703  1.0000
  H   H1433     1.0  0.97522  0.57968  0.03351  1.0000
  C   C1438     1.0  0.87089  0.52410  0.14571  1.0000
  H   H1434     1.0  0.86292  0.57652  0.10340  1.0000
  H   H1435     1.0  0.96411  0.56285  0.44619  1.0000
  C   C1439     1.0  0.00992  0.60028  0.22438  1.0000
  H   H1436     1.0  0.91788  0.53996  0.35609  1.0000
  H   H1437     1.0  0.79211  0.88521  0.43088  1.0000
  C   C1440     1.0  0.90099  0.60668  0.10499  1.0000
  C   C1441     1.0  0.90529  0.65106  0.39313  1.0000
  C   C1442     1.0  0.77876  0.87506  0.16526  1.0000
  C   C1443     1.0  0.76888  0.82344  0.29997  1.0000
  C   C1444     1.0  0.77066  0.72360  0.22400  1.0000
  H   H1438     1.0  0.78136  0.87633  0.18745  1.0000
  H   H1439     1.0  0.81780  0.99023  0.26953  1.0000
  Fe  Fe242     1.0  0.94386  0.55339  0.22767  1.0000
  Fe  Fe243     1.0  0.88201  0.61492  0.46831  1.0000
  H   H1440     1.0  0.82681  0.68078  0.99851  1.0000
  C   C1445     1.0  0.81280  0.67046  0.99997  1.0000
  C   C1446     1.0  0.91936  0.63174  0.35320  1.0000
  N   N123      1.0  0.78497  0.99644  0.20225  1.0000
  H   H1441     1.0  0.80117  0.62340  0.42731  1.0000
  H   H1442     1.0  0.78678  0.92334  0.00160  1.0000
  H   H1443     1.0  0.76953  0.68849  0.41862  1.0000
  S   S484      1.0  0.86106  0.64736  0.46581  1.0000
  H   H1444     1.0  0.99622  0.62578  0.16027  1.0000
  C   C1447     1.0  0.98010  0.56659  0.16177  1.0000
  C   C1448     1.0  0.98544  0.58724  0.45890  1.0000
  C   C1449     1.0  0.80363  0.00698  0.20597  1.0000
  C   C1450     1.0  0.77226  0.83561  0.36563  1.0000
  C   C1451     1.0  0.00726  0.59276  0.45994  1.0000
  C   C1452     1.0  0.77428  0.83537  0.09883  1.0000
  H   H1445     1.0  0.80132  0.51183  0.31317  1.0000
  H   H1446     1.0  0.77256  0.72042  0.26743  1.0000
  H   H1447     1.0  0.77250  0.79942  0.03581  1.0000
  C   C1453     1.0  0.76905  0.92786  0.22593  1.0000
  S   S485      1.0  0.88020  0.59653  0.97603  1.0000
  H   H1448     1.0  0.78436  0.99906  0.15925  1.0000
  C   C1454     1.0  0.77283  0.99838  0.17647  1.0000
  N   N124      1.0  0.81128  0.65739  0.97507  1.0000
  H   H1449     1.0  0.00189  0.61530  0.00928  1.0000
  H   H1450     1.0  0.77517  0.76990  0.03948  1.0000
  C   C1455     1.0  0.76643  0.81444  0.37002  1.0000
  Fe  Fe244     1.0  0.92980  0.59536  0.47295  1.0000
  C   C1456     1.0  0.76755  0.85730  0.09291  1.0000
  H   H1451     1.0  0.01084  0.60829  0.46874  1.0000
  H   H1452     1.0  0.81447  0.63357  0.47284  1.0000
  C   C1457     1.0  0.83297  0.51027  0.59300  1.0000
  S   S486      1.0  0.91852  0.53537  0.76436  1.0000
  S   S487      1.0  0.78361  0.79858  0.84542  1.0000
  Fe  Fe245     1.0  0.79347  0.71647  0.85792  1.0000
  H   H1453     1.0  0.97649  0.55796  0.51271  1.0000
  S   S488      1.0  0.82163  0.68961  0.85868  1.0000
  C   C1458     1.0  0.78354  0.92014  0.95830  1.0000
  C   C1459     1.0  0.76536  0.89036  0.70731  1.0000
  H   H1454     1.0  0.94119  0.60027  0.79620  1.0000
  C   C1460     1.0  0.82667  0.99986  0.67628  1.0000
  S   S489      1.0  0.78685  0.73821  0.82190  1.0000
  S   S490      1.0  0.78480  0.74345  0.88824  1.0000
  S   S491      1.0  0.91227  0.61777  0.93131  1.0000
  Fe  Fe246     1.0  0.89367  0.57441  0.50285  1.0000
  S   S492      1.0  0.90494  0.60822  0.50397  1.0000
  C   C1461     1.0  0.99843  0.55600  0.73176  1.0000
  H   H1455     1.0  0.89201  0.53012  0.58858  1.0000
  S   S493      1.0  0.90328  0.58604  0.65867  1.0000
  S   S494      1.0  0.89166  0.59464  0.78804  1.0000
  C   C1462     1.0  0.76701  0.89122  0.73555  1.0000
  H   H1456     1.0  0.78853  0.77846  0.73665  1.0000
  H   H1457     1.0  0.95698  0.61589  0.88790  1.0000
  H   H1458     1.0  0.86214  0.99603  0.61169  1.0000
  S   S495      1.0  0.77265  0.72826  0.53426  1.0000
  S   S496      1.0  0.78646  0.93121  0.63520  1.0000
  C   C1463     1.0  0.79734  0.67946  0.79509  1.0000
  H   H1459     1.0  0.78967  0.66155  0.91180  1.0000
  S   S497      1.0  0.78710  0.92850  0.56884  1.0000
  H   H1460     1.0  0.77522  0.91583  0.91640  1.0000
  H   H1461     1.0  0.97404  0.56756  0.94608  1.0000
  S   S498      1.0  0.78391  0.87185  0.60831  1.0000
  Fe  Fe247     1.0  0.79416  0.95319  0.60152  1.0000
  S   S499      1.0  0.82463  0.97194  0.60107  1.0000
  C   C1464     1.0  0.89732  0.55416  0.61969  1.0000
  C   C1465     1.0  0.99541  0.59347  0.94345  1.0000
  C   C1466     1.0  0.82877  0.65178  0.80074  1.0000
  H   H1462     1.0  0.84081  0.97503  0.81676  1.0000
  C   C1467     1.0  0.76688  0.82503  0.54752  1.0000
  H   H1463     1.0  0.89807  0.54254  0.63595  1.0000
  C   C1468     1.0  0.85209  0.99720  0.62964  1.0000
  C   C1469     1.0  0.76832  0.83199  0.61556  1.0000
  H   H1464     1.0  0.78283  0.88753  0.74565  1.0000
  S   S500      1.0  0.96480  0.60475  0.47493  1.0000
  H   H1465     1.0  0.77134  0.90673  0.48262  1.0000
  C   C1470     1.0  0.79911  0.80084  0.55901  1.0000
  C   C1471     1.0  0.78931  0.99672  0.75093  1.0000
  H   H1466     1.0  0.77110  0.97660  0.96689  1.0000
  H   H1467     1.0  0.82713  0.65351  0.82249  1.0000
  C   C1472     1.0  0.88961  0.57106  0.87495  1.0000
  C   C1473     1.0  0.77264  0.77930  0.74655  1.0000
  S   S501      1.0  0.93063  0.57469  0.96631  1.0000
  H   H1468     1.0  0.78272  0.68183  0.78136  1.0000
  H   H1469     1.0  0.93771  0.57190  0.79480  1.0000
  H   H1470     1.0  0.80517  0.52207  0.69733  1.0000
  C   C1474     1.0  0.95634  0.60151  0.65221  1.0000
  H   H1471     1.0  0.79059  0.94071  0.73252  1.0000
  C   C1475     1.0  0.80794  0.67231  0.49785  1.0000
  S   S502      1.0  0.88636  0.55325  0.53845  1.0000
  C   C1476     1.0  0.89952  0.57623  0.62537  1.0000
  H   H1472     1.0  0.94551  0.56138  0.66033  1.0000
  C   C1477     1.0  0.76835  0.84197  0.84280  1.0000
  Fe  Fe248     1.0  0.90213  0.56903  0.75655  1.0000
  C   C1478     1.0  0.95288  0.60175  0.84791  1.0000
  H   H1473     1.0  0.88952  0.53869  0.85750  1.0000
  H   H1474     1.0  0.81203  0.62564  0.90695  1.0000
  C   C1479     1.0  0.77265  0.72197  0.72296  1.0000
  H   H1475     1.0  0.83429  0.52392  0.74892  1.0000
  Fe  Fe249     1.0  0.89323  0.62897  0.96824  1.0000
  C   C1480     1.0  0.83288  0.98616  0.63036  1.0000
  C   C1481     1.0  0.82385  0.62581  0.94816  1.0000
  H   H1476     1.0  0.84125  0.69842  0.95499  1.0000
  N   N125      1.0  0.94799  0.58366  0.83333  1.0000
  C   C1482     1.0  0.77074  0.91264  0.93703  1.0000
  C   C1483     1.0  0.82018  0.98755  0.65380  1.0000
  H   H1477     1.0  0.77312  0.95526  0.51153  1.0000
  C   C1484     1.0  0.00009  0.54461  0.66590  1.0000
  C   C1485     1.0  0.99070  0.57160  0.94329  1.0000
  H   H1478     1.0  0.80536  0.97914  0.65460  1.0000
  H   H1479     1.0  0.85185  0.65265  0.87199  1.0000
  H   H1480     1.0  0.99991  0.60990  0.71723  1.0000
  H   H1481     1.0  0.93984  0.55064  0.83475  1.0000
  C   C1486     1.0  0.84832  0.63509  0.76242  1.0000
  H   H1482     1.0  0.78447  0.84427  0.83491  1.0000
  C   C1487     1.0  0.84979  0.00205  0.79326  1.0000
  S   S503      1.0  0.97492  0.61517  0.94950  1.0000
  C   C1488     1.0  0.88999  0.56304  0.82658  1.0000
  C   C1489     1.0  0.83601  0.98620  0.80051  1.0000
  S   S504      1.0  0.77055  0.94363  0.78468  1.0000
  H   H1483     1.0  0.82246  0.00420  0.55601  1.0000
  C   C1490     1.0  0.88966  0.60045  0.84274  1.0000
  C   C1491     1.0  0.88936  0.59335  0.86951  1.0000
  H   H1484     1.0  0.88971  0.61772  0.83875  1.0000
  H   H1485     1.0  0.88871  0.60516  0.88587  1.0000
  C   C1492     1.0  0.89023  0.58530  0.82126  1.0000
  H   H1486     1.0  0.89412  0.59586  0.56115  1.0000
  H   H1487     1.0  0.90029  0.60823  0.60832  1.0000
  C   C1493     1.0  0.00835  0.54038  0.50552  1.0000
  H   H1488     1.0  0.99203  0.59213  0.52632  1.0000
  C   C1494     1.0  0.81137  0.63429  0.92625  1.0000
  C   C1495     1.0  0.89866  0.59112  0.60407  1.0000
  Fe  Fe250     1.0  0.94273  0.54353  0.73270  1.0000
  Fe  Fe251     1.0  0.89743  0.52535  0.72944  1.0000
  C   C1496     1.0  0.76467  0.72169  0.74948  1.0000
  C   C1497     1.0  0.89253  0.56219  0.57159  1.0000
  C   C1498     1.0  0.84573  0.63719  0.79034  1.0000
  N   N126      1.0  0.81457  0.66375  0.78377  1.0000
  S   S505      1.0  0.89093  0.56156  0.90833  1.0000
  N   N127      1.0  0.80989  0.99888  0.76605  1.0000
  C   C1499     1.0  0.77315  0.94558  0.72971  1.0000
  C   C1500     1.0  0.94396  0.56423  0.87448  1.0000
  H   H1489     1.0  0.94497  0.59882  0.63493  1.0000
  H   H1490     1.0  0.82569  0.51972  0.79723  1.0000
  C   C1501     1.0  0.83402  0.64767  0.74526  1.0000
  H   H1491     1.0  0.86150  0.62384  0.75418  1.0000
  C   C1502     1.0  0.94384  0.56496  0.84624  1.0000
  C   C1503     1.0  0.95330  0.60152  0.87620  1.0000
  H   H1492     1.0  0.80558  0.97217  0.79195  1.0000
  C   C1504     1.0  0.83528  0.68209  0.88934  1.0000
  C   C1505     1.0  0.83227  0.69490  0.91289  1.0000
  C   C1506     1.0  0.84346  0.68832  0.93694  1.0000
  C   C1507     1.0  0.85742  0.66876  0.93773  1.0000
  C   C1508     1.0  0.86026  0.65592  0.91420  1.0000
  C   C1509     1.0  0.84938  0.66265  0.89009  1.0000
  H   H1493     1.0  0.82158  0.70999  0.91252  1.0000
  H   H1494     1.0  0.77524  0.94644  0.68643  1.0000
  H   H1495     1.0  0.87073  0.64073  0.91456  1.0000
  H   H1496     1.0  0.94856  0.58243  0.91131  1.0000
  C   C1510     1.0  0.94870  0.58266  0.88945  1.0000
  H   H1497     1.0  0.94616  0.60508  0.67056  1.0000
  H   H1498     1.0  0.79498  0.76639  0.55480  1.0000
  S   S506      1.0  0.97988  0.53603  0.73756  1.0000
  H   H1499     1.0  0.83605  0.64632  0.72351  1.0000
  Fe  Fe252     1.0  0.77472  0.76417  0.85218  1.0000
  H   H1500     1.0  0.96531  0.58036  0.79622  1.0000
  C   C1511     1.0  0.99428  0.55847  0.51374  1.0000
  H   H1501     1.0  0.79014  0.72249  0.71962  1.0000
  H   H1502     1.0  0.82522  0.67642  0.49545  1.0000
  C   C1512     1.0  0.81719  0.66211  0.75635  1.0000
  H   H1503     1.0  0.83432  0.61058  0.94596  1.0000
  Fe  Fe253     1.0  0.90668  0.56433  0.69525  1.0000
  H   H1504     1.0  0.79271  0.98581  0.73306  1.0000
  C   C1513     1.0  0.94819  0.58407  0.80372  1.0000
  N   N128      1.0  0.97162  0.58191  0.65642  1.0000
  S   S507      1.0  0.76874  0.72333  0.66792  1.0000
  C   C1514     1.0  0.99398  0.58321  0.65688  1.0000
  H   H1505     1.0  0.95631  0.61652  0.83771  1.0000
  C   C1515     1.0  0.79879  0.65439  0.92899  1.0000
  H   H1506     1.0  0.85691  0.62766  0.80386  1.0000
  H   H1507     1.0  0.79777  0.83607  0.56161  1.0000
  C   C1516     1.0  0.00854  0.56456  0.66141  1.0000
  Fe  Fe254     1.0  0.77577  0.90833  0.60274  1.0000
  H   H1508     1.0  0.77687  0.98974  0.76371  1.0000
  C   C1517     1.0  0.82025  0.51526  0.75431  1.0000
  C   C1518     1.0  0.81607  0.98473  0.78646  1.0000
  H   H1509     1.0  0.78975  0.68170  0.95535  1.0000
  H   H1510     1.0  0.77413  0.72302  0.93574  1.0000
  C   C1519     1.0  0.78892  0.82203  0.55623  1.0000
  S   S508      1.0  0.92778  0.57781  0.72774  1.0000
  C   C1520     1.0  0.96322  0.56236  0.66052  1.0000
  H   H1511     1.0  0.93975  0.54971  0.88473  1.0000
  H   H1512     1.0  0.84787  0.52350  0.52996  1.0000
  Fe  Fe255     1.0  0.94025  0.60834  0.95987  1.0000
  C   C1521     1.0  0.00323  0.57782  0.52148  1.0000
  C   C1522     1.0  0.82367  0.63769  0.97254  1.0000
  C   C1523     1.0  0.78729  0.78300  0.55275  1.0000
  C   C1524     1.0  0.99090  0.57787  0.72715  1.0000
  H   H1513     1.0  0.77692  0.74937  0.48362  1.0000
  H   H1514     1.0  0.80417  0.69539  0.79872  1.0000
  Fe  Fe256     1.0  0.90111  0.58502  0.94055  1.0000
  H   H1515     1.0  0.97350  0.58307  0.72793  1.0000
  H   H1516     1.0  0.00410  0.53784  0.94011  1.0000
  C   C1525     1.0  0.89524  0.58414  0.57729  1.0000
  S   S509      1.0  0.87940  0.55876  0.72377  1.0000
  C   C1526     1.0  0.88957  0.55595  0.85341  1.0000
  H   H1517     1.0  0.77597  0.72207  0.76643  1.0000
  C   C1527     1.0  0.00779  0.55473  0.93994  1.0000
  C   C1528     1.0  0.81545  0.51299  0.78167  1.0000
  H   H1518     1.0  0.86540  0.00331  0.80378  1.0000
  S   S510      1.0  0.92328  0.53022  0.69814  1.0000
  H   H1519     1.0  0.80627  0.67203  0.74291  1.0000
  C   C1529     1.0  0.89379  0.54719  0.59286  1.0000
  H   H1520     1.0  0.88999  0.55128  0.81011  1.0000
  C   C1530     1.0  0.00595  0.59309  0.72111  1.0000
  H   H1521     1.0  0.96505  0.61613  0.64787  1.0000
  C   C1531     1.0  0.84235  0.52161  0.57252  1.0000
  S   S511      1.0  0.87012  0.66018  0.96865  1.0000
  H   H1522     1.0  0.79774  0.92895  0.95412  1.0000
  H   H1523     1.0  0.00073  0.59878  0.65448  1.0000
  C   C1532     1.0  0.97730  0.54346  0.66548  1.0000
  H   H1524     1.0  0.78007  0.88559  0.69563  1.0000
  H   H1525     1.0  0.81683  0.00072  0.69436  1.0000
  H   H1526     1.0  0.97056  0.52814  0.66970  1.0000
  H   H1527     1.0  0.78484  0.82683  0.62277  1.0000
  H   H1528     1.0  0.81607  0.79825  0.56619  1.0000
  H   H1529     1.0  0.79799  0.68665  0.50700  1.0000
  C   C1533     1.0  0.79894  0.66578  0.95369  1.0000
  H   H1530     1.0  0.80799  0.65864  0.51229  1.0000
  H   H1531     1.0  0.01114  0.53021  0.67058  1.0000
  H   H1532     1.0  0.78544  0.78826  0.78572  1.0000
  H   H1533     1.0  0.00158  0.52563  0.49824  1.0000
  H   H1534     1.0  0.79143  0.67377  0.81471  1.0000
  C   C1534     1.0  0.77094  0.78470  0.77399  1.0000
  H   H1535     1.0  0.83452  0.51550  0.61393  1.0000
  H   H1536     1.0  0.85111  0.53582  0.57729  1.0000
  C   C1535     1.0  0.84040  0.51455  0.54567  1.0000
  S   S512      1.0  0.92045  0.56104  0.47451  1.0000
  C   C1536     1.0  0.76528  0.78662  0.54414  1.0000
