data_image0
_chemical_formula_structural       FeSCFeS2FeSFeS3FeSCFeS2FeSFeS3HCHCSH2C3HCSC2HCHNH3SNC3HCHC7H2CHC6H6C3SCH4C5FeH3SCH4C4H3CHC2H2CHC2HCH2CHCH3C2H3CHC2NC2HC2NH2CHC3H3NHCHNH2FeSHFeS2FeSFeS3FeSCFeS2FeSFeS3HC2H2SH2C2H4NCNCHCH3SHC3H2C7H4C6H5SC3HCH2CH2C5H3CNC6H2CH5CSCHCHC2HC2HC2HCH2CHC2NCH2NCHSHCHSHNC2HCH2CH5CH2SCH4FeHS2HSH4CSCHCSC2HSC2H2CHC3H4CHCH3C2H4CN2SH3CHCHCHCHFeCSCHCH2SH2CHC2SC2H2SCHFeHFeHCFeHC4S2HFe2SC3H2C3SC3H2CFeHCHCHC3SC2FeH2CFeCHCHCHCS2HSCFeSC2HSCH2SNSC2H2CHFeHCNHSHCH2CHFeHCFe2NHC7H3NCS2CHS3H3CH3CFeS2FeS2FeSFeS3HS2FeS2FeS2FeS2FeCFeS3Fe2S2FeCFeS2C6H4C2H2CH3C6H4C6H4C6H4SH2CSCHC2HC2HC2HCH2FeHCHCH2CNC2H2NH5Fe2C2H4C3HCHC3HSHCH2NCHC2HC3H3CH2NCNC2HCSNCHC2HCHC2H5CH6NC6H7C2H3C2H2CH2NCHCH2C2HCFeS2FeS2FeSCS2CFeS2FeS2FeHFeHS3CH3FeC3HC3H2C6H4C6H4C6H6CHCHC2HFeC4HSCH5CHC2SH2CH2CH2C2NHCHN2H2SC2H2C2HCH3C2HCFeSCFeS2FeSCS2NFeS2FeS2FeHFeCS3HCSCHCSH2C3H2C6HCH2C6H4C6H4CH2SH2NCH2CHC2H4CH2NHCHSCHCH2NCH2CNCHCHC2H5C2H2CHCHC4H2C7H2C3H2CFeS2FeS2FeSFeS3FeS2FeS2FeSFeS3FeS2FeSH2FeS3FeS2FeS2FeSFeS3HC6H4C2NHC2HCH2C2NHC2HCHC7H4C6H4C6H4C6H3CNC4H8CHC2HCHCH5NC3HNHC2H3C2HCH2C3H2C2H2CHCHCHCH2CHNC6HCH2NC2HCH2FeSHNH4CHCHCH8C3H2CH5CH2FeS2FeS2FeSFeS3FeS2FeS2FeSFeS3FeS2FeSCHFeS3FeS2FeS2FeSFeS3NC6H4C3HC2H4C2SCHCH2CHC6H4C6H4C6H4C6H4NCHC3H4CH3C2H3CH4CHCHCH2C3H3CHC2NC2HCHC2H5CHNC6H8CHCHNH2C3H4CNC5HC2HCH2FeHCH2CHFeCSFeS2HC2HSHFeS2FeS2FeSFeS3FeS2FeS2FeHFeCS5CHC4H3FeC3H3SH3C7H2C3HC4H2C5H3CHC6H4C6H7C3SCFeCH6C2H2FeNH2CHSNSNCSHCHCHCH4C2HC2HC2H7C2HCH3C4HN2FeC2HNHSC3HCHC7HC2HC3H2NCHCH9C2H2C2SH2CSFeS2CH2NSHFeS2FeS2FeSFeS3FeS2FeS2FeHFeCS2CS2CHC4H4C3H2CNC2HC2HC3H3C2H3C2H3SC4H4NC6H4C6H5CH2C2H5CHC2HC2H3NC3HCSH2C2H2CFeCSH2SC2H3Fe2C7SCH5CHCNC3H2CNCH4CHC2HCHCSNHC2HSNCH4C3HCHC2H2C2HC2H2SH2C3SFe2S2FeS2FeSFeS5HCHSHSFeSH2FeS2H3CHCHC5H3C6H4C6SNSHCHC4HFeH3C2H5CFeNC6H2CH6CH3CHCH4C2HNH3CHC2H2SHCFeS2FeS2FeSFeS3HSNSHSHSHSH2FeS2FeH8C4H2C6H4C8H2CHC4HCHFeHC2HCNH4C2SC2H4C2HCHCNC3H2C2FeH2CSH2FeC5H4CHFeS2FeS2FeSFeS3CSFeC2SFeSHFeSH2SFeSHS2HCH2CHNHC2H3C7H4C6H4C6H4C4HCHCHC3HNH2CHCH2FeH3C5SH2SCH4SC3HC3HFeC3HC3H5CH3CN2HC3NH2CH3CSC3H4NCSFeS2FeS2FeSFeS3HSFeHFeCFeSHFeSCHSFeSCS2CHCNCHC5HCHC6H4C6H4C6H4C6HSH3CH2C4HC3NSHCNC4SH2SH5NCHCHCH2CH2CHCHCH3SH10CNHCHCFeHC4H2CHC2NH2CH3SHFeSHFeSCS2CFeS2FeS2FeHFeS3FeSHFeS2FeHFeS5FeSCFeSFeS3C7H4C6H4C3H2CH4C7H2FeHC6H4C6H9C2HCH4NCHCHCHNCNC6H2C2NH3NCFeCH2C4HC2H2SHCH4CHNH2CH3C2HC2HC2HNC3H2CH3CH5CHNH2CH2S2FeCHCH2SCFeSHFeSNS2HFeS2FeS2FeHFeS3FeSNFeS2FeHFeS3CSFeSHFeSFeS3HC6H3FeC6H4C6H5C6H4C6H4C6H7C2HNHCHC2HCH6NH2CH3C4HC3HSC2HCSCH3C2H2SHC2HC2HSH2C2H3C2SH3NH2NCHC4SCH2FeCH3C2SHCH3FeC2FeS2FeS2FeHFeHS2FeS2FeS2FeSFeS5FeS2FeS2FeSFeS3C6H5C6H4C3H2CHSCHC2H4C2H2C6H4C5H3NC5H3CFeNC6H9C2H3C2SCHFeH3NC6H4C2H2NC2HCH4CNC6H4CH2NC5HC2H6CHCHS2HC2HC4FeS2FeS2FeHFeS3FeS2FeS2FeSFeS5FeS2FeS2FeSFeS3C6H5C6H4C2H2C2HCH3CH3FeC2H2C6H5C4H4C4H5C2HCH2CSNC7H2NH4C3H4C5H6C2NH2C2H2NC5HSHNC5H3C3H3FeHC2HCNHCHC2H2C3HCHSCH3CH2C3NH5C5HFeS2HSFeSHSCSHSCHFeS2HSHC3SHFeH2CHCH2C2NC4HNH2C7H3C6S2HNC2HCHCH2CFeCH5CHFeCHCH2SHCFeH2SHCNHCHCHCHFeHC3H2S2H2SFeSHSHSFeS3FeS2FeCHCHS2HCFeSH2CFeH2C4HCH3C2HC4HNH2C6H2CHC2HCHCH5CNCFeH2FeSHCH2C3H2C2HC2H7FeS2FeS2FeS2FeSFeS4FeSCFeS2FeSFeS3C6H4C6H4C6H4C6H4C6H5C5H3SCHNCHCHC2HCHNH2NHCH3CH2CH2NC6HCH4C3H2SNC3HCH3C2H2CHC2HCH3FeHCH3CHFeNC4H5NCHSCNHCHCH3CH3C2HC4HFeSH7SHFeHC2SFeS2FeS2FeSFeS4FeSHFeS2FeSFeS3C6H4C6H4C6H4C6H4C6H4C6H3CNC6H2CH7NH3C2NFeC3H3CH2SC2HCHSCH2CHCH3CSCH5CHNCNHNFeC2HC2HC3HCHCH5C4H3CHNHCHC2H2FeCHCHSH5C3H3NCHNFeS2H2FeCFeHNHFeSH3FeSFeSC2FeS2FeS2FeSFeS3FeS2FeS2FeSFeS3CHC6H2SC5HCH3C6H4C3HC2H4C6H4C5NH2SC3H5CHCNH4C2NCHCHCNCHCHC2HCH2S2CHNC6H8C2H5SCHSCH2CHCSHSHSH2CHCHCHC4HSH2CH4FeS2HCFeHFeS3FeSHCHFeSFeS2HFeS2FeS2FeSFeS3FeS2FeS2FeSFeS3H3C3NCH2C3HC5H2C6H4C2HC3SH3C6H4C6H4C2HCHCHCNC6H3SH3CH3CHCNHC4H2CHCHCHCHC6H3CH3C2H2CH2SH2C3H2CH4SC2SC3HNHCNH4CH2NH3CNHCSHC2
_chemical_formula_sum              "Fe288 S576 C1728 H1728 N144"
_cell_length_a       77.0515
_cell_length_b       77.2315
_cell_length_c       50.6013
_cell_angle_alpha    90.4219
_cell_angle_beta     91.5969
_cell_angle_gamma    112.779

_space_group_name_H-M_alt    "P 1"
_space_group_IT_number       1

loop_
  _space_group_symop_operation_xyz
  'x, y, z'

loop_
  _atom_site_type_symbol
  _atom_site_label
  _atom_site_symmetry_multiplicity
  _atom_site_fract_x
  _atom_site_fract_y
  _atom_site_fract_z
  _atom_site_occupancy
  Fe  Fe1       1.0  0.28426  0.17809  0.08244  1.0000
  S   S1        1.0  0.27253  0.14698  0.08690  1.0000
  C   C1        1.0  0.19679  0.20125  0.18972  1.0000
  Fe  Fe2       1.0  0.24712  0.18129  0.09612  1.0000
  S   S2        1.0  0.23234  0.15001  0.10146  1.0000
  S   S3        1.0  0.23712  0.20548  0.09729  1.0000
  Fe  Fe3       1.0  0.25917  0.15240  0.12358  1.0000
  S   S4        1.0  0.26368  0.13653  0.15929  1.0000
  Fe  Fe4       1.0  0.24716  0.14730  0.06452  1.0000
  S   S5        1.0  0.23403  0.12629  0.03065  1.0000
  S   S6        1.0  0.27299  0.18384  0.12048  1.0000
  S   S7        1.0  0.25974  0.17818  0.05774  1.0000
  Fe  Fe5       1.0  0.29022  0.12495  0.34105  1.0000
  S   S8        1.0  0.27266  0.14211  0.34195  1.0000
  C   C2        1.0  0.29275  0.14221  0.01996  1.0000
  Fe  Fe6       1.0  0.25552  0.08769  0.34810  1.0000
  S   S9        1.0  0.23582  0.10301  0.34867  1.0000
  S   S10       1.0  0.24831  0.05640  0.35691  1.0000
  Fe  Fe7       1.0  0.25257  0.11976  0.31479  1.0000
  S   S11       1.0  0.24073  0.13132  0.28035  1.0000
  Fe  Fe8       1.0  0.25792  0.12402  0.37563  1.0000
  S   S12       1.0  0.25089  0.13873  0.41058  1.0000
  S   S13       1.0  0.27081  0.10310  0.31230  1.0000
  S   S14       1.0  0.27694  0.10822  0.37676  1.0000
  H   H1        1.0  0.23128  0.18169  0.15086  1.0000
  C   C3        1.0  0.12440  0.24230  0.23549  1.0000
  H   H2        1.0  0.13518  0.23139  0.26839  1.0000
  C   C4        1.0  0.05891  0.23211  0.27376  1.0000
  S   S15       1.0  0.16358  0.21497  0.13658  1.0000
  H   H3        1.0  0.20667  0.11609  0.43421  1.0000
  H   H4        1.0  0.20637  0.10633  0.48104  1.0000
  C   C5        1.0  0.99175  0.21760  0.36637  1.0000
  C   C6        1.0  0.28893  0.16979  0.28063  1.0000
  C   C7        1.0  0.99130  0.19946  0.36246  1.0000
  H   H5        1.0  0.22521  0.23616  0.09479  1.0000
  C   C8        1.0  0.06406  0.22834  0.31946  1.0000
  S   S16       1.0  0.12561  0.23616  0.12557  1.0000
  C   C9        1.0  0.06898  0.22110  0.26706  1.0000
  C   C10       1.0  0.02633  0.23049  0.37206  1.0000
  H   H6        1.0  0.25149  0.20307  0.15562  1.0000
  C   C11       1.0  0.12703  0.23950  0.26253  1.0000
  H   H7        1.0  0.19856  0.14047  0.04837  1.0000
  N   N1        1.0  0.05664  0.23565  0.29972  1.0000
  H   H8        1.0  0.08071  0.21214  0.32919  1.0000
  H   H9        1.0  0.27516  0.16854  0.28707  1.0000
  H   H10       1.0  0.18338  0.19315  0.19833  1.0000
  S   S17       1.0  0.12232  0.24241  0.31560  1.0000
  N   N2        1.0  0.21887  0.07885  0.42555  1.0000
  C   C12       1.0  0.29284  0.15368  0.27751  1.0000
  C   C13       1.0  0.02588  0.21233  0.36824  1.0000
  C   C14       1.0  0.00852  0.19701  0.36332  1.0000
  H   H11       1.0  0.24035  0.07653  0.40223  1.0000
  C   C15       1.0  0.24245  0.13099  0.99815  1.0000
  H   H12       1.0  0.00841  0.18307  0.36051  1.0000
  C   C16       1.0  0.22493  0.06931  0.40478  1.0000
  C   C17       1.0  0.21551  0.20700  0.10536  1.0000
  C   C18       1.0  0.20065  0.19188  0.11569  1.0000
  C   C19       1.0  0.18450  0.19439  0.12419  1.0000
  C   C20       1.0  0.18302  0.21195  0.12238  1.0000
  C   C21       1.0  0.19762  0.22687  0.11122  1.0000
  C   C22       1.0  0.21379  0.22439  0.10280  1.0000
  H   H13       1.0  0.20177  0.17843  0.11784  1.0000
  H   H14       1.0  0.17323  0.18278  0.13278  1.0000
  C   C23       1.0  0.29497  0.16786  0.47012  1.0000
  H   H15       1.0  0.19665  0.24044  0.10971  1.0000
  C   C24       1.0  0.25727  0.13563  0.19289  1.0000
  C   C25       1.0  0.26302  0.12465  0.21040  1.0000
  C   C26       1.0  0.25809  0.12318  0.23716  1.0000
  C   C27       1.0  0.24738  0.13276  0.24679  1.0000
  C   C28       1.0  0.24167  0.14381  0.22931  1.0000
  C   C29       1.0  0.24661  0.14528  0.20251  1.0000
  H   H16       1.0  0.27111  0.11699  0.20310  1.0000
  H   H17       1.0  0.26227  0.11432  0.25015  1.0000
  H   H18       1.0  0.23327  0.15116  0.23654  1.0000
  H   H19       1.0  0.24198  0.15364  0.18922  1.0000
  H   H20       1.0  0.24450  0.01895  0.37007  1.0000
  H   H21       1.0  0.30013  0.19997  0.27837  1.0000
  C   C30       1.0  0.25682  0.12006  0.45460  1.0000
  C   C31       1.0  0.25229  0.13476  0.44487  1.0000
  C   C32       1.0  0.24789  0.14632  0.46282  1.0000
  S   S18       1.0  0.31298  0.19560  0.06755  1.0000
  C   C33       1.0  0.21445  0.09391  0.41939  1.0000
  H   H22       1.0  0.26019  0.11104  0.44098  1.0000
  H   H23       1.0  0.24433  0.15771  0.45548  1.0000
  H   H24       1.0  0.20583  0.17821  0.18857  1.0000
  H   H25       1.0  0.20783  0.17268  0.06773  1.0000
  C   C34       1.0  0.20116  0.21996  0.18324  1.0000
  C   C35       1.0  0.19478  0.01543  0.34813  1.0000
  C   C36       1.0  0.21014  0.03306  0.34819  1.0000
  C   C37       1.0  0.22824  0.03452  0.35607  1.0000
  C   C38       1.0  0.23062  0.01808  0.36394  1.0000
  Fe  Fe9       1.0  0.15613  0.24088  0.13473  1.0000
  H   H26       1.0  0.18091  0.01454  0.34190  1.0000
  H   H27       1.0  0.20798  0.04545  0.34193  1.0000
  H   H28       1.0  0.13039  0.23625  0.22071  1.0000
  S   S19       1.0  0.09387  0.23644  0.38202  1.0000
  C   C39       1.0  0.25572  0.14859  0.99159  1.0000
  H   H29       1.0  0.21524  0.09877  0.39923  1.0000
  H   H30       1.0  0.07137  0.21887  0.24649  1.0000
  H   H31       1.0  0.29138  0.19416  0.47237  1.0000
  H   H32       1.0  0.27335  0.11809  0.03984  1.0000
  C   C40       1.0  0.25638  0.11669  0.48199  1.0000
  C   C41       1.0  0.21413  0.08307  0.47155  1.0000
  C   C42       1.0  0.20939  0.09831  0.46539  1.0000
  C   C43       1.0  0.29351  0.18312  0.48340  1.0000
  H   H33       1.0  0.06234  0.23126  0.34000  1.0000
  H   H34       1.0  0.28200  0.14016  0.28173  1.0000
  H   H35       1.0  0.03883  0.21000  0.36935  1.0000
  C   C44       1.0  0.21976  0.18630  0.03177  1.0000
  H   H36       1.0  0.24318  0.22901  0.15527  1.0000
  C   C45       1.0  0.20948  0.19288  0.18398  1.0000
  C   C46       1.0  0.20911  0.15050  0.00997  1.0000
  H   H37       1.0  0.19106  0.22637  0.18648  1.0000
  H   H38       1.0  0.22179  0.05437  0.40946  1.0000
  C   C47       1.0  0.29739  0.15358  0.48473  1.0000
  H   H39       1.0  0.26110  0.15963  0.00650  1.0000
  C   C48       1.0  0.22356  0.18358  0.00551  1.0000
  C   C49       1.0  0.00913  0.23296  0.37101  1.0000
  H   H40       1.0  0.24296  0.18780  0.18319  1.0000
  C   C50       1.0  0.07675  0.21377  0.28712  1.0000
  H   H41       1.0  0.30489  0.12645  0.27851  1.0000
  H   H42       1.0  0.23081  0.19576  0.99366  1.0000
  C   C51       1.0  0.20529  0.15271  0.03636  1.0000
  H   H43       1.0  0.29829  0.14167  0.47428  1.0000
  C   C52       1.0  0.12049  0.23963  0.99902  1.0000
  H   H44       1.0  0.11932  0.22549  0.99459  1.0000
  H   H45       1.0  0.03295  0.23843  0.31666  1.0000
  H   H46       1.0  0.31047  0.13294  0.24459  1.0000
  C   C53       1.0  0.21526  0.00045  0.36384  1.0000
  C   C54       1.0  0.27616  0.11188  0.99894  1.0000
  H   H47       1.0  0.22304  0.06193  0.45626  1.0000
  H   H48       1.0  0.21760  0.06921  0.38551  1.0000
  H   H49       1.0  0.08528  0.20588  0.28228  1.0000
  C   C55       1.0  0.21894  0.07348  0.45127  1.0000
  H   H50       1.0  0.29375  0.16683  0.44868  1.0000
  C   C56       1.0  0.31369  0.13784  0.26552  1.0000
  C   C57       1.0  0.20949  0.10375  0.43914  1.0000
  N   N3        1.0  0.30078  0.14927  0.99656  1.0000
  C   C58       1.0  0.07426  0.21735  0.31349  1.0000
  C   C59       1.0  0.21812  0.23010  0.17130  1.0000
  H   H51       1.0  0.05324  0.23804  0.25802  1.0000
  C   C60       1.0  0.21059  0.17074  0.04724  1.0000
  C   C61       1.0  0.28025  0.12345  0.02149  1.0000
  N   N4        1.0  0.22600  0.20286  0.17199  1.0000
  H   H52       1.0  0.29565  0.15120  0.03744  1.0000
  H   H53       1.0  0.22413  0.20037  0.04029  1.0000
  C   C62       1.0  0.23858  0.19342  0.16518  1.0000
  H   H54       1.0  0.12595  0.23779  0.04094  1.0000
  C   C63       1.0  0.23044  0.22127  0.16569  1.0000
  C   C64       1.0  0.19718  0.99896  0.35589  1.0000
  C   C65       1.0  0.31393  0.16893  0.99552  1.0000
  H   H55       1.0  0.20509  0.13639  0.00181  1.0000
  H   H56       1.0  0.30968  0.17795  0.00900  1.0000
  H   H57       1.0  0.31206  0.17133  0.34161  1.0000
  N   N5        1.0  0.31009  0.15496  0.26950  1.0000
  H   H58       1.0  0.26608  0.09746  0.99969  1.0000
  C   C66       1.0  0.30285  0.18732  0.27556  1.0000
  H   H59       1.0  0.09593  0.24352  0.47562  1.0000
  N   N6        1.0  0.21836  0.16583  0.99501  1.0000
  H   H60       1.0  0.08323  0.24400  0.02043  1.0000
  H   H61       1.0  0.31557  0.16003  0.08217  1.0000
  Fe  Fe10      1.0  0.28242  0.17981  0.59100  1.0000
  S   S20       1.0  0.27574  0.14935  0.59642  1.0000
  H   H62       1.0  0.30326  0.14352  0.95576  1.0000
  Fe  Fe11      1.0  0.24087  0.17413  0.59280  1.0000
  S   S21       1.0  0.23148  0.14270  0.59821  1.0000
  S   S22       1.0  0.22159  0.18937  0.58148  1.0000
  Fe  Fe12      1.0  0.25613  0.15078  0.62776  1.0000
  S   S23       1.0  0.26144  0.13655  0.66494  1.0000
  Fe  Fe13      1.0  0.25216  0.14415  0.56661  1.0000
  S   S24       1.0  0.25046  0.12286  0.53396  1.0000
  S   S25       1.0  0.26438  0.18208  0.62400  1.0000
  S   S26       1.0  0.25991  0.17470  0.55947  1.0000
  Fe  Fe14      1.0  0.29003  0.12687  0.83360  1.0000
  S   S27       1.0  0.27218  0.14319  0.84075  1.0000
  C   C67       1.0  0.29709  0.13794  0.97444  1.0000
  Fe  Fe15      1.0  0.25715  0.08894  0.84592  1.0000
  S   S28       1.0  0.23737  0.10357  0.85358  1.0000
  S   S29       1.0  0.25035  0.05714  0.84305  1.0000
  Fe  Fe16      1.0  0.24974  0.12031  0.81725  1.0000
  S   S30       1.0  0.23352  0.12743  0.78359  1.0000
  Fe  Fe17      1.0  0.26213  0.12512  0.87647  1.0000
  S   S31       1.0  0.26489  0.14288  0.91403  1.0000
  S   S32       1.0  0.26794  0.10462  0.80845  1.0000
  S   S33       1.0  0.28145  0.10978  0.87048  1.0000
  H   H63       1.0  0.14321  0.20322  0.62642  1.0000
  C   C68       1.0  0.07102  0.23437  0.98140  1.0000
  C   C69       1.0  0.03127  0.20427  0.80143  1.0000
  H   H64       1.0  0.15565  0.19284  0.53358  1.0000
  H   H65       1.0  0.22097  0.14883  0.96287  1.0000
  S   S34       1.0  0.31200  0.20026  0.58296  1.0000
  H   H66       1.0  0.04496  0.21210  0.94222  1.0000
  H   H67       1.0  0.16223  0.18488  0.61592  1.0000
  C   C70       1.0  0.15631  0.19030  0.59983  1.0000
  C   C71       1.0  0.02494  0.23127  0.81165  1.0000
  H   H68       1.0  0.12069  0.22748  0.76474  1.0000
  H   H69       1.0  0.17767  0.17318  0.58576  1.0000
  H   H70       1.0  0.30400  0.17086  0.67949  1.0000
  H   H71       1.0  0.20941  0.08190  0.80816  1.0000
  N   N7        1.0  0.29237  0.16816  0.75352  1.0000
  C   C72       1.0  0.14181  0.20529  0.55935  1.0000
  N   N8        1.0  0.15987  0.18760  0.57410  1.0000
  C   C73       1.0  0.14553  0.20070  0.60593  1.0000
  H   H72       1.0  0.16181  0.16299  0.55788  1.0000
  C   C74       1.0  0.23560  0.11683  0.97841  1.0000
  H   H73       1.0  0.99456  0.18755  0.81161  1.0000
  H   H74       1.0  0.29193  0.15620  0.79142  1.0000
  H   H75       1.0  0.27810  0.17955  0.69464  1.0000
  S   S35       1.0  0.11054  0.24093  0.81257  1.0000
  H   H76       1.0  0.29710  0.16985  0.54627  1.0000
  C   C75       1.0  0.02384  0.21840  0.87305  1.0000
  C   C76       1.0  0.00721  0.20225  0.86838  1.0000
  C   C77       1.0  0.15279  0.19495  0.55397  1.0000
  H   H77       1.0  0.03739  0.21724  0.87344  1.0000
  H   H78       1.0  0.00816  0.18875  0.86538  1.0000
  C   C78       1.0  0.30709  0.16389  0.74552  1.0000
  C   C79       1.0  0.21289  0.20264  0.60215  1.0000
  C   C80       1.0  0.20617  0.21543  0.59046  1.0000
  C   C81       1.0  0.19695  0.22453  0.60550  1.0000
  C   C82       1.0  0.19424  0.22079  0.63240  1.0000
  C   C83       1.0  0.20132  0.20833  0.64421  1.0000
  C   C84       1.0  0.21064  0.19931  0.62920  1.0000
  H   H79       1.0  0.20788  0.21812  0.56955  1.0000
  H   H80       1.0  0.13616  0.21112  0.54341  1.0000
  H   H81       1.0  0.19929  0.20536  0.66502  1.0000
  H   H82       1.0  0.21560  0.18940  0.63840  1.0000
  C   C85       1.0  0.25347  0.13468  0.69777  1.0000
  C   C86       1.0  0.26267  0.12810  0.71723  1.0000
  C   C87       1.0  0.25713  0.12647  0.74367  1.0000
  C   C88       1.0  0.24189  0.13083  0.75089  1.0000
  C   C89       1.0  0.23266  0.13742  0.73146  1.0000
  C   C90       1.0  0.23853  0.13953  0.70506  1.0000
  H   H83       1.0  0.27431  0.12440  0.71183  1.0000
  H   H84       1.0  0.26444  0.12144  0.75829  1.0000
  H   H85       1.0  0.22085  0.14086  0.73682  1.0000
  H   H86       1.0  0.23131  0.14462  0.69031  1.0000
  H   H87       1.0  0.24552  0.01852  0.83621  1.0000
  S   S36       1.0  0.08508  0.23855  0.87937  1.0000
  C   C91       1.0  0.24224  0.12012  0.95245  1.0000
  C   C92       1.0  0.25560  0.13773  0.94598  1.0000
  C   C93       1.0  0.26214  0.15196  0.96563  1.0000
  H   H88       1.0  0.28125  0.11038  0.95743  1.0000
  C   C94       1.0  0.17093  0.17644  0.56777  1.0000
  H   H89       1.0  0.23704  0.10907  0.93749  1.0000
  H   H90       1.0  0.27245  0.16563  0.96078  1.0000
  C   C95       1.0  0.13816  0.20813  0.58552  1.0000
  H   H91       1.0  0.22421  0.09280  0.71877  1.0000
  H   H92       1.0  0.05349  0.23069  0.91878  1.0000
  C   C96       1.0  0.20038  0.01786  0.86842  1.0000
  C   C97       1.0  0.21493  0.03524  0.86259  1.0000
  C   C98       1.0  0.23137  0.03567  0.85098  1.0000
  C   C99       1.0  0.23290  0.01844  0.84515  1.0000
  C   C100      1.0  0.11954  0.24070  0.76037  1.0000
  H   H93       1.0  0.18782  0.01778  0.87753  1.0000
  H   H94       1.0  0.21347  0.04827  0.86734  1.0000
  H   H95       1.0  0.18259  0.18436  0.55463  1.0000
  C   C101      1.0  0.31159  0.16489  0.71881  1.0000
  N   N9        1.0  0.22236  0.07215  0.77798  1.0000
  C   C102      1.0  0.21818  0.08205  0.75823  1.0000
  C   C103      1.0  0.23520  0.06418  0.77424  1.0000
  C   C104      1.0  0.22722  0.08451  0.73413  1.0000
  C   C105      1.0  0.24476  0.06666  0.75056  1.0000
  C   C106      1.0  0.24076  0.07695  0.73043  1.0000
  C   C107      1.0  0.21232  0.06931  0.80278  1.0000
  H   H96       1.0  0.20814  0.08854  0.76125  1.0000
  H   H97       1.0  0.23833  0.05608  0.78974  1.0000
  C   C108      1.0  0.30043  0.13932  0.52698  1.0000
  H   H98       1.0  0.25529  0.06073  0.74801  1.0000
  H   H99       1.0  0.24824  0.07925  0.71208  1.0000
  H   H100      1.0  0.19885  0.05685  0.80082  1.0000
  H   H101      1.0  0.22084  0.06698  0.81944  1.0000
  H   H102      1.0  0.21468  0.07916  0.49202  1.0000
  C   C109      1.0  0.98841  0.22094  0.87098  1.0000
  S   S37       1.0  0.18093  0.23018  0.65162  1.0000
  C   C110      1.0  0.05068  0.21476  0.80429  1.0000
  H   H103      1.0  0.12798  0.24080  0.71985  1.0000
  C   C111      1.0  0.29458  0.18397  0.51098  1.0000
  H   H104      1.0  0.02631  0.18944  0.79625  1.0000
  C   C112      1.0  0.20196  0.00062  0.86273  1.0000
  C   C113      1.0  0.25178  0.12817  0.49989  1.0000
  H   H105      1.0  0.27063  0.17753  0.74210  1.0000
  C   C114      1.0  0.30113  0.17060  0.70041  1.0000
  C   C115      1.0  0.29669  0.16930  0.52489  1.0000
  H   H106      1.0  0.24419  0.15208  0.50373  1.0000
  C   C116      1.0  0.02287  0.23598  0.87665  1.0000
  C   C117      1.0  0.21835  0.00106  0.85095  1.0000
  H   H107      1.0  0.99455  0.19872  0.78022  1.0000
  C   C118      1.0  0.22210  0.16338  0.96725  1.0000
  H   H108      1.0  0.12967  0.21613  0.58993  1.0000
  H   H109      1.0  0.22527  0.10317  0.98327  1.0000
  C   C119      1.0  0.99845  0.20127  0.80159  1.0000
  H   H110      1.0  0.98977  0.20828  0.81054  1.0000
  C   C120      1.0  0.28235  0.17424  0.73574  1.0000
  C   C121      1.0  0.28466  0.11911  0.97526  1.0000
  N   N10       1.0  0.01869  0.21253  0.80526  1.0000
  C   C122      1.0  0.05735  0.22473  0.93689  1.0000
  H   H111      1.0  0.06916  0.22050  0.93198  1.0000
  H   H112      1.0  0.21190  0.16640  0.95406  1.0000
  N   N11       1.0  0.29787  0.15429  0.51179  1.0000
  C   C123      1.0  0.00505  0.23710  0.87576  1.0000
  H   H113      1.0  0.19161  0.23412  0.59618  1.0000
  S   S38       1.0  0.13465  0.23828  0.64222  1.0000
  H   H114      1.0  0.31197  0.17317  0.83695  1.0000
  C   C124      1.0  0.28657  0.17553  0.70893  1.0000
  H   H115      1.0  0.25944  0.10501  0.48933  1.0000
  S   S39       1.0  0.11153  0.24072  0.94618  1.0000
  H   H116      1.0  0.27218  0.16213  0.78374  1.0000
  N   N12       1.0  0.06306  0.23836  0.95897  1.0000
  C   C125      1.0  0.05716  0.23381  0.81103  1.0000
  C   C126      1.0  0.98938  0.20338  0.86716  1.0000
  H   H117      1.0  0.06072  0.20824  0.80138  1.0000
  C   C127      1.0  0.28765  0.16678  0.78146  1.0000
  H   H118      1.0  0.01501  0.23781  0.81514  1.0000
  H   H119      1.0  0.29500  0.18060  0.79165  1.0000
  C   C128      1.0  0.24780  0.14317  0.49020  1.0000
  H   H120      1.0  0.23667  0.17290  0.96251  1.0000
  H   H121      1.0  0.07380  0.22164  0.98239  1.0000
  H   H122      1.0  0.29357  0.19578  0.52169  1.0000
  H   H123      1.0  0.29246  0.13689  0.54553  1.0000
  H   H124      1.0  0.29484  0.12575  0.51576  1.0000
  C   C129      1.0  0.04424  0.24214  0.81484  1.0000
  H   H125      1.0  0.07217  0.24204  0.81339  1.0000
  H   H126      1.0  0.08955  0.23952  0.52361  1.0000
  S   S40       1.0  0.11305  0.24153  0.56961  1.0000
  C   C130      1.0  0.10369  0.24281  0.51698  1.0000
  H   H127      1.0  0.31423  0.17454  0.97530  1.0000
  H   H128      1.0  0.31527  0.16503  0.59688  1.0000
  H   H129      1.0  0.31522  0.15938  0.75978  1.0000
  H   H130      1.0  0.31561  0.14328  0.53218  1.0000
  Fe  Fe18      1.0  0.07970  0.25713  0.38032  1.0000
  H   H131      1.0  0.00646  0.48407  0.25384  1.0000
  S   S41       1.0  0.09902  0.27643  0.41230  1.0000
  S   S42       1.0  0.09749  0.27400  0.34747  1.0000
  H   H132      1.0  0.00922  0.24689  0.37395  1.0000
  S   S43       1.0  0.98506  0.47221  0.99618  1.0000
  H   H133      1.0  0.09706  0.26757  0.24111  1.0000
  H   H134      1.0  0.04230  0.25374  0.28928  1.0000
  H   H135      1.0  0.07862  0.27400  0.01760  1.0000
  H   H136      1.0  0.05466  0.25868  0.32079  1.0000
  C   C131      1.0  0.07388  0.26386  0.00130  1.0000
  S   S44       1.0  0.04786  0.25068  0.37710  1.0000
  C   C132      1.0  0.04610  0.24718  0.30676  1.0000
  H   H137      1.0  0.00578  0.49149  0.43300  1.0000
  C   C133      1.0  0.07640  0.24697  0.00296  1.0000
  S   S45       1.0  0.22089  0.44301  0.48306  1.0000
  C   C134      1.0  0.19471  0.39101  0.47482  1.0000
  C   C135      1.0  0.15908  0.49262  0.16218  1.0000
  H   H138      1.0  0.25563  0.48846  0.25015  1.0000
  S   S46       1.0  0.13076  0.25150  0.44693  1.0000
  C   C136      1.0  0.12428  0.24658  0.02533  1.0000
  C   C137      1.0  0.11905  0.24693  0.28197  1.0000
  H   H139      1.0  0.18895  0.48101  0.24718  1.0000
  H   H140      1.0  0.25263  0.48201  0.29735  1.0000
  C   C138      1.0  0.15733  0.30033  0.47828  1.0000
  H   H141      1.0  0.20615  0.48372  0.29016  1.0000
  C   C139      1.0  0.15711  0.33552  0.38875  1.0000
  C   C140      1.0  0.26714  0.39408  0.33337  1.0000
  C   C141      1.0  0.24112  0.48729  0.24966  1.0000
  H   H142      1.0  0.23256  0.48166  0.31424  1.0000
  H   H143      1.0  0.10242  0.26328  0.28893  1.0000
  H   H144      1.0  0.26222  0.44438  0.27718  1.0000
  H   H145      1.0  0.31103  0.47892  0.43833  1.0000
  C   C142      1.0  0.21346  0.48442  0.27193  1.0000
  H   H146      1.0  0.11013  0.28910  0.47694  1.0000
  C   C143      1.0  0.28628  0.40146  0.37370  1.0000
  H   H147      1.0  0.28605  0.47488  0.06954  1.0000
  H   H148      1.0  0.26492  0.39690  0.31283  1.0000
  H   H149      1.0  0.18095  0.37974  0.46895  1.0000
  C   C144      1.0  0.24220  0.48869  0.29812  1.0000
  C   C145      1.0  0.25316  0.37973  0.34639  1.0000
  H   H150      1.0  0.29482  0.41623  0.33721  1.0000
  H   H151      1.0  0.16897  0.30345  0.46507  1.0000
  H   H152      1.0  0.30160  0.45516  0.03647  1.0000
  H   H153      1.0  0.29923  0.41015  0.38427  1.0000
  C   C146      1.0  0.14418  0.31161  0.25783  1.0000
  N   N13       1.0  0.23193  0.48649  0.27265  1.0000
  N   N14       1.0  0.27221  0.38780  0.38655  1.0000
  S   S47       1.0  0.13412  0.27255  0.38038  1.0000
  H   H154      1.0  0.14695  0.47552  0.23353  1.0000
  H   H155      1.0  0.26124  0.46541  0.06094  1.0000
  H   H156      1.0  0.15880  0.35891  0.10667  1.0000
  C   C147      1.0  0.13930  0.29683  0.46794  1.0000
  H   H157      1.0  0.28177  0.37497  0.41745  1.0000
  C   C148      1.0  0.19468  0.35685  0.40682  1.0000
  H   H158      1.0  0.20563  0.38818  0.46370  1.0000
  C   C149      1.0  0.14308  0.49300  0.20275  1.0000
  H   H159      1.0  0.27299  0.44976  0.06577  1.0000
  C   C150      1.0  0.10556  0.25983  0.24706  1.0000
  H   H160      1.0  0.15363  0.28220  0.31354  1.0000
  Fe  Fe19      1.0  0.23661  0.43772  0.38776  1.0000
  C   C151      1.0  0.28389  0.40492  0.34701  1.0000
  S   S48       1.0  0.16811  0.26654  0.10948  1.0000
  C   C152      1.0  0.15306  0.29394  0.22410  1.0000
  H   H161      1.0  0.26084  0.37930  0.42454  1.0000
  C   C153      1.0  0.21348  0.44141  0.29917  1.0000
  H   H162      1.0  0.21153  0.35318  0.10470  1.0000
  H   H163      1.0  0.19518  0.31902  0.09562  1.0000
  S   S49       1.0  0.10839  0.25458  0.19380  1.0000
  H   H164      1.0  0.13643  0.32643  0.28890  1.0000
  H   H165      1.0  0.24000  0.37130  0.33610  1.0000
  C   C154      1.0  0.25603  0.37664  0.37309  1.0000
  H   H166      1.0  0.19470  0.40477  0.46856  1.0000
  C   C155      1.0  0.11339  0.25221  0.22762  1.0000
  C   C156      1.0  0.20364  0.48282  0.24771  1.0000
  S   S50       1.0  0.16313  0.37933  0.17247  1.0000
  C   C157      1.0  0.18716  0.32781  0.09733  1.0000
  C   C158      1.0  0.21780  0.44636  0.03021  1.0000
  H   H167      1.0  0.12151  0.44586  0.10877  1.0000
  H   H168      1.0  0.23899  0.48576  0.20704  1.0000
  S   S51       1.0  0.25168  0.41715  0.45042  1.0000
  C   C159      1.0  0.21287  0.48344  0.22417  1.0000
  H   H169      1.0  0.28323  0.39846  0.42512  1.0000
  Fe  Fe20      1.0  0.18559  0.40859  0.16980  1.0000
  H   H170      1.0  0.20540  0.48204  0.20520  1.0000
  Fe  Fe21      1.0  0.12865  0.25462  0.16173  1.0000
  H   H171      1.0  0.14578  0.46106  0.11669  1.0000
  C   C160      1.0  0.23516  0.42732  0.01884  1.0000
  Fe  Fe22      1.0  0.13783  0.26262  0.10184  1.0000
  H   H172      1.0  0.15460  0.28032  0.22143  1.0000
  C   C161      1.0  0.24846  0.44322  0.28325  1.0000
  C   C162      1.0  0.16614  0.47980  0.17286  1.0000
  C   C163      1.0  0.12539  0.24890  0.48090  1.0000
  C   C164      1.0  0.16687  0.35029  0.10375  1.0000
  S   S52       1.0  0.25600  0.45644  0.41993  1.0000
  S   S53       1.0  0.30164  0.44012  0.41863  1.0000
  H   H173      1.0  0.24382  0.41458  0.05178  1.0000
  Fe  Fe23      1.0  0.23217  0.40158  0.41657  1.0000
  Fe  Fe24      1.0  0.21700  0.43256  0.13432  1.0000
  S   S54       1.0  0.22363  0.44674  0.35199  1.0000
  C   C165      1.0  0.27466  0.38491  0.41479  1.0000
  C   C166      1.0  0.18668  0.33722  0.40952  1.0000
  C   C167      1.0  0.29902  0.46148  0.99565  1.0000
  H   H174      1.0  0.18739  0.38405  0.12262  1.0000
  H   H175      1.0  0.20962  0.35000  0.17018  1.0000
  C   C168      1.0  0.23173  0.48570  0.22513  1.0000
  C   C169      1.0  0.16799  0.32660  0.40059  1.0000
  C   C170      1.0  0.13240  0.41879  0.18805  1.0000
  S   S55       1.0  0.15808  0.25761  0.17225  1.0000
  C   C171      1.0  0.13144  0.45427  0.12472  1.0000
  C   C172      1.0  0.19482  0.34765  0.16995  1.0000
  C   C173      1.0  0.23469  0.44245  0.26393  1.0000
  H   H176      1.0  0.12715  0.46580  0.13110  1.0000
  H   H177      1.0  0.25811  0.47467  0.01767  1.0000
  C   C174      1.0  0.16509  0.35515  0.38622  1.0000
  Fe  Fe25      1.0  0.21981  0.43911  0.19548  1.0000
  H   H178      1.0  0.21289  0.44837  0.07186  1.0000
  C   C175      1.0  0.10855  0.25741  0.27416  1.0000
  H   H179      1.0  0.11687  0.45313  0.17256  1.0000
  C   C176      1.0  0.27474  0.46372  0.05787  1.0000
  H   H180      1.0  0.11736  0.43256  0.20949  1.0000
  C   C177      1.0  0.18942  0.36295  0.17293  1.0000
  C   C178      1.0  0.12339  0.44306  0.16993  1.0000
  C   C179      1.0  0.29391  0.46008  0.02213  1.0000
  S   S56       1.0  0.13365  0.32280  0.37655  1.0000
  C   C180      1.0  0.19629  0.34710  0.10269  1.0000
  C   C181      1.0  0.14479  0.30481  0.30431  1.0000
  Fe  Fe26      1.0  0.11808  0.29113  0.37951  1.0000
  H   H181      1.0  0.24497  0.36564  0.38315  1.0000
  H   H182      1.0  0.12397  0.28989  0.01537  1.0000
  C   C182      1.0  0.16174  0.47367  0.19867  1.0000
  Fe  Fe27      1.0  0.19221  0.44968  0.16199  1.0000
  C   C183      1.0  0.22844  0.43094  0.06517  1.0000
  H   H183      1.0  0.14195  0.33953  0.16917  1.0000
  C   C184      1.0  0.24479  0.44308  0.31042  1.0000
  H   H184      1.0  0.16209  0.31152  0.40263  1.0000
  C   C185      1.0  0.18374  0.36577  0.39521  1.0000
  H   H185      1.0  0.18967  0.38083  0.39285  1.0000
  C   C186      1.0  0.15674  0.34189  0.16947  1.0000
  S   S57       1.0  0.17956  0.47121  0.15264  1.0000
  S   S58       1.0  0.13753  0.28034  0.13705  1.0000
  H   H186      1.0  0.13287  0.40979  0.20420  1.0000
  S   S59       1.0  0.24090  0.44553  0.23027  1.0000
  C   C187      1.0  0.18121  0.32941  0.16621  1.0000
  Fe  Fe28      1.0  0.16675  0.28268  0.14615  1.0000
  S   S60       1.0  0.12831  0.27355  0.06449  1.0000
  C   C188      1.0  0.12311  0.27586  0.01088  1.0000
  C   C189      1.0  0.14133  0.31540  0.28413  1.0000
  H   H187      1.0  0.19908  0.38581  0.09164  1.0000
  S   S61       1.0  0.21839  0.36966  0.41795  1.0000
  C   C190      1.0  0.12367  0.43149  0.19097  1.0000
  H   H188      1.0  0.14203  0.32478  0.09690  1.0000
  H   H189      1.0  0.14746  0.40793  0.16180  1.0000
  S   S62       1.0  0.21629  0.41442  0.16915  1.0000
  N   N15       1.0  0.15024  0.29761  0.25183  1.0000
  S   S63       1.0  0.21584  0.41987  0.41669  1.0000
  C   C191      1.0  0.19596  0.37836  0.11072  1.0000
  C   C192      1.0  0.21895  0.44232  0.05720  1.0000
  H   H190      1.0  0.15881  0.27629  0.26691  1.0000
  H   H191      1.0  0.15682  0.36220  0.37711  1.0000
  C   C193      1.0  0.14065  0.41778  0.16423  1.0000
  H   H192      1.0  0.20002  0.44112  0.30526  1.0000
  Fe  Fe29      1.0  0.23633  0.43662  0.44883  1.0000
  H   H193      1.0  0.24158  0.42160  0.00426  1.0000
  C   C194      1.0  0.26978  0.47111  0.01176  1.0000
  N   N16       1.0  0.13179  0.44215  0.14675  1.0000
  H   H194      1.0  0.20946  0.38166  0.12209  1.0000
  S   S64       1.0  0.18876  0.43225  0.19838  1.0000
  H   H195      1.0  0.21073  0.45546  0.02430  1.0000
  C   C195      1.0  0.22741  0.44265  0.31851  1.0000
  H   H196      1.0  0.14705  0.42908  0.12539  1.0000
  H   H197      1.0  0.15149  0.31261  0.16524  1.0000
  C   C196      1.0  0.23640  0.42336  0.04582  1.0000
  H   H198      1.0  0.14146  0.31986  0.24219  1.0000
  Fe  Fe30      1.0  0.27034  0.43579  0.41962  1.0000
  H   H199      1.0  0.16590  0.30529  0.21679  1.0000
  C   C197      1.0  0.15404  0.28742  0.27156  1.0000
  Fe  Fe31      1.0  0.11247  0.25437  0.35070  1.0000
  Fe  Fe32      1.0  0.11426  0.25678  0.41183  1.0000
  N   N17       1.0  0.27942  0.46483  0.02986  1.0000
  H   H200      1.0  0.20008  0.37681  0.17585  1.0000
  C   C198      1.0  0.12542  0.26469  0.03145  1.0000
  C   C199      1.0  0.22596  0.43897  0.01089  1.0000
  C   C200      1.0  0.21699  0.44106  0.27202  1.0000
  C   C201      1.0  0.14025  0.42965  0.14368  1.0000
  C   C202      1.0  0.15730  0.33104  0.09829  1.0000
  C   C203      1.0  0.17037  0.36022  0.17193  1.0000
  C   C204      1.0  0.16215  0.32655  0.16682  1.0000
  H   H201      1.0  0.20628  0.44048  0.25739  1.0000
  H   H202      1.0  0.16029  0.30482  0.09097  1.0000
  H   H203      1.0  0.25572  0.44431  0.32507  1.0000
  N   N18       1.0  0.18613  0.35805  0.10597  1.0000
  C   C205      1.0  0.15035  0.48034  0.21358  1.0000
  S   S65       1.0  0.25188  0.41831  0.38571  1.0000
  S   S66       1.0  0.18858  0.31075  0.16018  1.0000
  C   C206      1.0  0.15122  0.29075  0.29803  1.0000
  H   H204      1.0  0.19501  0.33016  0.41839  1.0000
  S   S67       1.0  0.18588  0.42523  0.13352  1.0000
  S   S68       1.0  0.22370  0.45822  0.16059  1.0000
  S   S69       1.0  0.23226  0.42717  0.09904  1.0000
  H   H205      1.0  0.13688  0.29710  0.44672  1.0000
  H   H206      1.0  0.16685  0.46360  0.20695  1.0000
  H   H207      1.0  0.14246  0.30749  0.32479  1.0000
  C   C207      1.0  0.16755  0.31978  0.09502  1.0000
  H   H208      1.0  0.14068  0.29306  0.21147  1.0000
  H   H209      1.0  0.31043  0.45761  0.98936  1.0000
  H   H210      1.0  0.22130  0.24444  0.16532  1.0000
  C   C208      1.0  0.12429  0.29236  0.48493  1.0000
  Fe  Fe33      1.0  0.17742  0.44744  0.65891  1.0000
  S   S70       1.0  0.20785  0.45524  0.67242  1.0000
  S   S71       1.0  0.16320  0.46764  0.64835  1.0000
  Fe  Fe34      1.0  0.17209  0.40670  0.64678  1.0000
  S   S72       1.0  0.20159  0.41175  0.65947  1.0000
  S   S73       1.0  0.15207  0.37839  0.63125  1.0000
  Fe  Fe35      1.0  0.19690  0.42763  0.69417  1.0000
  S   S74       1.0  0.20299  0.41570  0.73310  1.0000
  Fe  Fe36      1.0  0.20949  0.43827  0.63661  1.0000
  S   S75       1.0  0.23352  0.44539  0.60800  1.0000
  S   S76       1.0  0.16643  0.42092  0.68246  1.0000
  S   S77       1.0  0.18010  0.43222  0.62202  1.0000
  H   H211      1.0  0.16900  0.39438  0.79293  1.0000
  S   S78       1.0  0.16588  0.26165  0.59770  1.0000
  S   S79       1.0  0.17167  0.27619  0.66001  1.0000
  Fe  Fe37      1.0  0.16802  0.28763  0.62050  1.0000
  S   S80       1.0  0.18594  0.31725  0.60850  1.0000
  S   S81       1.0  0.13705  0.27917  0.62393  1.0000
  Fe  Fe38      1.0  0.23401  0.40063  0.90958  1.0000
  S   S82       1.0  0.21836  0.41976  0.90783  1.0000
  S   S83       1.0  0.21999  0.36872  0.90530  1.0000
  Fe  Fe39      1.0  0.27274  0.43370  0.91931  1.0000
  S   S84       1.0  0.25926  0.45479  0.91755  1.0000
  S   S85       1.0  0.30338  0.43933  0.93213  1.0000
  Fe  Fe40      1.0  0.23694  0.43481  0.94290  1.0000
  C   C209      1.0  0.14852  0.29391  0.55070  1.0000
  Fe  Fe41      1.0  0.24201  0.43764  0.88259  1.0000
  S   S86       1.0  0.23658  0.45245  0.84627  1.0000
  S   S87       1.0  0.25109  0.41448  0.94638  1.0000
  S   S88       1.0  0.25697  0.41776  0.88260  1.0000
  Fe  Fe42      1.0  0.07462  0.26182  0.87983  1.0000
  Fe  Fe43      1.0  0.11539  0.29210  0.87981  1.0000
  S   S89       1.0  0.12815  0.27042  0.87975  1.0000
  S   S90       1.0  0.13263  0.32348  0.87571  1.0000
  Fe  Fe44      1.0  0.10536  0.25543  0.84910  1.0000
  C   C210      1.0  0.14343  0.48997  0.65689  1.0000
  Fe  Fe45      1.0  0.10665  0.25600  0.91016  1.0000
  S   S91       1.0  0.09357  0.27774  0.84749  1.0000
  S   S92       1.0  0.09518  0.27861  0.91219  1.0000
  C   C211      1.0  0.19553  0.35641  0.89784  1.0000
  C   C212      1.0  0.18756  0.33671  0.89963  1.0000
  C   C213      1.0  0.16827  0.32643  0.89346  1.0000
  C   C214      1.0  0.15679  0.33575  0.88503  1.0000
  C   C215      1.0  0.16477  0.35543  0.88315  1.0000
  C   C216      1.0  0.18400  0.36572  0.88963  1.0000
  H   H212      1.0  0.19630  0.32936  0.90609  1.0000
  H   H213      1.0  0.16232  0.31133  0.89531  1.0000
  H   H214      1.0  0.15596  0.36275  0.87686  1.0000
  H   H215      1.0  0.18990  0.38084  0.88820  1.0000
  C   C217      1.0  0.06502  0.47426  0.68176  1.0000
  C   C218      1.0  0.20532  0.39345  0.55793  1.0000
  H   H216      1.0  0.21702  0.48282  0.53500  1.0000
  H   H217      1.0  0.99787  0.48145  0.71868  1.0000
  C   C219      1.0  0.07008  0.47607  0.70872  1.0000
  H   H218      1.0  0.15491  0.30149  0.84584  1.0000
  H   H219      1.0  0.16104  0.24994  0.80264  1.0000
  H   H220      1.0  0.08906  0.48708  0.75450  1.0000
  C   C220      1.0  0.22936  0.44241  0.57329  1.0000
  C   C221      1.0  0.21181  0.43975  0.56172  1.0000
  C   C222      1.0  0.20944  0.43958  0.53405  1.0000
  C   C223      1.0  0.22445  0.44167  0.51756  1.0000
  C   C224      1.0  0.24187  0.44364  0.52902  1.0000
  C   C225      1.0  0.24433  0.44414  0.55680  1.0000
  H   H221      1.0  0.20019  0.43851  0.57403  1.0000
  H   H222      1.0  0.19592  0.43807  0.52536  1.0000
  H   H223      1.0  0.25359  0.44540  0.51652  1.0000
  H   H224      1.0  0.25800  0.44628  0.56555  1.0000
  C   C226      1.0  0.21392  0.42666  0.76360  1.0000
  C   C227      1.0  0.21919  0.44589  0.76864  1.0000
  C   C228      1.0  0.22659  0.45364  0.79385  1.0000
  C   C229      1.0  0.22877  0.44229  0.81428  1.0000
  C   C230      1.0  0.22375  0.42311  0.80912  1.0000
  C   C231      1.0  0.21641  0.41538  0.78391  1.0000
  H   H225      1.0  0.21738  0.45475  0.75325  1.0000
  H   H226      1.0  0.23049  0.46850  0.79761  1.0000
  H   H227      1.0  0.22530  0.41420  0.82463  1.0000
  H   H228      1.0  0.21238  0.40050  0.78024  1.0000
  C   C232      1.0  0.16169  0.36206  0.62184  1.0000
  C   C233      1.0  0.14960  0.34332  0.61723  1.0000
  C   C234      1.0  0.15690  0.32959  0.61235  1.0000
  C   C235      1.0  0.17636  0.33449  0.61199  1.0000
  C   C236      1.0  0.18845  0.35344  0.61501  1.0000
  C   C237      1.0  0.18113  0.36720  0.61998  1.0000
  H   H229      1.0  0.13452  0.33929  0.61817  1.0000
  H   H230      1.0  0.14738  0.31527  0.60897  1.0000
  H   H231      1.0  0.20352  0.35741  0.61422  1.0000
  H   H232      1.0  0.19054  0.38170  0.62264  1.0000
  S   S93       1.0  0.98733  0.47383  0.50944  1.0000
  H   H233      1.0  0.29435  0.39839  0.93127  1.0000
  H   H234      1.0  0.24988  0.36148  0.88116  1.0000
  C   C238      1.0  0.18384  0.38831  0.52029  1.0000
  S   S94       1.0  0.04341  0.25702  0.88139  1.0000
  C   C239      1.0  0.19070  0.47839  0.58910  1.0000
  H   H235      1.0  0.09879  0.45988  0.66016  1.0000
  C   C240      1.0  0.22004  0.39686  0.54066  1.0000
  C   C241      1.0  0.11797  0.25074  0.97851  1.0000
  H   H236      1.0  0.11571  0.28741  0.52514  1.0000
  C   C242      1.0  0.12241  0.26536  0.72906  1.0000
  C   C243      1.0  0.13641  0.24879  0.52678  1.0000
  H   H237      1.0  0.29693  0.40518  0.84729  1.0000
  C   C244      1.0  0.17761  0.42399  0.80094  1.0000
  C   C245      1.0  0.09006  0.47414  0.74618  1.0000
  H   H238      1.0  0.26644  0.47716  0.97082  1.0000
  C   C246      1.0  0.28832  0.39351  0.91163  1.0000
  H   H239      1.0  0.15877  0.30763  0.67253  1.0000
  H   H240      1.0  0.23435  0.40076  0.54841  1.0000
  Fe  Fe46      1.0  0.14026  0.26614  0.66241  1.0000
  H   H241      1.0  0.16969  0.38530  0.51249  1.0000
  C   C247      1.0  0.11671  0.27475  0.74884  1.0000
  H   H242      1.0  0.11761  0.27771  0.96900  1.0000
  C   C248      1.0  0.06013  0.25471  0.95737  1.0000
  H   H243      1.0  0.15535  0.31751  0.82051  1.0000
  H   H244      1.0  0.18790  0.45270  0.81456  1.0000
  C   C249      1.0  0.16475  0.26913  0.77054  1.0000
  N   N19       1.0  0.19833  0.39142  0.50349  1.0000
  C   C250      1.0  0.29782  0.40315  0.88969  1.0000
  C   C251      1.0  0.28924  0.46784  0.97711  1.0000
  H   H245      1.0  0.16008  0.28903  0.55512  1.0000
  H   H246      1.0  0.17309  0.38696  0.83998  1.0000
  N   N20       1.0  0.27151  0.37850  0.90842  1.0000
  H   H247      1.0  0.08063  0.46168  0.75679  1.0000
  H   H248      1.0  0.00408  0.25060  0.87852  1.0000
  H   H249      1.0  0.02247  0.49176  0.97809  1.0000
  H   H250      1.0  0.13405  0.29716  0.82542  1.0000
  H   H251      1.0  0.18445  0.41261  0.87361  1.0000
  Fe  Fe47      1.0  0.16617  0.24910  0.63768  1.0000
  Fe  Fe48      1.0  0.13486  0.25262  0.60334  1.0000
  C   C252      1.0  0.17362  0.40545  0.80798  1.0000
  C   C253      1.0  0.19378  0.44925  0.86611  1.0000
  H   H252      1.0  0.06212  0.48090  0.72221  1.0000
  H   H253      1.0  0.22791  0.39917  0.50006  1.0000
  H   H254      1.0  0.17415  0.30189  0.51348  1.0000
  H   H255      1.0  0.10858  0.27483  0.78944  1.0000
  C   C254      1.0  0.24682  0.48933  0.56765  1.0000
  C   C255      1.0  0.26162  0.36898  0.93181  1.0000
  C   C256      1.0  0.15631  0.27463  0.81447  1.0000
  H   H256      1.0  0.14772  0.25017  0.54083  1.0000
  C   C257      1.0  0.11430  0.25033  0.78033  1.0000
  H   H257      1.0  0.13578  0.28385  0.56021  1.0000
  C   C258      1.0  0.16011  0.29928  0.50560  1.0000
  C   C259      1.0  0.12754  0.29135  0.51214  1.0000
  C   C260      1.0  0.07539  0.46845  0.66413  1.0000
  H   H258      1.0  0.20326  0.46266  0.85739  1.0000
  S   S95       1.0  0.12855  0.27612  0.69792  1.0000
  H   H259      1.0  0.20813  0.39458  0.57916  1.0000
  C   C261      1.0  0.26353  0.37298  0.88368  1.0000
  H   H260      1.0  0.20141  0.48093  0.62931  1.0000
  H   H261      1.0  0.98445  0.48321  0.90470  1.0000
  N   N21       1.0  0.15548  0.29123  0.80669  1.0000
  C   C262      1.0  0.15882  0.29684  0.78108  1.0000
  H   H262      1.0  0.15272  0.26967  0.83437  1.0000
  C   C263      1.0  0.16359  0.28593  0.76266  1.0000
  C   C264      1.0  0.09041  0.46417  0.67366  1.0000
  H   H263      1.0  0.24728  0.48305  0.54795  1.0000
  C   C265      1.0  0.06565  0.26778  0.97840  1.0000
  C   C266      1.0  0.14966  0.30237  0.82543  1.0000
  C   C267      1.0  0.21630  0.39591  0.51334  1.0000
  H   H264      1.0  0.16553  0.29001  0.74212  1.0000
  H   H265      1.0  0.31100  0.41528  0.89244  1.0000
  H   H266      1.0  0.05335  0.47772  0.67464  1.0000
  C   C268      1.0  0.18708  0.38914  0.54775  1.0000
  H   H267      1.0  0.13095  0.31570  0.67774  1.0000
  H   H268      1.0  0.14691  0.48871  0.73319  1.0000
  N   N22       1.0  0.18698  0.43414  0.84601  1.0000
  C   C269      1.0  0.18264  0.41593  0.85320  1.0000
  N   N23       1.0  0.08503  0.47216  0.71783  1.0000
  C   C270      1.0  0.17606  0.40133  0.83429  1.0000
  C   C271      1.0  0.15289  0.47955  0.66885  1.0000
  H   H269      1.0  0.17560  0.38673  0.56112  1.0000
  C   C272      1.0  0.18428  0.43825  0.82034  1.0000
  S   S96       1.0  0.22560  0.44587  0.97752  1.0000
  N   N24       1.0  0.14526  0.29462  0.52209  1.0000
  C   C273      1.0  0.28989  0.39752  0.86439  1.0000
  H   H270      1.0  0.11554  0.28795  0.74446  1.0000
  C   C274      1.0  0.27261  0.38235  0.86130  1.0000
  C   C275      1.0  0.14586  0.48905  0.71185  1.0000
  H   H271      1.0  0.05377  0.25788  0.93959  1.0000
  C   C276      1.0  0.11275  0.26734  0.77438  1.0000
  H   H272      1.0  0.27162  0.36722  0.94675  1.0000
  C   C277      1.0  0.12369  0.24822  0.73490  1.0000
  C   C278      1.0  0.15397  0.47905  0.69644  1.0000
  H   H273      1.0  0.15237  0.30807  0.55990  1.0000
  H   H274      1.0  0.26607  0.37812  0.84178  1.0000
  H   H275      1.0  0.10672  0.46272  0.70796  1.0000
  H   H276      1.0  0.17623  0.42738  0.78040  1.0000
  H   H277      1.0  0.15727  0.30952  0.77456  1.0000
  C   C279      1.0  0.16104  0.26339  0.79658  1.0000
  H   H278      1.0  0.25424  0.37729  0.94074  1.0000
  H   H279      1.0  0.18174  0.45127  0.87517  1.0000
  H   H280      1.0  0.25080  0.35481  0.92666  1.0000
  H   H281      1.0  0.17635  0.47550  0.59473  1.0000
  H   H282      1.0  0.20242  0.44606  0.88182  1.0000
  H   H283      1.0  0.10495  0.47584  0.74981  1.0000
  N   N25       1.0  0.18116  0.35425  0.68541  1.0000
  C   C280      1.0  0.16587  0.35899  0.68757  1.0000
  C   C281      1.0  0.17876  0.33610  0.67968  1.0000
  C   C282      1.0  0.14758  0.34523  0.68499  1.0000
  C   C283      1.0  0.16068  0.32198  0.67726  1.0000
  C   C284      1.0  0.14502  0.32657  0.68007  1.0000
  C   C285      1.0  0.20023  0.36884  0.68777  1.0000
  H   H284      1.0  0.16774  0.37355  0.69064  1.0000
  H   H285      1.0  0.19081  0.33247  0.67642  1.0000
  H   H286      1.0  0.13552  0.34914  0.68595  1.0000
  H   H287      1.0  0.20532  0.37388  0.66784  1.0000
  H   H288      1.0  0.20060  0.38103  0.70003  1.0000
  H   H289      1.0  0.21013  0.36335  0.69745  1.0000
  H   H290      1.0  0.16126  0.47115  0.70590  1.0000
  C   C286      1.0  0.13989  0.25066  0.49955  1.0000
  C   C287      1.0  0.09489  0.46587  0.70078  1.0000
  H   H291      1.0  0.16775  0.26021  0.75621  1.0000
  H   H292      1.0  0.29307  0.46895  0.95652  1.0000
  H   H293      1.0  0.04910  0.25684  0.82077  1.0000
  C   C288      1.0  0.19514  0.47896  0.56249  1.0000
  C   C289      1.0  0.21370  0.48258  0.55574  1.0000
  H   H294      1.0  0.18425  0.47649  0.54720  1.0000
  H   H295      1.0  0.25390  0.48314  0.58202  1.0000
  C   C290      1.0  0.11953  0.26900  0.98453  1.0000
  H   H296      1.0  0.23389  0.48656  0.61645  1.0000
  H   H297      1.0  0.07188  0.46737  0.64311  1.0000
  N   N26       1.0  0.22736  0.48518  0.57501  1.0000
  C   C291      1.0  0.22313  0.48473  0.60115  1.0000
  H   H298      1.0  0.31325  0.47657  0.90827  1.0000
  C   C292      1.0  0.20478  0.48139  0.60857  1.0000
  H   H299      1.0  0.15394  0.25353  0.49284  1.0000
  H   H300      1.0  0.14257  0.49049  0.63556  1.0000
  C   C293      1.0  0.27446  0.47261  0.98514  1.0000
  C   C294      1.0  0.10726  0.24507  0.48976  1.0000
  H   H301      1.0  0.06375  0.28094  0.97678  1.0000
  C   C295      1.0  0.11824  0.24473  0.53562  1.0000
  Fe  Fe49      1.0  0.06045  0.57348  0.46584  1.0000
  S   S97       1.0  0.07775  0.55641  0.46057  1.0000
  S   S98       1.0  0.02965  0.55956  0.47723  1.0000
  Fe  Fe50      1.0  0.09458  0.61068  0.45534  1.0000
  S   S99       1.0  0.11399  0.59534  0.44965  1.0000
  S   S100      1.0  0.10239  0.64271  0.45744  1.0000
  Fe  Fe51      1.0  0.08971  0.57435  0.42538  1.0000
  S   S101      1.0  0.08957  0.55583  0.38983  1.0000
  C   C296      1.0  0.13969  0.55145  0.31754  1.0000
  S   S102      1.0  0.11564  0.56629  0.02131  1.0000
  S   S103      1.0  0.07089  0.59041  0.42920  1.0000
  C   C297      1.0  0.14789  0.56519  0.29875  1.0000
  Fe  Fe52      1.0  0.09668  0.54264  0.17746  1.0000
  S   S104      1.0  0.08676  0.51118  0.18211  1.0000
  S   S105      1.0  0.09171  0.55823  0.14169  1.0000
  Fe  Fe53      1.0  0.10393  0.55034  0.23772  1.0000
  S   S106      1.0  0.09469  0.51985  0.24606  1.0000
  S   S107      1.0  0.11197  0.57322  0.26976  1.0000
  Fe  Fe54      1.0  0.11153  0.51819  0.21111  1.0000
  H   H302      1.0  0.16409  0.56967  0.23697  1.0000
  Fe  Fe55      1.0  0.07107  0.51552  0.21668  1.0000
  H   H303      1.0  0.04942  0.54544  0.35309  1.0000
  S   S108      1.0  0.12253  0.54952  0.20447  1.0000
  S   S109      1.0  0.07926  0.54619  0.21053  1.0000
  S   S110      1.0  0.17001  0.71939  0.42560  1.0000
  C   C298      1.0  0.00840  0.49699  0.24383  1.0000
  H   H304      1.0  0.02778  0.55336  0.03737  1.0000
  H   H305      1.0  0.14764  0.57976  0.24663  1.0000
  H   H306      1.0  0.14682  0.53767  0.24645  1.0000
  Fe  Fe56      1.0  0.10219  0.57752  0.98851  1.0000
  C   C299      1.0  0.07081  0.52441  0.05514  1.0000
  C   C300      1.0  0.05319  0.53841  0.27824  1.0000
  C   C301      1.0  0.99437  0.51288  0.42989  1.0000
  H   H307      1.0  0.06109  0.57273  0.32378  1.0000
  C   C302      1.0  0.01353  0.53057  0.21859  1.0000
  C   C303      1.0  0.02704  0.52263  0.21647  1.0000
  C   C304      1.0  0.14507  0.54169  0.26648  1.0000
  H   H308      1.0  0.01553  0.54353  0.20867  1.0000
  H   H309      1.0  0.03922  0.52938  0.20471  1.0000
  C   C305      1.0  0.12124  0.66379  0.44783  1.0000
  C   C306      1.0  0.13724  0.66368  0.43547  1.0000
  C   C307      1.0  0.15191  0.68079  0.42893  1.0000
  C   C308      1.0  0.15096  0.69830  0.43471  1.0000
  C   C309      1.0  0.13502  0.69840  0.44725  1.0000
  C   C310      1.0  0.12031  0.68129  0.45369  1.0000
  H   H310      1.0  0.13827  0.65044  0.43077  1.0000
  H   H311      1.0  0.16412  0.68045  0.41924  1.0000
  H   H312      1.0  0.05304  0.57552  0.26394  1.0000
  H   H313      1.0  0.03975  0.51311  0.33405  1.0000
  C   C311      1.0  0.10983  0.56506  0.05513  1.0000
  C   C312      1.0  0.09906  0.57443  0.06518  1.0000
  C   C313      1.0  0.09421  0.57261  0.09195  1.0000
  C   C314      1.0  0.09981  0.56121  0.10889  1.0000
  C   C315      1.0  0.11073  0.55197  0.09894  1.0000
  C   C316      1.0  0.11582  0.55400  0.07221  1.0000
  H   H314      1.0  0.09453  0.58312  0.05235  1.0000
  H   H315      1.0  0.08587  0.57992  0.09953  1.0000
  H   H316      1.0  0.11517  0.54319  0.11174  1.0000
  H   H317      1.0  0.12425  0.54679  0.06462  1.0000
  C   C317      1.0  0.09606  0.56131  0.35668  1.0000
  C   C318      1.0  0.10372  0.57976  0.34775  1.0000
  C   C319      1.0  0.10849  0.58322  0.32104  1.0000
  C   C320      1.0  0.10536  0.56830  0.30299  1.0000
  C   C321      1.0  0.09750  0.54987  0.31189  1.0000
  C   C322      1.0  0.09315  0.54643  0.33865  1.0000
  H   H318      1.0  0.10606  0.59134  0.36145  1.0000
  H   H319      1.0  0.11461  0.59755  0.31435  1.0000
  H   H320      1.0  0.09500  0.53825  0.29827  1.0000
  H   H321      1.0  0.08722  0.53211  0.34539  1.0000
  H   H322      1.0  0.04961  0.57234  0.03039  1.0000
  H   H323      1.0  0.06401  0.52419  0.09623  1.0000
  C   C323      1.0  0.04239  0.56140  0.04502  1.0000
  H   H324      1.0  0.13362  0.63888  0.48549  1.0000
  C   C324      1.0  0.06515  0.57239  0.27155  1.0000
  H   H325      1.0  0.17143  0.72949  0.32083  1.0000
  C   C325      1.0  0.99833  0.49652  0.99145  1.0000
  C   C326      1.0  0.05005  0.54328  0.33196  1.0000
  H   H326      1.0  0.00751  0.52377  0.42411  1.0000
  Fe  Fe57      1.0  0.09997  0.57869  0.48515  1.0000
  C   C327      1.0  0.06004  0.54375  0.02745  1.0000
  C   C328      1.0  0.04481  0.52517  0.32132  1.0000
  C   C329      1.0  0.99098  0.51018  0.99622  1.0000
  C   C330      1.0  0.99742  0.52175  0.23331  1.0000
  H   H327      1.0  0.17052  0.58709  0.26308  1.0000
  S   S111      1.0  0.12875  0.50080  0.22241  1.0000
  C   C331      1.0  0.15866  0.57489  0.25412  1.0000
  H   H328      1.0  0.16249  0.49751  0.14225  1.0000
  H   H329      1.0  0.04721  0.54543  0.09001  1.0000
  H   H330      1.0  0.07263  0.56971  0.25451  1.0000
  H   H331      1.0  0.07549  0.58494  0.28223  1.0000
  H   H332      1.0  0.13705  0.55545  0.33718  1.0000
  C   C332      1.0  0.00166  0.52919  0.99088  1.0000
  H   H333      1.0  0.04231  0.50869  0.28566  1.0000
  C   C333      1.0  0.13669  0.52758  0.28469  1.0000
  C   C334      1.0  0.05313  0.54136  0.07302  1.0000
  S   S112      1.0  0.08376  0.59374  0.99344  1.0000
  H   H334      1.0  0.10806  0.68164  0.46325  1.0000
  H   H335      1.0  0.05927  0.54952  0.00824  1.0000
  C   C335      1.0  0.14747  0.49908  0.17694  1.0000
  H   H336      1.0  0.07878  0.51561  0.05785  1.0000
  H   H337      1.0  0.14207  0.50889  0.16843  1.0000
  C   C336      1.0  0.06951  0.53164  0.03033  1.0000
  H   H338      1.0  0.05440  0.53634  0.25729  1.0000
  H   H339      1.0  0.13396  0.71165  0.45183  1.0000
  C   C337      1.0  0.05679  0.55870  0.31529  1.0000
  C   C338      1.0  0.04634  0.52269  0.29427  1.0000
  N   N27       1.0  0.05225  0.54868  0.04870  1.0000
  H   H340      1.0  0.15139  0.57982  0.30405  1.0000
  C   C339      1.0  0.18480  0.73434  0.33182  1.0000
  H   H341      1.0  0.17241  0.72298  0.36884  1.0000
  N   N28       1.0  0.05847  0.55613  0.28884  1.0000
  N   N29       1.0  0.15065  0.56023  0.27368  1.0000
  H   H342      1.0  0.04210  0.56887  0.06373  1.0000
  H   H343      1.0  0.04163  0.52778  0.47954  1.0000
  S   S113      1.0  0.04198  0.49638  0.22866  1.0000
  C   C340      1.0  0.06249  0.52919  0.07664  1.0000
  C   C341      1.0  0.13397  0.53252  0.31037  1.0000
  H   H344      1.0  0.07641  0.52850  0.01362  1.0000
  H   H345      1.0  0.12708  0.52172  0.32451  1.0000
  C   C342      1.0  0.18534  0.73068  0.35873  1.0000
  C   C343      1.0  0.99484  0.50490  0.24587  1.0000
  H   H346      1.0  0.24966  0.50381  0.30334  1.0000
  C   C344      1.0  0.02462  0.50593  0.22934  1.0000
  H   H347      1.0  0.99578  0.53962  0.99444  1.0000
  H   H348      1.0  0.13196  0.51290  0.27864  1.0000
  H   H349      1.0  0.20307  0.73449  0.39374  1.0000
  C   C345      1.0  0.20257  0.73714  0.37274  1.0000
  C   C346      1.0  0.99341  0.49479  0.43487  1.0000
  H   H350      1.0  0.98257  0.49810  0.25749  1.0000
  C   C347      1.0  0.02733  0.52315  0.48602  1.0000
  Fe  Fe58      1.0  0.06385  0.57232  0.96470  1.0000
  S   S114      1.0  0.08169  0.55550  0.96128  1.0000
  C   C348      1.0  0.99950  0.52924  0.49454  1.0000
  Fe  Fe59      1.0  0.09796  0.61009  0.95763  1.0000
  S   S115      1.0  0.11796  0.59522  0.95486  1.0000
  S   S116      1.0  0.10444  0.64173  0.95279  1.0000
  Fe  Fe60      1.0  0.09551  0.57454  0.92796  1.0000
  S   S117      1.0  0.10355  0.56186  0.89175  1.0000
  C   C349      1.0  0.07004  0.52921  0.53263  1.0000
  S   S118      1.0  0.11432  0.56855  0.51788  1.0000
  S   S119      1.0  0.07610  0.58996  0.92916  1.0000
  N   N30       1.0  0.02253  0.54541  0.78671  1.0000
  Fe  Fe61      1.0  0.09634  0.55370  0.67409  1.0000
  S   S120      1.0  0.08750  0.52221  0.67323  1.0000
  S   S121      1.0  0.09643  0.57246  0.63936  1.0000
  Fe  Fe62      1.0  0.09428  0.55545  0.73545  1.0000
  S   S122      1.0  0.08552  0.52434  0.73823  1.0000
  S   S123      1.0  0.09224  0.57411  0.76949  1.0000
  Fe  Fe63      1.0  0.10768  0.52734  0.70839  1.0000
  H   H351      1.0  0.07705  0.53651  0.51464  1.0000
  Fe  Fe64      1.0  0.06638  0.52210  0.70317  1.0000
  C   C350      1.0  0.05591  0.55263  0.53471  1.0000
  S   S124      1.0  0.11789  0.55907  0.70778  1.0000
  S   S125      1.0  0.07386  0.55296  0.70185  1.0000
  S   S126      1.0  0.17457  0.71907  0.93080  1.0000
  H   H352      1.0  0.05838  0.51579  0.52656  1.0000
  C   C351      1.0  0.13956  0.59763  0.84758  1.0000
  S   S127      1.0  0.03641  0.50055  0.70375  1.0000
  C   C352      1.0  0.12898  0.63751  0.55138  1.0000
  H   H353      1.0  0.10787  0.68010  0.94978  1.0000
  C   C353      1.0  0.14059  0.61424  0.53706  1.0000
  S   S128      1.0  0.12566  0.51095  0.72032  1.0000
  H   H354      1.0  0.13624  0.60371  0.89879  1.0000
  H   H355      1.0  0.12430  0.64402  0.56723  1.0000
  C   C354      1.0  0.00958  0.53492  0.72255  1.0000
  C   C355      1.0  0.02304  0.52830  0.71380  1.0000
  C   C356      1.0  0.13645  0.49951  0.69988  1.0000
  H   H356      1.0  0.01299  0.54988  0.72361  1.0000
  H   H357      1.0  0.03646  0.53820  0.70797  1.0000
  C   C357      1.0  0.12436  0.66311  0.94748  1.0000
  C   C358      1.0  0.14246  0.66358  0.94349  1.0000
  C   C359      1.0  0.15753  0.68079  0.93852  1.0000
  C   C360      1.0  0.15492  0.69788  0.93788  1.0000
  C   C361      1.0  0.13687  0.69745  0.94210  1.0000
  C   C362      1.0  0.12174  0.68019  0.94670  1.0000
  H   H358      1.0  0.14493  0.65074  0.94440  1.0000
  C   C363      1.0  0.05421  0.55036  0.58926  1.0000
  H   H359      1.0  0.00417  0.55715  0.80309  1.0000
  H   H360      1.0  0.04170  0.57093  0.58717  1.0000
  C   C364      1.0  0.10889  0.56932  0.55153  1.0000
  C   C365      1.0  0.11370  0.55818  0.56986  1.0000
  C   C366      1.0  0.10980  0.55872  0.59686  1.0000
  C   C367      1.0  0.10155  0.57085  0.60578  1.0000
  C   C368      1.0  0.09702  0.58217  0.58746  1.0000
  C   C369      1.0  0.10033  0.58116  0.56042  1.0000
  H   H361      1.0  0.12047  0.54908  0.56318  1.0000
  H   H362      1.0  0.11349  0.55005  0.61081  1.0000
  H   H363      1.0  0.09064  0.59159  0.59423  1.0000
  H   H364      1.0  0.09661  0.58984  0.54657  1.0000
  C   C370      1.0  0.09756  0.56345  0.85804  1.0000
  C   C371      1.0  0.08936  0.57584  0.84957  1.0000
  C   C372      1.0  0.08732  0.57857  0.82232  1.0000
  C   C373      1.0  0.09316  0.56873  0.80334  1.0000
  C   C374      1.0  0.10052  0.55570  0.81180  1.0000
  C   C375      1.0  0.10281  0.55318  0.83902  1.0000
  H   H365      1.0  0.08527  0.58382  0.86402  1.0000
  H   H366      1.0  0.08156  0.58864  0.81593  1.0000
  H   H367      1.0  0.10512  0.54808  0.79741  1.0000
  H   H368      1.0  0.10919  0.54359  0.84540  1.0000
  C   C376      1.0  0.13493  0.62298  0.55738  1.0000
  H   H369      1.0  0.05058  0.56367  0.77764  1.0000
  H   H370      1.0  0.20950  0.73346  0.90115  1.0000
  S   S129      1.0  0.08213  0.59509  0.49244  1.0000
  H   H371      1.0  0.13476  0.61818  0.57754  1.0000
  H   H372      1.0  0.13451  0.71036  0.94163  1.0000
  N   N31       1.0  0.12897  0.64337  0.52591  1.0000
  C   C377      1.0  0.21898  0.73878  0.88427  1.0000
  H   H373      1.0  0.05668  0.55376  0.51343  1.0000
  H   H374      1.0  0.00583  0.49792  0.78615  1.0000
  C   C378      1.0  0.12242  0.65842  0.51988  1.0000
  H   H375      1.0  0.05423  0.54981  0.61072  1.0000
  C   C379      1.0  0.01013  0.52721  0.78915  1.0000
  C   C380      1.0  0.98984  0.51038  0.50166  1.0000
  H   H376      1.0  0.06143  0.53793  0.77084  1.0000
  H   H377      1.0  0.18153  0.72526  0.87572  1.0000
  H   H378      1.0  0.06720  0.53048  0.58511  1.0000
  H   H379      1.0  0.02731  0.57390  0.79642  1.0000
  C   C381      1.0  0.04813  0.56345  0.54858  1.0000
  H   H380      1.0  0.99234  0.53884  0.49506  1.0000
  H   H381      1.0  0.17140  0.68088  0.93545  1.0000
  N   N32       1.0  0.06262  0.54094  0.54776  1.0000
  H   H382      1.0  0.01046  0.56318  0.76944  1.0000
  C   C382      1.0  0.06167  0.53955  0.57467  1.0000
  H   H383      1.0  0.13053  0.66720  0.50360  1.0000
  S   S130      1.0  0.03272  0.55899  0.97467  1.0000
  C   C383      1.0  0.99196  0.52236  0.73041  1.0000
  H   H384      1.0  0.12422  0.66794  0.53720  1.0000
  C   C384      1.0  0.12205  0.62276  0.89707  1.0000
  H   H385      1.0  0.25481  0.50474  0.56717  1.0000
  H   H386      1.0  0.13296  0.59149  0.82806  1.0000
  N   N33       1.0  0.20867  0.74045  0.86029  1.0000
  C   C385      1.0  0.13020  0.61122  0.88586  1.0000
  H   H387      1.0  0.08094  0.52624  0.54439  1.0000
  H   H388      1.0  0.14394  0.61284  0.49511  1.0000
  C   C386      1.0  0.14007  0.61996  0.51108  1.0000
  N   N34       1.0  0.13026  0.60917  0.85899  1.0000
  C   C387      1.0  0.12245  0.61850  0.84274  1.0000
  H   H389      1.0  0.12201  0.62443  0.91832  1.0000
  C   C388      1.0  0.11395  0.62996  0.85338  1.0000
  H   H390      1.0  0.10730  0.65224  0.51346  1.0000
  C   C389      1.0  0.11381  0.63210  0.88078  1.0000
  C   C390      1.0  0.13415  0.63461  0.50580  1.0000
  H   H391      1.0  0.12240  0.61677  0.82142  1.0000
  H   H392      1.0  0.04130  0.52528  0.96893  1.0000
  H   H393      1.0  0.10746  0.63707  0.84050  1.0000
  H   H394      1.0  0.16423  0.72883  0.83566  1.0000
  H   H395      1.0  0.10732  0.64092  0.88956  1.0000
  C   C391      1.0  0.04701  0.53476  0.77619  1.0000
  C   C392      1.0  0.04738  0.56236  0.57607  1.0000
  H   H396      1.0  0.12795  0.50780  0.66284  1.0000
  H   H397      1.0  0.15473  0.60625  0.84516  1.0000
  C   C393      1.0  0.01908  0.50905  0.71273  1.0000
  H   H398      1.0  0.13814  0.58558  0.86050  1.0000
  C   C394      1.0  0.13518  0.49985  0.67229  1.0000
  H   H399      1.0  0.04278  0.57261  0.53792  1.0000
  C   C395      1.0  0.99894  0.49783  0.50122  1.0000
  C   C396      1.0  0.01779  0.50439  0.49361  1.0000
  C   C397      1.0  0.01585  0.56071  0.78907  1.0000
  C   C398      1.0  0.03446  0.51617  0.77848  1.0000
  H   H400      1.0  0.99545  0.52408  0.79316  1.0000
  H   H401      1.0  0.14484  0.60265  0.54132  1.0000
  C   C399      1.0  0.04077  0.54930  0.78019  1.0000
  C   C400      1.0  0.01826  0.53574  0.48656  1.0000
  C   C401      1.0  0.17951  0.73455  0.83629  1.0000
  C   C402      1.0  0.02736  0.52122  0.97665  1.0000
  C   C403      1.0  0.01589  0.51233  0.78510  1.0000
  C   C404      1.0  0.00116  0.49639  0.71955  1.0000
  C   C405      1.0  0.98764  0.50302  0.72838  1.0000
  H   H402      1.0  0.22608  0.72898  0.88060  1.0000
  H   H403      1.0  0.99550  0.50058  0.93075  1.0000
  C   C406      1.0  0.18939  0.73265  0.85897  1.0000
  C   C407      1.0  0.01990  0.53484  0.98106  1.0000
  C   C408      1.0  0.01663  0.50219  0.98184  1.0000
  H   H404      1.0  0.03900  0.50479  0.77449  1.0000
  H   H405      1.0  0.02491  0.49476  0.49305  1.0000
  C   C409      1.0  0.18948  0.74421  0.81474  1.0000
  Fe  Fe65      1.0  0.24039  0.80950  0.15219  1.0000
  S   S131      1.0  0.25659  0.83983  0.14411  1.0000
  S   S132      1.0  0.23216  0.78704  0.11958  1.0000
  Fe  Fe66      1.0  0.23679  0.81754  0.21190  1.0000
  S   S133      1.0  0.25284  0.84872  0.20711  1.0000
  S   S134      1.0  0.21844  0.80303  0.24655  1.0000
  Fe  Fe67      1.0  0.23522  0.84470  0.16926  1.0000
  S   S135      1.0  0.21990  0.86288  0.15463  1.0000
  Fe  Fe68      1.0  0.27284  0.84073  0.18228  1.0000
  S   S136      1.0  0.30505  0.84951  0.18089  1.0000
  S   S137      1.0  0.21837  0.81433  0.17533  1.0000
  S   S138      1.0  0.25743  0.80955  0.18911  1.0000
  Fe  Fe69      1.0  0.11779  0.84998  0.11506  1.0000
  S   S139      1.0  0.13541  0.88052  0.11357  1.0000
  S   S140      1.0  0.13270  0.82996  0.12130  1.0000
  Fe  Fe70      1.0  0.08105  0.85657  0.10998  1.0000
  S   S141      1.0  0.09727  0.88817  0.10849  1.0000
  S   S142      1.0  0.04875  0.84746  0.11034  1.0000
  Fe  Fe71      1.0  0.11595  0.88140  0.08015  1.0000
  S   S143      1.0  0.13298  0.89842  0.04601  1.0000
  Fe  Fe72      1.0  0.11535  0.88434  0.14201  1.0000
  S   S144      1.0  0.13038  0.90489  0.17610  1.0000
  S   S145      1.0  0.09911  0.85015  0.07988  1.0000
  S   S146      1.0  0.09833  0.85345  0.14527  1.0000
  Fe  Fe73      1.0  0.21022  0.78431  0.40105  1.0000
  S   S147      1.0  0.17951  0.76828  0.39213  1.0000
  S   S148      1.0  0.23263  0.79446  0.36978  1.0000
  Fe  Fe74      1.0  0.20383  0.78726  0.46136  1.0000
  S   S149      1.0  0.17240  0.77145  0.45581  1.0000
  H   H406      1.0  0.22052  0.87930  0.34879  1.0000
  H   H407      1.0  0.19730  0.87850  0.12515  1.0000
  Fe  Fe75      1.0  0.17537  0.78934  0.41964  1.0000
  S   S150      1.0  0.15722  0.80503  0.40603  1.0000
  S   S151      1.0  0.21112  0.76691  0.43624  1.0000
  S   S152      1.0  0.20603  0.80597  0.42663  1.0000
  Fe  Fe76      1.0  0.14297  0.90905  0.33531  1.0000
  S   S153      1.0  0.17432  0.92509  0.33566  1.0000
  S   S154      1.0  0.12315  0.89399  0.30048  1.0000
  Fe  Fe77      1.0  0.14137  0.91348  0.39667  1.0000
  S   S155      1.0  0.17252  0.93046  0.40062  1.0000
  S   S156      1.0  0.12062  0.90039  0.42945  1.0000
  Fe  Fe78      1.0  0.16923  0.94559  0.36366  1.0000
  S   S157      1.0  0.17709  0.97708  0.35512  1.0000
  Fe  Fe79      1.0  0.17469  0.90859  0.37239  1.0000
  S   S158      1.0  0.19334  0.89271  0.38295  1.0000
  S   S159      1.0  0.13749  0.92977  0.36181  1.0000
  S   S160      1.0  0.14387  0.89139  0.36994  1.0000
  H   H408      1.0  0.17844  0.89158  0.43736  1.0000
  C   C410      1.0  0.18278  0.86847  0.39006  1.0000
  C   C411      1.0  0.16518  0.85693  0.37907  1.0000
  C   C412      1.0  0.15754  0.83757  0.38416  1.0000
  C   C413      1.0  0.16751  0.82945  0.39996  1.0000
  C   C414      1.0  0.18510  0.84100  0.41103  1.0000
  C   C415      1.0  0.19268  0.86039  0.40609  1.0000
  H   H409      1.0  0.15761  0.86276  0.36603  1.0000
  H   H410      1.0  0.14389  0.82881  0.37557  1.0000
  H   H411      1.0  0.19275  0.83512  0.42383  1.0000
  H   H412      1.0  0.20633  0.86916  0.41466  1.0000
  C   C416      1.0  0.02869  0.82770  0.09848  1.0000
  C   C417      1.0  0.01078  0.82863  0.09906  1.0000
  N   N35       1.0  0.13923  0.86350  0.99329  1.0000
  H   H413      1.0  0.16813  0.87587  0.00608  1.0000
  C   C418      1.0  0.01329  0.79511  0.08320  1.0000
  C   C419      1.0  0.02984  0.81087  0.09019  1.0000
  H   H414      1.0  0.00970  0.84158  0.10541  1.0000
  C   C420      1.0  0.20037  0.85082  0.34252  1.0000
  H   H415      1.0  0.01439  0.78209  0.07727  1.0000
  H   H416      1.0  0.04345  0.80987  0.08966  1.0000
  C   C421      1.0  0.12805  0.89987  0.01179  1.0000
  C   C422      1.0  0.10986  0.89189  0.00039  1.0000
  N   N36       1.0  0.19580  0.83228  0.34803  1.0000
  H   H417      1.0  0.27117  0.79396  0.13766  1.0000
  C   C423      1.0  0.21735  0.86454  0.35224  1.0000
  C   C424      1.0  0.99423  0.81287  0.09212  1.0000
  H   H418      1.0  0.09806  0.88460  0.01269  1.0000
  C   C425      1.0  0.22517  0.84015  0.37235  1.0000
  H   H419      1.0  0.17217  0.80645  0.35166  1.0000
  C   C426      1.0  0.15179  0.83692  0.45603  1.0000
  C   C427      1.0  0.12951  0.89961  0.21028  1.0000
  C   C428      1.0  0.14433  0.91083  0.22753  1.0000
  C   C429      1.0  0.14307  0.90874  0.25519  1.0000
  C   C430      1.0  0.12679  0.89557  0.26589  1.0000
  C   C431      1.0  0.11223  0.88402  0.24858  1.0000
  C   C432      1.0  0.11361  0.88592  0.22094  1.0000
  H   H420      1.0  0.15669  0.92151  0.21949  1.0000
  H   H421      1.0  0.15438  0.91773  0.26824  1.0000
  H   H422      1.0  0.09957  0.87379  0.25664  1.0000
  H   H423      1.0  0.10203  0.87731  0.20797  1.0000
  C   C433      1.0  0.22349  0.79984  0.03263  1.0000
  C   C434      1.0  0.21994  0.78145  0.04032  1.0000
  C   C435      1.0  0.22247  0.77768  0.06708  1.0000
  C   C436      1.0  0.22834  0.79218  0.08636  1.0000
  C   C437      1.0  0.23155  0.81049  0.07870  1.0000
  C   C438      1.0  0.22931  0.81430  0.05196  1.0000
  H   H424      1.0  0.21547  0.77019  0.02563  1.0000
  H   H425      1.0  0.21996  0.76345  0.07281  1.0000
  H   H426      1.0  0.23606  0.82180  0.09327  1.0000
  H   H427      1.0  0.23204  0.82856  0.04619  1.0000
  C   C439      1.0  0.22281  0.80205  0.28105  1.0000
  C   C440      1.0  0.24090  0.80990  0.29278  1.0000
  C   C441      1.0  0.24362  0.80791  0.32012  1.0000
  C   C442      1.0  0.22831  0.79816  0.33603  1.0000
  C   C443      1.0  0.21019  0.79059  0.32439  1.0000
  C   C444      1.0  0.20749  0.79249  0.29707  1.0000
  H   H428      1.0  0.25282  0.81727  0.28071  1.0000
  H   H429      1.0  0.25772  0.81376  0.32890  1.0000
  H   H430      1.0  0.19829  0.78286  0.33626  1.0000
  H   H431      1.0  0.19345  0.78631  0.28815  1.0000
  C   C445      1.0  0.19608  0.85286  0.14308  1.0000
  C   C446      1.0  0.18436  0.83432  0.14851  1.0000
  C   C447      1.0  0.16507  0.82738  0.14124  1.0000
  C   C448      1.0  0.15725  0.83891  0.12860  1.0000
  C   C449      1.0  0.16909  0.85723  0.12235  1.0000
  C   C450      1.0  0.18838  0.86417  0.12961  1.0000
  H   H432      1.0  0.18988  0.82550  0.15924  1.0000
  H   H433      1.0  0.15604  0.81317  0.14612  1.0000
  H   H434      1.0  0.16346  0.86612  0.11191  1.0000
  C   C451      1.0  0.01015  0.80298  0.15376  1.0000
  N   N37       1.0  0.17817  0.86279  0.19740  1.0000
  C   C452      1.0  0.15969  0.85924  0.19115  1.0000
  C   C453      1.0  0.15463  0.87297  0.17926  1.0000
  C   C454      1.0  0.16858  0.89039  0.17379  1.0000
  C   C455      1.0  0.18323  0.84843  0.21048  1.0000
  H   H435      1.0  0.14875  0.84564  0.19490  1.0000
  H   H436      1.0  0.13999  0.87007  0.17407  1.0000
  H   H437      1.0  0.18314  0.85013  0.23226  1.0000
  H   H438      1.0  0.17326  0.83406  0.20445  1.0000
  H   H439      1.0  0.19748  0.84952  0.20480  1.0000
  H   H440      1.0  0.19171  0.82926  0.09162  1.0000
  H   H441      1.0  0.17482  0.79440  0.12195  1.0000
  H   H442      1.0  0.19069  0.78318  0.11331  1.0000
  C   C456      1.0  0.27451  0.80413  0.08700  1.0000
  H   H443      1.0  0.16482  0.90105  0.16422  1.0000
  C   C457      1.0  0.18775  0.79613  0.11125  1.0000
  C   C458      1.0  0.19192  0.87997  0.19252  1.0000
  H   H444      1.0  0.14311  0.95017  0.99129  1.0000
  C   C459      1.0  0.18735  0.89397  0.18048  1.0000
  H   H445      1.0  0.20000  0.80768  0.12080  1.0000
  C   C460      1.0  0.17817  0.81796  0.33734  1.0000
  H   H446      1.0  0.19065  0.85521  0.33127  1.0000
  H   H447      1.0  0.16730  0.82391  0.33372  1.0000
  H   H448      1.0  0.20659  0.88272  0.19720  1.0000
  H   H449      1.0  0.19832  0.90740  0.17604  1.0000
  H   H450      1.0  0.14244  0.86505  0.03550  1.0000
  N   N38       1.0  0.13028  0.94521  0.24464  1.0000
  C   C461      1.0  0.18804  0.81819  0.07661  1.0000
  C   C462      1.0  0.22981  0.85912  0.36724  1.0000
  C   C463      1.0  0.29175  0.83379  0.10769  1.0000
  H   H451      1.0  0.11884  0.85756  0.02314  1.0000
  N   N39       1.0  0.18551  0.80028  0.08345  1.0000
  H   H452      1.0  0.24293  0.86962  0.37512  1.0000
  C   C464      1.0  0.12624  0.84028  0.43095  1.0000
  C   C465      1.0  0.20798  0.82687  0.36260  1.0000
  H   H453      1.0  0.18079  0.81199  0.31855  1.0000
  H   H454      1.0  0.29646  0.85819  0.08388  1.0000
  H   H455      1.0  0.13455  0.94203  0.20370  1.0000
  C   C466      1.0  0.11952  0.93533  0.26476  1.0000
  C   C467      1.0  0.18640  0.82258  0.05012  1.0000
  H   H456      1.0  0.18898  0.83690  0.04466  1.0000
  C   C468      1.0  0.13419  0.82881  0.44312  1.0000
  H   H457      1.0  0.20435  0.81220  0.36701  1.0000
  H   H458      1.0  0.10298  0.87391  0.46971  1.0000
  C   C469      1.0  0.21910  0.74721  0.35960  1.0000
  C   C470      1.0  0.13614  0.85977  0.43165  1.0000
  C   C471      1.0  0.18054  0.78624  0.06461  1.0000
  H   H459      1.0  0.17858  0.77205  0.06998  1.0000
  H   H460      1.0  0.23472  0.83566  0.38392  1.0000
  C   C472      1.0  0.17866  0.79012  0.03796  1.0000
  C   C473      1.0  0.12620  0.90023  0.46367  1.0000
  H   H461      1.0  0.15010  0.92658  0.46448  1.0000
  H   H462      1.0  0.12992  0.86854  0.42191  1.0000
  C   C474      1.0  0.99537  0.79592  0.08442  1.0000
  H   H463      1.0  0.11219  0.92672  0.21466  1.0000
  C   C475      1.0  0.18183  0.80845  0.03068  1.0000
  H   H464      1.0  0.13094  0.84161  0.02122  1.0000
  C   C476      1.0  0.12606  0.93929  0.29106  1.0000
  H   H465      1.0  0.21746  0.98802  0.36986  1.0000
  C   C477      1.0  0.11442  0.88555  0.47917  1.0000
  H   H466      1.0  0.24186  0.75006  0.31271  1.0000
  H   H467      1.0  0.11690  0.95138  0.21086  1.0000
  C   C478      1.0  0.29035  0.84297  0.08447  1.0000
  H   H468      1.0  0.10606  0.92390  0.26056  1.0000
  N   N40       1.0  0.15355  0.86758  0.44400  1.0000
  C   C479      1.0  0.28086  0.83238  0.06221  1.0000
  C   C480      1.0  0.12310  0.94122  0.21717  1.0000
  C   C481      1.0  0.16397  0.88798  0.44454  1.0000
  C   C482      1.0  0.14097  0.91514  0.47612  1.0000
  C   C483      1.0  0.99581  0.78583  0.14652  1.0000
  C   C484      1.0  0.14361  0.95354  0.29674  1.0000
  H   H469      1.0  0.18117  0.81173  0.00993  1.0000
  C   C485      1.0  0.00557  0.81796  0.16180  1.0000
  H   H470      1.0  0.17551  0.77915  0.02290  1.0000
  H   H471      1.0  0.11265  0.83413  0.42060  1.0000
  N   N41       1.0  0.28360  0.81462  0.10883  1.0000
  C   C486      1.0  0.23605  0.76036  0.31946  1.0000
  C   C487      1.0  0.14747  0.95932  0.25006  1.0000
  H   H472      1.0  0.08448  0.90395  0.47428  1.0000
  C   C488      1.0  0.15442  0.96366  0.27619  1.0000
  H   H473      1.0  0.02482  0.80494  0.15205  1.0000
  H   H474      1.0  0.29557  0.79860  0.13108  1.0000
  Fe  Fe80      1.0  0.17959  0.75169  0.42886  1.0000
  S   S161      1.0  0.22101  0.80572  0.99936  1.0000
  H   H475      1.0  0.31219  0.88784  0.20066  1.0000
  N   N42       1.0  0.21847  0.75069  0.33319  1.0000
  H   H476      1.0  0.14890  0.95671  0.31704  1.0000
  H   H477      1.0  0.27936  0.83927  0.04417  1.0000
  H   H478      1.0  0.28946  0.81492  0.15052  1.0000
  H   H479      1.0  0.15596  0.96723  0.23415  1.0000
  C   C489      1.0  0.16134  0.85645  0.45626  1.0000
  H   H480      1.0  0.15731  0.91563  0.00411  1.0000
  C   C490      1.0  0.28507  0.80506  0.13320  1.0000
  H   H481      1.0  0.11776  0.93100  0.30689  1.0000
  C   C491      1.0  0.13257  0.85648  0.01952  1.0000
  H   H482      1.0  0.23240  0.75251  0.37079  1.0000
  H   H483      1.0  0.01671  0.83156  0.16637  1.0000
  H   H484      1.0  0.15830  0.82804  0.46483  1.0000
  H   H485      1.0  0.12701  0.81362  0.44193  1.0000
  H   H486      1.0  0.29912  0.84215  0.12492  1.0000
  H   H487      1.0  0.26530  0.80447  0.04632  1.0000
  H   H488      1.0  0.24666  0.77105  0.33273  1.0000
  H   H489      1.0  0.15711  0.89514  0.43151  1.0000
  C   C492      1.0  0.27304  0.81283  0.06336  1.0000
  C   C493      1.0  0.14317  0.90940  0.99551  1.0000
  C   C494      1.0  0.98661  0.81552  0.16261  1.0000
  H   H490      1.0  0.26781  0.78894  0.08803  1.0000
  H   H491      1.0  0.16474  0.89365  0.46497  1.0000
  C   C495      1.0  0.15807  0.87308  0.98960  1.0000
  H   H492      1.0  0.99923  0.77438  0.13902  1.0000
  H   H493      1.0  0.23374  0.76805  0.30208  1.0000
  H   H494      1.0  0.17523  0.86265  0.46573  1.0000
  H   H495      1.0  0.16813  0.97472  0.28062  1.0000
  H   H496      1.0  0.05960  0.87237  0.48011  1.0000
  C   C496      1.0  0.20163  0.74433  0.31923  1.0000
  H   H497      1.0  0.20113  0.74715  0.29830  1.0000
  H   H498      1.0  0.98318  0.82736  0.16829  1.0000
  Fe  Fe81      1.0  0.23653  0.81226  0.65386  1.0000
  S   S162      1.0  0.25403  0.84262  0.64750  1.0000
  S   S163      1.0  0.22487  0.79003  0.62088  1.0000
  Fe  Fe82      1.0  0.23451  0.81860  0.71476  1.0000
  S   S164      1.0  0.25183  0.84965  0.71183  1.0000
  S   S165      1.0  0.21652  0.80417  0.74974  1.0000
  Fe  Fe83      1.0  0.23392  0.84795  0.67493  1.0000
  S   S166      1.0  0.21938  0.86753  0.66328  1.0000
  Fe  Fe84      1.0  0.27042  0.84132  0.68474  1.0000
  S   S167      1.0  0.30239  0.84824  0.68585  1.0000
  S   S168      1.0  0.21587  0.81767  0.67928  1.0000
  S   S169      1.0  0.25369  0.81010  0.68955  1.0000
  Fe  Fe85      1.0  0.11663  0.85234  0.62009  1.0000
  S   S170      1.0  0.13297  0.88336  0.62314  1.0000
  S   S171      1.0  0.13241  0.83342  0.62872  1.0000
  Fe  Fe86      1.0  0.07912  0.85615  0.60676  1.0000
  S   S172      1.0  0.09375  0.88781  0.60974  1.0000
  S   S173      1.0  0.04794  0.84762  0.59343  1.0000
  Fe  Fe87      1.0  0.11658  0.88449  0.58614  1.0000
  S   S174      1.0  0.13232  0.90504  0.55438  1.0000
  Fe  Fe88      1.0  0.10875  0.88360  0.64643  1.0000
  S   S175      1.0  0.11389  0.90333  0.68232  1.0000
  S   S176      1.0  0.10162  0.85324  0.58135  1.0000
  S   S177      1.0  0.09279  0.85230  0.64529  1.0000
  Fe  Fe89      1.0  0.21245  0.78341  0.90262  1.0000
  S   S178      1.0  0.18169  0.76693  0.89468  1.0000
  S   S179      1.0  0.23409  0.79128  0.87037  1.0000
  Fe  Fe90      1.0  0.20687  0.78760  0.96280  1.0000
  S   S180      1.0  0.17553  0.77122  0.95836  1.0000
  C   C497      1.0  0.10689  0.89362  0.97301  1.0000
  H   H499      1.0  0.19625  0.88317  0.63502  1.0000
  Fe  Fe91      1.0  0.17780  0.78843  0.92169  1.0000
  S   S181      1.0  0.15925  0.80390  0.90931  1.0000
  S   S182      1.0  0.21409  0.76692  0.93853  1.0000
  S   S183      1.0  0.20849  0.80556  0.92735  1.0000
  Fe  Fe92      1.0  0.15312  0.91090  0.83480  1.0000
  S   S184      1.0  0.18384  0.92701  0.84582  1.0000
  S   S185      1.0  0.14615  0.89330  0.79632  1.0000
  Fe  Fe93      1.0  0.14147  0.91457  0.89280  1.0000
  S   S186      1.0  0.17131  0.93078  0.90627  1.0000
  S   S187      1.0  0.11785  0.90505  0.92238  1.0000
  Fe  Fe94      1.0  0.17417  0.94695  0.86840  1.0000
  S   S188      1.0  0.18306  0.97916  0.87098  1.0000
  Fe  Fe95      1.0  0.17756  0.90928  0.88240  1.0000
  S   S189      1.0  0.19413  0.89311  0.90019  1.0000
  S   S190      1.0  0.14347  0.93140  0.85579  1.0000
  S   S191      1.0  0.14762  0.89262  0.87053  1.0000
  N   N43       1.0  0.27402  0.80286  0.61544  1.0000
  C   C498      1.0  0.18371  0.86837  0.90402  1.0000
  C   C499      1.0  0.16611  0.85739  0.89242  1.0000
  C   C500      1.0  0.15857  0.83776  0.89492  1.0000
  C   C501      1.0  0.16865  0.82877  0.90868  1.0000
  C   C502      1.0  0.18605  0.83974  0.92084  1.0000
  C   C503      1.0  0.19357  0.85942  0.91841  1.0000
  H   H500      1.0  0.15843  0.86382  0.88084  1.0000
  H   H501      1.0  0.14507  0.82945  0.88553  1.0000
  H   H502      1.0  0.19374  0.83315  0.93224  1.0000
  H   H503      1.0  0.20715  0.86772  0.92762  1.0000
  C   C504      1.0  0.02732  0.82641  0.59175  1.0000
  C   C505      1.0  0.01018  0.82711  0.58250  1.0000
  C   C506      1.0  0.29341  0.83585  0.61767  1.0000
  H   H504      1.0  0.15645  0.88238  0.92434  1.0000
  C   C507      1.0  0.01068  0.79275  0.59776  1.0000
  C   C508      1.0  0.02744  0.80909  0.59943  1.0000
  H   H505      1.0  0.00988  0.84040  0.57643  1.0000
  H   H506      1.0  0.15210  0.91808  0.95601  1.0000
  H   H507      1.0  0.01102  0.77943  0.60359  1.0000
  H   H508      1.0  0.04047  0.80825  0.60649  1.0000
  C   C509      1.0  0.13090  0.90164  0.51952  1.0000
  C   C510      1.0  0.14322  0.91587  0.50391  1.0000
  S   S192      1.0  0.21969  0.80499  0.49749  1.0000
  C   C511      1.0  0.12209  0.90299  0.95671  1.0000
  H   H509      1.0  0.06829  0.87982  0.56427  1.0000
  C   C512      1.0  0.11683  0.88615  0.50695  1.0000
  H   H510      1.0  0.15418  0.92791  0.51343  1.0000
  H   H511      1.0  0.21703  0.75964  0.79966  1.0000
  C   C513      1.0  0.19989  0.82487  0.60989  1.0000
  H   H512      1.0  0.10727  0.87508  0.51870  1.0000
  C   C514      1.0  0.12117  0.89951  0.71468  1.0000
  C   C515      1.0  0.12431  0.88332  0.72087  1.0000
  C   C516      1.0  0.13139  0.88145  0.74623  1.0000
  C   C517      1.0  0.13545  0.89571  0.76571  1.0000
  C   C518      1.0  0.13195  0.91174  0.75972  1.0000
  C   C519      1.0  0.12482  0.91359  0.73434  1.0000
  H   H513      1.0  0.12149  0.87234  0.70601  1.0000
  H   H514      1.0  0.13395  0.86895  0.75067  1.0000
  H   H515      1.0  0.13499  0.92283  0.77446  1.0000
  H   H516      1.0  0.12239  0.92615  0.72978  1.0000
  C   C520      1.0  0.21980  0.80042  0.53185  1.0000
  C   C521      1.0  0.21154  0.78232  0.54191  1.0000
  C   C522      1.0  0.21297  0.77941  0.56926  1.0000
  C   C523      1.0  0.22248  0.79453  0.58685  1.0000
  C   C524      1.0  0.23045  0.81266  0.57684  1.0000
  C   C525      1.0  0.22919  0.81554  0.54952  1.0000
  H   H517      1.0  0.20434  0.77054  0.52855  1.0000
  H   H518      1.0  0.20680  0.76531  0.57676  1.0000
  H   H519      1.0  0.23798  0.82443  0.59002  1.0000
  H   H520      1.0  0.23566  0.82959  0.54192  1.0000
  C   C526      1.0  0.22219  0.80244  0.78365  1.0000
  C   C527      1.0  0.24053  0.80583  0.79285  1.0000
  C   C528      1.0  0.24402  0.80277  0.81959  1.0000
  C   C529      1.0  0.22931  0.79656  0.83750  1.0000
  C   C530      1.0  0.21103  0.79360  0.82846  1.0000
  C   C531      1.0  0.20750  0.79638  0.80166  1.0000
  H   H521      1.0  0.25195  0.81040  0.77923  1.0000
  H   H522      1.0  0.25820  0.80507  0.82636  1.0000
  H   H523      1.0  0.19954  0.78867  0.84192  1.0000
  H   H524      1.0  0.19325  0.79363  0.79471  1.0000
  C   C532      1.0  0.19489  0.85832  0.65543  1.0000
  C   C533      1.0  0.18299  0.84032  0.66295  1.0000
  C   C534      1.0  0.16380  0.83301  0.65516  1.0000
  C   C535      1.0  0.15621  0.84372  0.64008  1.0000
  C   C536      1.0  0.16799  0.86190  0.63308  1.0000
  C   C537      1.0  0.18719  0.86922  0.64093  1.0000
  H   H525      1.0  0.18844  0.83202  0.67499  1.0000
  H   H526      1.0  0.15480  0.81898  0.66080  1.0000
  H   H527      1.0  0.16252  0.87010  0.62076  1.0000
  H   H528      1.0  0.18777  0.79406  0.63739  1.0000
  N   N44       1.0  0.18199  0.81141  0.60868  1.0000
  C   C538      1.0  0.16773  0.81485  0.59608  1.0000
  H   H529      1.0  0.21509  0.86996  0.85847  1.0000
  C   C539      1.0  0.17120  0.83225  0.58461  1.0000
  C   C540      1.0  0.18940  0.84609  0.58591  1.0000
  C   C541      1.0  0.17827  0.79293  0.61993  1.0000
  H   H530      1.0  0.15345  0.80434  0.59546  1.0000
  H   H531      1.0  0.15967  0.83519  0.57570  1.0000
  H   H532      1.0  0.19217  0.85985  0.57785  1.0000
  H   H533      1.0  0.11163  0.85231  0.97531  1.0000
  C   C542      1.0  0.98912  0.81475  0.64464  1.0000
  H   H534      1.0  0.11506  0.93908  0.96110  1.0000
  H   H535      1.0  0.09360  0.91105  0.55779  1.0000
  H   H536      1.0  0.05152  0.86012  0.52564  1.0000
  C   C543      1.0  0.13257  0.86645  0.94724  1.0000
  C   C544      1.0  0.08595  0.90276  0.54066  1.0000
  H   H537      1.0  0.16533  0.86884  0.81700  1.0000
  H   H538      1.0  0.25446  0.77424  0.61689  1.0000
  H   H539      1.0  0.12246  0.86422  0.93089  1.0000
  C   C545      1.0  0.16189  0.96563  0.96114  1.0000
  H   H540      1.0  0.16360  0.78635  0.62675  1.0000
  H   H541      1.0  0.19541  0.81917  0.87019  1.0000
  H   H542      1.0  0.18074  0.78364  0.60490  1.0000
  H   H543      1.0  0.17436  0.97031  0.97412  1.0000
  C   C546      1.0  0.20488  0.83285  0.86215  1.0000
  H   H544      1.0  0.27201  0.82306  0.55691  1.0000
  C   C547      1.0  0.12853  0.94821  0.95360  1.0000
  H   H545      1.0  0.21115  0.82220  0.62001  1.0000
  C   C548      1.0  0.99352  0.79347  0.58868  1.0000
  H   H546      1.0  0.17080  0.81745  0.83864  1.0000
  H   H547      1.0  0.21415  0.83027  0.84753  1.0000
  C   C549      1.0  0.14026  0.91079  0.96816  1.0000
  C   C550      1.0  0.26923  0.80442  0.58957  1.0000
  C   C551      1.0  0.06230  0.87401  0.52268  1.0000
  H   H548      1.0  0.11624  0.93151  0.52777  1.0000
  H   H549      1.0  0.21369  0.84113  0.87918  1.0000
  H   H550      1.0  0.21795  0.85326  0.60054  1.0000
  C   C552      1.0  0.16332  0.97064  0.93462  1.0000
  H   H551      1.0  0.27799  0.77892  0.63002  1.0000
  C   C553      1.0  0.28611  0.81823  0.62940  1.0000
  C   C554      1.0  0.20387  0.84241  0.59862  1.0000
  N   N45       1.0  0.09039  0.90935  0.51569  1.0000
  C   C555      1.0  0.10491  0.92815  0.51211  1.0000
  C   C556      1.0  0.15167  0.87667  0.94351  1.0000
  H   H552      1.0  0.31167  0.88899  0.69206  1.0000
  C   C557      1.0  0.26677  0.78454  0.62818  1.0000
  H   H553      1.0  0.29003  0.81698  0.64985  1.0000
  C   C558      1.0  0.16457  0.87983  0.96465  1.0000
  C   C559      1.0  0.07181  0.88505  0.54449  1.0000
  H   H554      1.0  0.09858  0.93881  0.51288  1.0000
  H   H555      1.0  0.17688  0.97929  0.92681  1.0000
  H   H556      1.0  0.10161  0.93453  0.91801  1.0000
  H   H557      1.0  0.11185  0.92903  0.49289  1.0000
  H   H558      1.0  0.00297  0.81418  0.64622  1.0000
  C   C560      1.0  0.08084  0.89880  0.49411  1.0000
  H   H559      1.0  0.21988  0.98802  0.84645  1.0000
  N   N46       1.0  0.17086  0.88999  0.70867  1.0000
  C   C561      1.0  0.17569  0.90196  0.73019  1.0000
  C   C562      1.0  0.16446  0.89495  0.68562  1.0000
  C   C563      1.0  0.17363  0.91917  0.72916  1.0000
  C   C564      1.0  0.16225  0.91205  0.68389  1.0000
  C   C565      1.0  0.16679  0.92416  0.70586  1.0000
  C   C566      1.0  0.17318  0.87205  0.71006  1.0000
  H   H560      1.0  0.18053  0.89797  0.74861  1.0000
  H   H561      1.0  0.16051  0.88545  0.66864  1.0000
  H   H562      1.0  0.17661  0.92819  0.74665  1.0000
  H   H563      1.0  0.15629  0.91552  0.66599  1.0000
  H   H564      1.0  0.16433  0.93707  0.70510  1.0000
  H   H565      1.0  0.17050  0.86621  0.73023  1.0000
  H   H566      1.0  0.16302  0.86138  0.69630  1.0000
  H   H567      1.0  0.18772  0.87405  0.70464  1.0000
  C   C567      1.0  0.98773  0.83175  0.63812  1.0000
  H   H568      1.0  0.15230  0.83390  0.81734  1.0000
  C   C568      1.0  0.27624  0.82184  0.57723  1.0000
  H   H569      1.0  0.19696  0.88684  0.83773  1.0000
  N   N47       1.0  0.13013  0.95293  0.92749  1.0000
  H   H570      1.0  0.11667  0.94110  0.89068  1.0000
  H   H571      1.0  0.30277  0.84806  0.62901  1.0000
  C   C569      1.0  0.28834  0.83765  0.59147  1.0000
  C   C570      1.0  0.14718  0.96417  0.91799  1.0000
  C   C571      1.0  0.12655  0.85987  0.97242  1.0000
  H   H572      1.0  0.25955  0.79228  0.57849  1.0000
  H   H573      1.0  0.23381  0.75623  0.84040  1.0000
  H   H574      1.0  0.14844  0.96802  0.89733  1.0000
  H   H575      1.0  0.29371  0.85130  0.58230  1.0000
  C   C572      1.0  0.99338  0.81080  0.58104  1.0000
  N   N48       1.0  0.19402  0.84273  0.84968  1.0000
  C   C573      1.0  0.20149  0.86194  0.84898  1.0000
  C   C574      1.0  0.17674  0.83267  0.83802  1.0000
  C   C575      1.0  0.19133  0.87160  0.83714  1.0000
  C   C576      1.0  0.16621  0.84188  0.82595  1.0000
  C   C577      1.0  0.17354  0.86148  0.82566  1.0000
  H   H576      1.0  0.09275  0.88759  0.96442  1.0000
  C   C578      1.0  0.06680  0.88089  0.49726  1.0000
  C   C579      1.0  0.11346  0.94645  0.90961  1.0000
  H   H577      1.0  0.26170  0.78590  0.64814  1.0000
  C   C580      1.0  0.21854  0.74967  0.83911  1.0000
  H   H578      1.0  0.17947  0.88765  0.96163  1.0000
  H   H579      1.0  0.10884  0.95814  0.90555  1.0000
  Fe  Fe96      1.0  0.18259  0.75116  0.93184  1.0000
  H   H580      1.0  0.00037  0.84409  0.63473  1.0000
  C   C581      1.0  0.20912  0.75166  0.81602  1.0000
  H   H581      1.0  0.18206  0.74621  0.79723  1.0000
  H   H582      1.0  0.22971  0.75279  0.89042  1.0000
  C   C582      1.0  0.14437  0.95443  0.97079  1.0000
  H   H583      1.0  0.98804  0.78059  0.64741  1.0000
  Fe  Fe97      1.0  0.51057  0.06944  0.99174  1.0000
  C   C583      1.0  0.61542  0.12474  0.39911  1.0000
  S   S193      1.0  0.56484  0.09787  0.44113  1.0000
  Fe  Fe98      1.0  0.53732  0.09476  0.03418  1.0000
  S   S194      1.0  0.50569  0.08221  0.02919  1.0000
  S   S195      1.0  0.55074  0.08799  0.07161  1.0000
  H   H584      1.0  0.49043  0.01576  0.29547  1.0000
  C   C584      1.0  0.50207  0.99931  0.21757  1.0000
  C   C585      1.0  0.51709  0.07760  0.13494  1.0000
  H   H585      1.0  0.46466  0.22674  0.40164  1.0000
  S   S196      1.0  0.54179  0.08006  0.99775  1.0000
  H   H586      1.0  0.53800  0.01305  0.00336  1.0000
  Fe  Fe99      1.0  0.57416  0.10473  0.28331  1.0000
  S   S197      1.0  0.58727  0.08328  0.28365  1.0000
  S   S198      1.0  0.56426  0.11633  0.31885  1.0000
  Fe  Fe100     1.0  0.57705  0.10908  0.22299  1.0000
  S   S199      1.0  0.59054  0.08824  0.21956  1.0000
  S   S200      1.0  0.57102  0.12424  0.18775  1.0000
  Fe  Fe101     1.0  0.56846  0.07101  0.24747  1.0000
  S   S201      1.0  0.55319  0.03977  0.23779  1.0000
  Fe  Fe102     1.0  0.60812  0.10277  0.25577  1.0000
  S   S202      1.0  0.63961  0.10827  0.25751  1.0000
  S   S203      1.0  0.55400  0.09118  0.24898  1.0000
  S   S204      1.0  0.59600  0.12488  0.25733  1.0000
  Fe  Fe103     1.0  0.40622  0.18769  0.04476  1.0000
  S   S205      1.0  0.40950  0.21758  0.04129  1.0000
  S   S206      1.0  0.37761  0.16532  0.05303  1.0000
  Fe  Fe104     1.0  0.44841  0.19790  0.04038  1.0000
  S   S207      1.0  0.45417  0.22880  0.03646  1.0000
  S   S208      1.0  0.47462  0.19109  0.04531  1.0000
  Fe  Fe105     1.0  0.43406  0.22425  0.06964  1.0000
  H   H587      1.0  0.41712  0.20074  0.34476  1.0000
  Fe  Fe106     1.0  0.42893  0.21904  0.00825  1.0000
  C   C586      1.0  0.50024  0.99536  0.42277  1.0000
  S   S209      1.0  0.42980  0.19421  0.07526  1.0000
  S   S210      1.0  0.42427  0.18839  0.01010  1.0000
  S   S211      1.0  0.43175  0.22732  0.22596  1.0000
  S   S212      1.0  0.36592  0.22584  0.31208  1.0000
  S   S213      1.0  0.41559  0.22491  0.29639  1.0000
  C   C587      1.0  0.33392  0.16291  0.32818  1.0000
  H   H588      1.0  0.51264  0.08106  0.11583  1.0000
  C   C588      1.0  0.33602  0.19518  0.32875  1.0000
  C   C589      1.0  0.35406  0.20153  0.31819  1.0000
  C   C590      1.0  0.36204  0.18846  0.31273  1.0000
  C   C591      1.0  0.35207  0.16928  0.31793  1.0000
  H   H589      1.0  0.35675  0.16712  0.13483  1.0000
  H   H590      1.0  0.37581  0.19306  0.30432  1.0000
  H   H591      1.0  0.35836  0.15928  0.31366  1.0000
  Fe  Fe107     1.0  0.50907  0.10755  0.00481  1.0000
  C   C592      1.0  0.43085  0.22139  0.14597  1.0000
  C   C593      1.0  0.42989  0.21786  0.17329  1.0000
  C   C594      1.0  0.43056  0.23183  0.19177  1.0000
  H   H592      1.0  0.43085  0.21067  0.13212  1.0000
  H   H593      1.0  0.42900  0.20433  0.18023  1.0000
  H   H594      1.0  0.60044  0.13513  0.42624  1.0000
  S   S214      1.0  0.42205  0.22755  0.47264  1.0000
  H   H595      1.0  0.37388  0.22614  0.36999  1.0000
  H   H596      1.0  0.53678  0.03704  0.14474  1.0000
  H   H597      1.0  0.59759  0.14920  0.34483  1.0000
  C   C595      1.0  0.35870  0.17273  0.05475  1.0000
  C   C596      1.0  0.34232  0.16171  0.06773  1.0000
  C   C597      1.0  0.49966  0.02583  0.43223  1.0000
  C   C598      1.0  0.44441  0.23803  0.38837  1.0000
  C   C599      1.0  0.34567  0.19640  0.04773  1.0000
  C   C600      1.0  0.36000  0.18979  0.04405  1.0000
  C   C601      1.0  0.47807  0.22293  0.09988  1.0000
  H   H598      1.0  0.34704  0.20985  0.03985  1.0000
  H   H599      1.0  0.37196  0.19785  0.03270  1.0000
  C   C602      1.0  0.52766  0.05212  0.44923  1.0000
  C   C603      1.0  0.52862  0.02804  0.23160  1.0000
  C   C604      1.0  0.52157  0.00944  0.22177  1.0000
  H   H600      1.0  0.41183  0.24388  0.42767  1.0000
  C   C605      1.0  0.61752  0.13070  0.32573  1.0000
  C   C606      1.0  0.49648  0.02648  0.23232  1.0000
  C   C607      1.0  0.51598  0.03657  0.23673  1.0000
  C   C608      1.0  0.32038  0.18852  0.26717  1.0000
  H   H601      1.0  0.48678  0.03310  0.23664  1.0000
  H   H602      1.0  0.52116  0.05079  0.24458  1.0000
  C   C609      1.0  0.48252  0.13820  0.01561  1.0000
  C   C610      1.0  0.49680  0.15207  0.03051  1.0000
  C   C611      1.0  0.49411  0.16815  0.03954  1.0000
  C   C612      1.0  0.47714  0.17044  0.03395  1.0000
  C   C613      1.0  0.46282  0.15648  0.01928  1.0000
  H   H603      1.0  0.47562  0.00184  0.41721  1.0000
  H   H604      1.0  0.50994  0.15051  0.03481  1.0000
  H   H605      1.0  0.50526  0.17889  0.05091  1.0000
  C   C614      1.0  0.61986  0.12378  0.37263  1.0000
  H   H606      1.0  0.58956  0.15145  0.39134  1.0000
  C   C615      1.0  0.55720  0.09910  0.10321  1.0000
  C   C616      1.0  0.56443  0.09054  0.12265  1.0000
  C   C617      1.0  0.56880  0.09811  0.14853  1.0000
  C   C618      1.0  0.56624  0.11455  0.15518  1.0000
  C   C619      1.0  0.55941  0.12338  0.13562  1.0000
  C   C620      1.0  0.55476  0.11562  0.10979  1.0000
  H   H607      1.0  0.56640  0.07778  0.11770  1.0000
  H   H608      1.0  0.57400  0.09114  0.16333  1.0000
  H   H609      1.0  0.55744  0.13613  0.14055  1.0000
  H   H610      1.0  0.54924  0.12237  0.09501  1.0000
  C   C621      1.0  0.56201  0.10084  0.40673  1.0000
  C   C622      1.0  0.55296  0.11221  0.39715  1.0000
  C   C623      1.0  0.55313  0.11617  0.36998  1.0000
  C   C624      1.0  0.56210  0.10862  0.35203  1.0000
  C   C625      1.0  0.57048  0.09662  0.36145  1.0000
  C   C626      1.0  0.57052  0.09285  0.38869  1.0000
  H   H611      1.0  0.54641  0.11850  0.41078  1.0000
  H   H612      1.0  0.54662  0.12549  0.36290  1.0000
  H   H613      1.0  0.57747  0.09075  0.34792  1.0000
  H   H614      1.0  0.57760  0.08407  0.39592  1.0000
  H   H615      1.0  0.34889  0.21646  0.10918  1.0000
  H   H616      1.0  0.62776  0.11538  0.36733  1.0000
  H   H617      1.0  0.64631  0.14703  0.27441  1.0000
  C   C627      1.0  0.35097  0.19136  0.12403  1.0000
  C   C628      1.0  0.46553  0.14046  0.01017  1.0000
  C   C629      1.0  0.60325  0.14287  0.36012  1.0000
  S   S215      1.0  0.48553  0.11849  0.00159  1.0000
  C   C630      1.0  0.36232  0.18107  0.12660  1.0000
  Fe  Fe108     1.0  0.39658  0.24040  0.30039  1.0000
  C   C631      1.0  0.48940  0.00772  0.22309  1.0000
  H   H618      1.0  0.33645  0.18544  0.13007  1.0000
  H   H619      1.0  0.45326  0.22125  0.44763  1.0000
  H   H620      1.0  0.38246  0.19977  0.42581  1.0000
  H   H621      1.0  0.54389  0.04320  0.17860  1.0000
  H   H622      1.0  0.62107  0.09854  0.17043  1.0000
  H   H623      1.0  0.37617  0.24357  0.09730  1.0000
  C   C632      1.0  0.35812  0.20897  0.11225  1.0000
  C   C633      1.0  0.32595  0.17598  0.33361  1.0000
  H   H624      1.0  0.50031  0.00662  0.04310  1.0000
  H   H625      1.0  0.35730  0.20354  0.37986  1.0000
  Fe  Fe109     1.0  0.42731  0.24342  0.26153  1.0000
  N   N49       1.0  0.47687  0.23884  0.14035  1.0000
  H   H626      1.0  0.64623  0.10622  0.17310  1.0000
  H   H627      1.0  0.54260  0.02614  0.44673  1.0000
  C   C634      1.0  0.52146  0.06170  0.13750  1.0000
  H   H628      1.0  0.32856  0.14035  0.27096  1.0000
  S   S216      1.0  0.32167  0.13853  0.33345  1.0000
  N   N50       1.0  0.52805  0.05782  0.16119  1.0000
  S   S217      1.0  0.54064  0.12125  0.01198  1.0000
  N   N51       1.0  0.38591  0.20738  0.38522  1.0000
  C   C635      1.0  0.52490  0.01098  0.99282  1.0000
  S   S218      1.0  0.45248  0.24122  0.35556  1.0000
  H   H629      1.0  0.44968  0.15804  0.01491  1.0000
  C   C636      1.0  0.51226  0.00538  0.28905  1.0000
  H   H630      1.0  0.51661  0.10214  0.15493  1.0000
  C   C637      1.0  0.45310  0.23048  0.40728  1.0000
  H   H631      1.0  0.54006  0.05425  0.46257  1.0000
  C   C638      1.0  0.32782  0.16826  0.07125  1.0000
  H   H632      1.0  0.38079  0.23195  0.06877  1.0000
  H   H633      1.0  0.32970  0.20516  0.33302  1.0000
  H   H634      1.0  0.34112  0.14838  0.07582  1.0000
  H   H635      1.0  0.52371  0.01870  0.29392  1.0000
  C   C639      1.0  0.40924  0.20005  0.36243  1.0000
  C   C640      1.0  0.37116  0.21496  0.38493  1.0000
  H   H636      1.0  0.47728  0.02017  0.02923  1.0000
  C   C641      1.0  0.43171  0.23211  0.44082  1.0000
  C   C642      1.0  0.43282  0.23909  0.13688  1.0000
  H   H637      1.0  0.33747  0.17312  0.25791  1.0000
  C   C643      1.0  0.60469  0.13498  0.40597  1.0000
  C   C644      1.0  0.38326  0.23435  0.09047  1.0000
  H   H638      1.0  0.32832  0.17012  0.00165  1.0000
  H   H639      1.0  0.37053  0.22137  0.40441  1.0000
  H   H640      1.0  0.52005  0.05284  0.12019  1.0000
  H   H641      1.0  0.52628  0.03887  0.00198  1.0000
  H   H642      1.0  0.63227  0.09744  0.20180  1.0000
  H   H643      1.0  0.61971  0.11711  0.41412  1.0000
  H   H644      1.0  0.52813  0.09463  0.19797  1.0000
  C   C645      1.0  0.44669  0.22738  0.43337  1.0000
  C   C646      1.0  0.51832  0.02563  0.99197  1.0000
  H   H645      1.0  0.64023  0.17465  0.21268  1.0000
  C   C647      1.0  0.41347  0.19247  0.38548  1.0000
  H   H646      1.0  0.51802  0.05676  0.46055  1.0000
  H   H647      1.0  0.40159  0.21182  0.09898  1.0000
  H   H648      1.0  0.53125  0.00276  0.21760  1.0000
  C   C648      1.0  0.38973  0.19966  0.40779  1.0000
  C   C649      1.0  0.38066  0.18852  0.11759  1.0000
  C   C650      1.0  0.51917  0.00229  0.43105  1.0000
  C   C651      1.0  0.47369  0.22274  0.15407  1.0000
  H   H649      1.0  0.42470  0.18728  0.38578  1.0000
  N   N52       1.0  0.37623  0.21629  0.10385  1.0000
  N   N53       1.0  0.51817  0.03244  0.44055  1.0000
  Fe  Fe110     1.0  0.54746  0.10288  0.47407  1.0000
  C   C652      1.0  0.32373  0.17207  0.26406  1.0000
  C   C653      1.0  0.38742  0.20626  0.10624  1.0000
  H   H650      1.0  0.53534  0.06615  0.20157  1.0000
  N   N54       1.0  0.63547  0.12489  0.19089  1.0000
  H   H651      1.0  0.40723  0.18693  0.42660  1.0000
  S   S219      1.0  0.51641  0.09574  0.47043  1.0000
  C   C654      1.0  0.39532  0.20748  0.36266  1.0000
  C   C655      1.0  0.53223  0.04092  0.16376  1.0000
  C   C656      1.0  0.47227  0.20622  0.14088  1.0000
  H   H652      1.0  0.60552  0.11863  0.31679  1.0000
  C   C657      1.0  0.53007  0.06922  0.18285  1.0000
  H   H653      1.0  0.38942  0.18040  0.11865  1.0000
  C   C658      1.0  0.48662  0.99738  0.03506  1.0000
  C   C659      1.0  0.63363  0.10583  0.18363  1.0000
  C   C660      1.0  0.49040  0.00719  0.42331  1.0000
  C   C661      1.0  0.49360  0.00375  0.28987  1.0000
  C   C662      1.0  0.42339  0.24012  0.42205  1.0000
  C   C663      1.0  0.47453  0.20638  0.11360  1.0000
  C   C664      1.0  0.47361  0.00512  0.02741  1.0000
  H   H654      1.0  0.60741  0.12059  0.17801  1.0000
  C   C665      1.0  0.52583  0.08523  0.18101  1.0000
  C   C666      1.0  0.40366  0.19223  0.40832  1.0000
  H   H655      1.0  0.47180  0.22250  0.17527  1.0000
  C   C667      1.0  0.63893  0.16073  0.20640  1.0000
  C   C668      1.0  0.51935  0.08943  0.15685  1.0000
  C   C669      1.0  0.52799  0.02100  0.43982  1.0000
  H   H656      1.0  0.49186  0.03489  0.43301  1.0000
  H   H657      1.0  0.47987  0.22316  0.07868  1.0000
  N   N55       1.0  0.61389  0.13292  0.35359  1.0000
  C   C670      1.0  0.59860  0.14416  0.38640  1.0000
  H   H658      1.0  0.51951  0.02903  0.17026  1.0000
  C   C671      1.0  0.32969  0.18583  0.06167  1.0000
  H   H659      1.0  0.39238  0.21371  0.34486  1.0000
  H   H660      1.0  0.47345  0.19369  0.10298  1.0000
  H   H661      1.0  0.53250  0.06127  0.43186  1.0000
  H   H662      1.0  0.61906  0.14348  0.31447  1.0000
  H   H663      1.0  0.63069  0.12819  0.32345  1.0000
  H   H664      1.0  0.46937  0.19337  0.15168  1.0000
  H   H665      1.0  0.33148  0.20213  0.26379  1.0000
  H   H666      1.0  0.48856  0.16399  0.47409  1.0000
  H   H667      1.0  0.61017  0.15225  0.19173  1.0000
  C   C672      1.0  0.47912  0.23910  0.11360  1.0000
  C   C673      1.0  0.62061  0.13023  0.18697  1.0000
  H   H668      1.0  0.39862  0.24204  0.09463  1.0000
  H   H669      1.0  0.45437  0.12977  0.99874  1.0000
  C   C674      1.0  0.62211  0.14820  0.19466  1.0000
  C   C675      1.0  0.42957  0.24292  0.39594  1.0000
  S   S220      1.0  0.46468  0.99514  0.21991  1.0000
  H   H670      1.0  0.44615  0.99942  0.00979  1.0000
  H   H671      1.0  0.64301  0.14608  0.77583  1.0000
  C   C676      1.0  0.32526  0.17835  0.82716  1.0000
  S   S221      1.0  0.56297  0.11734  0.94212  1.0000
  Fe  Fe111     1.0  0.54769  0.10903  0.53519  1.0000
  S   S222      1.0  0.51654  0.10227  0.53541  1.0000
  S   S223      1.0  0.56805  0.11455  0.57083  1.0000
  C   C677      1.0  0.53156  0.03991  0.79359  1.0000
  H   H672      1.0  0.40256  0.24328  0.58959  1.0000
  H   H673      1.0  0.53072  0.99725  0.71176  1.0000
  N   N56       1.0  0.39957  0.20403  0.87683  1.0000
  S   S224      1.0  0.54499  0.08446  0.50907  1.0000
  H   H674      1.0  0.49391  0.02511  0.79120  1.0000
  Fe  Fe112     1.0  0.56773  0.09310  0.78592  1.0000
  S   S225      1.0  0.58489  0.07577  0.77853  1.0000
  S   S226      1.0  0.54916  0.08682  0.82215  1.0000
  Fe  Fe113     1.0  0.57030  0.10514  0.72690  1.0000
  S   S227      1.0  0.58755  0.08859  0.71683  1.0000
  S   S228      1.0  0.55682  0.11714  0.69507  1.0000
  Fe  Fe114     1.0  0.56723  0.06591  0.74112  1.0000
  S   S229      1.0  0.55357  0.03540  0.72700  1.0000
  Fe  Fe115     1.0  0.60373  0.10050  0.75523  1.0000
  S   S230      1.0  0.63574  0.10806  0.75477  1.0000
  S   S231      1.0  0.54934  0.08188  0.74933  1.0000
  S   S232      1.0  0.58734  0.11857  0.76427  1.0000
  Fe  Fe116     1.0  0.40386  0.18861  0.55079  1.0000
  S   S233      1.0  0.41134  0.21901  0.54341  1.0000
  S   S234      1.0  0.37508  0.16830  0.56233  1.0000
  Fe  Fe117     1.0  0.44470  0.19226  0.54566  1.0000
  S   S235      1.0  0.45500  0.22342  0.53777  1.0000
  S   S236      1.0  0.46210  0.17514  0.55714  1.0000
  Fe  Fe118     1.0  0.43621  0.22418  0.57091  1.0000
  H   H675      1.0  0.52811  0.04753  0.52374  1.0000
  Fe  Fe119     1.0  0.42898  0.21533  0.51070  1.0000
  C   C678      1.0  0.48287  0.14329  0.94516  1.0000
  S   S237      1.0  0.42756  0.19387  0.58025  1.0000
  S   S238      1.0  0.41987  0.18411  0.51674  1.0000
  C   C679      1.0  0.54612  0.15613  0.55880  1.0000
  S   S239      1.0  0.36547  0.22959  0.81134  1.0000
  S   S240      1.0  0.41434  0.22763  0.79530  1.0000
  C   C680      1.0  0.33223  0.16566  0.81647  1.0000
  H   H676      1.0  0.38690  0.20590  0.93996  1.0000
  C   C681      1.0  0.33554  0.19785  0.82524  1.0000
  C   C682      1.0  0.35299  0.20490  0.81293  1.0000
  C   C683      1.0  0.36006  0.19222  0.80249  1.0000
  C   C684      1.0  0.34970  0.17271  0.80420  1.0000
  H   H677      1.0  0.52550  0.07931  0.69469  1.0000
  H   H678      1.0  0.37341  0.19741  0.79282  1.0000
  H   H679      1.0  0.35523  0.16302  0.79587  1.0000
  H   H680      1.0  0.53554  0.04210  0.81499  1.0000
  C   C685      1.0  0.43599  0.22396  0.64632  1.0000
  C   C686      1.0  0.43330  0.22026  0.67343  1.0000
  C   C687      1.0  0.50129  0.02289  0.97857  1.0000
  H   H681      1.0  0.43554  0.21292  0.63277  1.0000
  H   H682      1.0  0.43069  0.20631  0.68047  1.0000
  C   C688      1.0  0.38569  0.19683  0.63230  1.0000
  N   N57       1.0  0.53388  0.17803  0.54083  1.0000
  C   C689      1.0  0.42847  0.13272  0.54763  1.0000
  C   C690      1.0  0.51928  0.07217  0.67549  1.0000
  H   H683      1.0  0.45027  0.22264  0.94637  1.0000
  C   C691      1.0  0.35756  0.17727  0.56755  1.0000
  C   C692      1.0  0.34138  0.16639  0.58095  1.0000
  H   H684      1.0  0.54764  0.06940  0.59721  1.0000
  C   C693      1.0  0.32945  0.19122  0.57748  1.0000
  C   C694      1.0  0.34561  0.20208  0.56400  1.0000
  C   C695      1.0  0.35954  0.19507  0.55885  1.0000
  H   H685      1.0  0.33975  0.15263  0.58783  1.0000
  H   H686      1.0  0.34724  0.21586  0.55722  1.0000
  H   H687      1.0  0.37167  0.20341  0.54793  1.0000
  C   C696      1.0  0.39551  0.13785  0.53557  1.0000
  C   C697      1.0  0.52884  0.02359  0.72204  1.0000
  H   H688      1.0  0.52522  0.17213  0.60607  1.0000
  H   H689      1.0  0.55406  0.14934  0.95582  1.0000
  H   H690      1.0  0.53083  0.18179  0.49940  1.0000
  C   C698      1.0  0.49691  0.02257  0.72358  1.0000
  C   C699      1.0  0.51651  0.03268  0.72594  1.0000
  H   H691      1.0  0.53510  0.04276  0.94002  1.0000
  H   H692      1.0  0.48749  0.02964  0.72718  1.0000
  H   H693      1.0  0.52195  0.04738  0.73132  1.0000
  S   S241      1.0  0.42238  0.23369  0.97252  1.0000
  C   C700      1.0  0.49191  0.14485  0.53330  1.0000
  C   C701      1.0  0.48178  0.15289  0.54841  1.0000
  C   C702      1.0  0.47397  0.16486  0.53681  1.0000
  C   C703      1.0  0.47611  0.16850  0.50985  1.0000
  H   H694      1.0  0.51370  0.04305  0.92644  1.0000
  H   H695      1.0  0.49814  0.13593  0.54253  1.0000
  H   H696      1.0  0.48018  0.15000  0.56929  1.0000
  H   H697      1.0  0.41773  0.20722  0.84461  1.0000
  N   N58       1.0  0.51922  0.02025  0.78792  1.0000
  C   C704      1.0  0.56398  0.11427  0.60520  1.0000
  C   C705      1.0  0.57759  0.11274  0.62309  1.0000
  C   C706      1.0  0.57530  0.11299  0.65061  1.0000
  C   C707      1.0  0.55965  0.11545  0.66057  1.0000
  C   C708      1.0  0.54603  0.11703  0.64269  1.0000
  C   C709      1.0  0.54798  0.11608  0.61512  1.0000
  H   H698      1.0  0.59003  0.11137  0.61559  1.0000
  H   H699      1.0  0.58592  0.11183  0.66409  1.0000
  H   H700      1.0  0.53389  0.11897  0.65024  1.0000
  H   H701      1.0  0.53732  0.11707  0.60158  1.0000
  C   C710      1.0  0.55922  0.10825  0.90905  1.0000
  C   C711      1.0  0.54227  0.09388  0.90060  1.0000
  C   C712      1.0  0.53954  0.08751  0.87400  1.0000
  C   C713      1.0  0.55372  0.09528  0.85553  1.0000
  C   C714      1.0  0.57074  0.10950  0.86405  1.0000
  C   C715      1.0  0.57341  0.11599  0.89063  1.0000
  H   H702      1.0  0.53120  0.08782  0.91448  1.0000
  H   H703      1.0  0.52629  0.07658  0.86763  1.0000
  H   H704      1.0  0.58178  0.11563  0.85013  1.0000
  H   H705      1.0  0.58657  0.12710  0.89693  1.0000
  H   H706      1.0  0.54625  0.06179  0.69408  1.0000
  C   C716      1.0  0.41179  0.19762  0.86126  1.0000
  H   H707      1.0  0.40751  0.19528  0.91357  1.0000
  H   H708      1.0  0.50752  0.05861  0.67939  1.0000
  C   C717      1.0  0.48966  0.01357  0.49456  1.0000
  C   C718      1.0  0.52669  0.02043  0.51085  1.0000
  H   H709      1.0  0.57130  0.05966  0.62016  1.0000
  H   H710      1.0  0.54216  0.15075  0.60038  1.0000
  H   H711      1.0  0.51832  0.19152  0.51992  1.0000
  H   H712      1.0  0.39694  0.14641  0.57630  1.0000
  H   H713      1.0  0.44148  0.13085  0.55205  1.0000
  C   C719      1.0  0.51948  0.03438  0.51417  1.0000
  H   H714      1.0  0.52466  0.04966  0.78791  1.0000
  C   C720      1.0  0.48813  0.99612  0.78252  1.0000
  C   C721      1.0  0.42087  0.12926  0.52178  1.0000
  H   H715      1.0  0.39829  0.12941  0.49575  1.0000
  C   C722      1.0  0.54307  0.16618  0.53747  1.0000
  C   C723      1.0  0.48938  0.00325  0.71743  1.0000
  H   H716      1.0  0.52341  0.07482  0.62305  1.0000
  H   H717      1.0  0.54371  0.20298  0.51862  1.0000
  H   H718      1.0  0.53247  0.12771  0.92191  1.0000
  N   N59       1.0  0.50256  0.14531  0.94800  1.0000
  C   C724      1.0  0.50884  0.13469  0.93212  1.0000
  C   C725      1.0  0.51439  0.15733  0.96672  1.0000
  C   C726      1.0  0.52751  0.13621  0.93442  1.0000
  H   H719      1.0  0.54421  0.01658  0.93116  1.0000
  C   C727      1.0  0.50007  0.01484  0.78790  1.0000
  S   S242      1.0  0.55317  0.12835  0.50034  1.0000
  H   H720      1.0  0.49935  0.12480  0.91777  1.0000
  H   H721      1.0  0.46109  0.22663  0.90006  1.0000
  C   C728      1.0  0.52574  0.03905  0.92194  1.0000
  C   C729      1.0  0.56008  0.05979  0.65870  1.0000
  H   H722      1.0  0.42797  0.12484  0.50650  1.0000
  H   H723      1.0  0.55340  0.14670  0.55614  1.0000
  C   C730      1.0  0.38967  0.21228  0.61586  1.0000
  Fe  Fe120     1.0  0.52160  0.11993  0.49895  1.0000
  C   C731      1.0  0.56055  0.06197  0.63134  1.0000
  S   S243      1.0  0.51131  0.09343  0.96673  1.0000
  H   H724      1.0  0.49294  0.01729  0.89858  1.0000
  H   H725      1.0  0.54105  0.02316  0.51729  1.0000
  S   S244      1.0  0.49238  0.04913  0.50719  1.0000
  C   C732      1.0  0.32740  0.17335  0.58594  1.0000
  C   C733      1.0  0.53165  0.18919  0.51864  1.0000
  H   H726      1.0  0.40366  0.18325  0.85317  1.0000
  H   H727      1.0  0.39008  0.21021  0.59474  1.0000
  H   H728      1.0  0.38906  0.21382  0.84312  1.0000
  Fe  Fe121     1.0  0.54235  0.10511  0.97513  1.0000
  Fe  Fe122     1.0  0.51429  0.07881  0.50693  1.0000
  C   C734      1.0  0.53975  0.15834  0.58364  1.0000
  C   C735      1.0  0.43134  0.23678  0.94023  1.0000
  C   C736      1.0  0.52759  0.18028  0.56514  1.0000
  C   C737      1.0  0.53360  0.07049  0.63321  1.0000
  C   C738      1.0  0.40366  0.14144  0.56111  1.0000
  C   C739      1.0  0.53065  0.00947  0.92102  1.0000
  C   C740      1.0  0.53965  0.14837  0.95349  1.0000
  S   S245      1.0  0.49206  0.04034  0.97725  1.0000
  C   C741      1.0  0.39278  0.23235  0.65299  1.0000
  H   H729      1.0  0.36693  0.22055  0.91754  1.0000
  H   H730      1.0  0.50933  0.16546  0.97971  1.0000
  H   H731      1.0  0.32998  0.20754  0.83349  1.0000
  H   H732      1.0  0.51371  0.08164  0.66504  1.0000
  H   H733      1.0  0.53352  0.04759  0.90529  1.0000
  C   C742      1.0  0.54642  0.06332  0.67283  1.0000
  H   H734      1.0  0.47936  0.14541  0.92433  1.0000
  C   C743      1.0  0.42826  0.14297  0.59374  1.0000
  N   N60       1.0  0.39330  0.22977  0.62629  1.0000
  C   C744      1.0  0.39868  0.20140  0.90356  1.0000
  C   C745      1.0  0.38692  0.20728  0.91860  1.0000
  C   C746      1.0  0.37661  0.21793  0.87874  1.0000
  H   H735      1.0  0.62473  0.13786  0.72878  1.0000
  H   H736      1.0  0.47536  0.01094  0.48801  1.0000
  C   C747      1.0  0.51553  0.00309  0.49902  1.0000
  N   N61       1.0  0.42004  0.13905  0.56678  1.0000
  C   C748      1.0  0.40427  0.13187  0.51576  1.0000
  H   H737      1.0  0.47993  0.15360  0.95784  1.0000
  H   H738      1.0  0.47345  0.12901  0.95133  1.0000
  H   H739      1.0  0.41968  0.13189  0.60724  1.0000
  H   H740      1.0  0.52018  0.18957  0.56775  1.0000
  C   C749      1.0  0.38901  0.21726  0.67007  1.0000
  H   H741      1.0  0.54790  0.16428  0.51813  1.0000
  C   C750      1.0  0.37588  0.21566  0.90607  1.0000
  C   C751      1.0  0.48649  0.16067  0.49481  1.0000
  H   H742      1.0  0.38268  0.14011  0.53112  1.0000
  C   C752      1.0  0.49459  0.14898  0.50650  1.0000
  H   H743      1.0  0.57024  0.05548  0.66907  1.0000
  C   C753      1.0  0.44463  0.22974  0.93227  1.0000
  S   S246      1.0  0.45102  0.24316  0.85439  1.0000
  N   N62       1.0  0.53357  0.06882  0.66012  1.0000
  H   H744      1.0  0.44300  0.14379  0.59456  1.0000
  C   C754      1.0  0.43940  0.24192  0.63693  1.0000
  C   C755      1.0  0.38551  0.19941  0.65961  1.0000
  H   H745      1.0  0.38296  0.18304  0.62380  1.0000
  S   S247      1.0  0.42890  0.22830  0.72498  1.0000
  N   N63       1.0  0.51925  0.01893  0.91534  1.0000
  C   C756      1.0  0.38855  0.21194  0.86434  1.0000
  H   H746      1.0  0.42895  0.15689  0.60085  1.0000
  H   H747      1.0  0.38949  0.21955  0.69135  1.0000
  H   H748      1.0  0.54228  0.16815  0.98513  1.0000
  H   H749      1.0  0.42408  0.19770  0.87338  1.0000
  C   C757      1.0  0.52133  0.00442  0.71496  1.0000
  C   C758      1.0  0.52695  0.00731  0.78337  1.0000
  C   C759      1.0  0.50108  0.03117  0.50553  1.0000
  H   H750      1.0  0.62305  0.14666  0.69608  1.0000
  C   C760      1.0  0.54720  0.06730  0.61844  1.0000
  H   H751      1.0  0.32294  0.16103  0.71242  1.0000
  C   C761      1.0  0.50202  0.00983  0.90292  1.0000
  C   C762      1.0  0.43370  0.23436  0.69146  1.0000
  H   H752      1.0  0.54213  0.01166  0.78291  1.0000
  H   H753      1.0  0.54462  0.04408  0.78215  1.0000
  C   C763      1.0  0.53307  0.15895  0.96987  1.0000
  C   C764      1.0  0.49691  0.99960  0.49110  1.0000
  H   H754      1.0  0.47016  0.17768  0.50070  1.0000
  C   C765      1.0  0.53034  0.17041  0.58686  1.0000
  C   C766      1.0  0.44326  0.24091  0.88734  1.0000
  H   H755      1.0  0.38297  0.18770  0.67273  1.0000
  H   H756      1.0  0.47797  0.00356  0.95525  1.0000
  S   S248      1.0  0.31945  0.14098  0.81733  1.0000
  H   H757      1.0  0.36806  0.22438  0.86868  1.0000
  H   H758      1.0  0.62382  0.12386  0.70003  1.0000
  C   C767      1.0  0.62940  0.13850  0.70808  1.0000
  C   C768      1.0  0.49105  0.00568  0.96589  1.0000
  C   C769      1.0  0.45069  0.23198  0.90599  1.0000
  S   S249      1.0  0.50961  0.14166  0.48763  1.0000
  Fe  Fe123     1.0  0.39591  0.24374  0.79886  1.0000
  Fe  Fe124     1.0  0.50637  0.45555  0.25644  1.0000
  S   S250      1.0  0.53651  0.47331  0.26582  1.0000
  S   S251      1.0  0.48754  0.47093  0.24521  1.0000
  Fe  Fe125     1.0  0.51202  0.41885  0.26709  1.0000
  S   S252      1.0  0.54299  0.43527  0.27735  1.0000
  S   S253      1.0  0.50382  0.38687  0.26264  1.0000
  Fe  Fe126     1.0  0.53352  0.45482  0.30097  1.0000
  S   S254      1.0  0.54386  0.47352  0.33834  1.0000
  Fe  Fe127     1.0  0.54265  0.45228  0.24136  1.0000
  S   S255      1.0  0.56544  0.46098  0.21060  1.0000
  S   S256      1.0  0.50264  0.43768  0.29262  1.0000
  S   S257      1.0  0.51251  0.43523  0.23005  1.0000
  S   S258      1.0  0.43717  0.24516  0.10327  1.0000
  S   S259      1.0  0.56409  0.45716  0.45640  1.0000
  H   H759      1.0  0.44875  0.28340  0.41110  1.0000
  C   C770      1.0  0.35873  0.48984  0.43732  1.0000
  H   H760      1.0  0.62098  0.48531  0.48277  1.0000
  S   S260      1.0  0.58993  0.48022  0.03159  1.0000
  H   H761      1.0  0.51396  0.41726  0.12882  1.0000
  S   S261      1.0  0.40680  0.25768  0.26396  1.0000
  Fe  Fe128     1.0  0.43629  0.24812  0.32163  1.0000
  S   S262      1.0  0.41675  0.26284  0.32759  1.0000
  H   H762      1.0  0.49494  0.39825  0.16529  1.0000
  H   H763      1.0  0.54342  0.43919  0.36372  1.0000
  Fe  Fe129     1.0  0.42908  0.27892  0.29085  1.0000
  S   S263      1.0  0.43513  0.31057  0.29238  1.0000
  S   S264      1.0  0.45015  0.26545  0.28660  1.0000
  H   H764      1.0  0.59033  0.47346  0.16705  1.0000
  H   H765      1.0  0.56428  0.42775  0.17580  1.0000
  H   H766      1.0  0.52695  0.46680  0.13402  1.0000
  C   C771      1.0  0.43287  0.25286  0.15526  1.0000
  H   H767      1.0  0.54880  0.43174  0.13415  1.0000
  C   C772      1.0  0.51019  0.40455  0.16726  1.0000
  H   H768      1.0  0.42281  0.24882  0.38167  1.0000
  C   C773      1.0  0.54040  0.42318  0.14972  1.0000
  C   C774      1.0  0.51934  0.40238  0.19052  1.0000
  C   C775      1.0  0.35807  0.47250  0.42788  1.0000
  C   C776      1.0  0.34053  0.45755  0.42230  1.0000
  C   C777      1.0  0.61664  0.47560  0.46530  1.0000
  H   H769      1.0  0.48127  0.48637  0.30818  1.0000
  H   H770      1.0  0.37106  0.47058  0.42490  1.0000
  H   H771      1.0  0.34029  0.44425  0.41506  1.0000
  C   C778      1.0  0.48457  0.36590  0.27144  1.0000
  C   C779      1.0  0.48547  0.34834  0.26593  1.0000
  C   C780      1.0  0.47057  0.33131  0.27213  1.0000
  C   C781      1.0  0.45444  0.33158  0.28388  1.0000
  C   C782      1.0  0.45357  0.34913  0.28951  1.0000
  C   C783      1.0  0.46850  0.36615  0.28339  1.0000
  H   H772      1.0  0.49777  0.34790  0.25665  1.0000
  H   H773      1.0  0.47150  0.31801  0.26752  1.0000
  H   H774      1.0  0.44119  0.34957  0.29857  1.0000
  H   H775      1.0  0.46749  0.37946  0.28775  1.0000
  C   C784      1.0  0.56158  0.46689  0.17760  1.0000
  C   C785      1.0  0.57650  0.47219  0.15999  1.0000
  C   C786      1.0  0.57366  0.47565  0.13315  1.0000
  C   C787      1.0  0.55576  0.47364  0.12356  1.0000
  C   C788      1.0  0.54087  0.46851  0.14126  1.0000
  C   C789      1.0  0.54377  0.46528  0.16813  1.0000
  S   S265      1.0  0.55161  0.48563  0.01675  1.0000
  N   N64       1.0  0.53854  0.41081  0.19349  1.0000
  S   S266      1.0  0.55078  0.47619  0.08957  1.0000
  H   H776      1.0  0.53212  0.46111  0.18135  1.0000
  C   C790      1.0  0.54849  0.46822  0.37126  1.0000
  H   H777      1.0  0.59701  0.45914  0.42166  1.0000
  C   C791      1.0  0.55804  0.47932  0.41701  1.0000
  C   C792      1.0  0.55724  0.46156  0.42412  1.0000
  C   C793      1.0  0.55187  0.44713  0.40472  1.0000
  C   C794      1.0  0.54746  0.45041  0.37845  1.0000
  H   H778      1.0  0.56230  0.49059  0.43164  1.0000
  Fe  Fe130     1.0  0.57367  0.48056  0.99381  1.0000
  H   H779      1.0  0.55123  0.43335  0.40999  1.0000
  H   H780      1.0  0.55941  0.42219  0.22423  1.0000
  H   H781      1.0  0.55414  0.39791  0.21497  1.0000
  C   C795      1.0  0.55377  0.48263  0.39071  1.0000
  C   C796      1.0  0.52082  0.41512  0.14681  1.0000
  H   H782      1.0  0.59143  0.47440  0.38134  1.0000
  H   H783      1.0  0.47831  0.48629  0.40362  1.0000
  H   H784      1.0  0.43438  0.26660  0.14843  1.0000
  H   H785      1.0  0.51096  0.39424  0.20642  1.0000
  H   H786      1.0  0.53816  0.40415  0.23453  1.0000
  C   C797      1.0  0.54908  0.42086  0.17333  1.0000
  Fe  Fe131     1.0  0.56928  0.48851  0.05394  1.0000
  N   N65       1.0  0.47139  0.29425  0.35340  1.0000
  C   C798      1.0  0.46642  0.28642  0.37762  1.0000
  C   C799      1.0  0.46366  0.30616  0.34342  1.0000
  C   C800      1.0  0.45291  0.28997  0.39214  1.0000
  C   C801      1.0  0.45008  0.30999  0.35736  1.0000
  C   C802      1.0  0.44461  0.30174  0.38180  1.0000
  C   C803      1.0  0.48567  0.29039  0.33869  1.0000
  H   H787      1.0  0.47264  0.27705  0.38560  1.0000
  H   H788      1.0  0.46774  0.31260  0.32440  1.0000
  C   C804      1.0  0.32402  0.47699  0.43539  1.0000
  H   H789      1.0  0.44367  0.31909  0.34894  1.0000
  H   H790      1.0  0.43392  0.30442  0.39262  1.0000
  H   H791      1.0  0.49988  0.29856  0.34753  1.0000
  H   H792      1.0  0.48294  0.27515  0.33916  1.0000
  H   H793      1.0  0.48544  0.29408  0.31751  1.0000
  H   H794      1.0  0.62782  0.47023  0.46178  1.0000
  C   C805      1.0  0.32336  0.45965  0.42596  1.0000
  H   H795      1.0  0.52143  0.48262  0.43144  1.0000
  H   H796      1.0  0.48140  0.25178  0.10264  1.0000
  H   H797      1.0  0.49709  0.47010  0.42296  1.0000
  C   C806      1.0  0.60327  0.47434  0.42054  1.0000
  H   H798      1.0  0.60346  0.46372  0.47048  1.0000
  C   C807      1.0  0.54803  0.40860  0.21797  1.0000
  H   H799      1.0  0.43221  0.26013  0.19657  1.0000
  H   H800      1.0  0.52585  0.49396  0.22963  1.0000
  H   H801      1.0  0.58522  0.47951  0.11979  1.0000
  H   H802      1.0  0.49361  0.47859  0.47376  1.0000
  C   C808      1.0  0.60005  0.48290  0.39769  1.0000
  C   C809      1.0  0.43167  0.24925  0.18258  1.0000
  H   H803      1.0  0.47300  0.26468  0.14220  1.0000
  N   N66       1.0  0.61342  0.48497  0.44167  1.0000
  H   H804      1.0  0.51395  0.47830  0.39701  1.0000
  H   H805      1.0  0.47076  0.25304  0.17300  1.0000
  H   H806      1.0  0.48953  0.48332  0.99115  1.0000
  C   C810      1.0  0.51009  0.48178  0.41677  1.0000
  H   H807      1.0  0.49386  0.26458  0.15953  1.0000
  C   C811      1.0  0.34156  0.49191  0.44105  1.0000
  C   C812      1.0  0.47881  0.25616  0.15450  1.0000
  H   H808      1.0  0.51098  0.48116  0.31114  1.0000
  H   H809      1.0  0.48893  0.48842  0.17253  1.0000
  S   S267      1.0  0.46496  0.49335  0.46691  1.0000
  H   H810      1.0  0.52762  0.49349  0.48538  1.0000
  C   C813      1.0  0.49998  0.49348  0.47838  1.0000
  Fe  Fe132     1.0  0.51295  0.45641  0.75964  1.0000
  S   S268      1.0  0.54348  0.47379  0.76624  1.0000
  S   S269      1.0  0.49424  0.47134  0.74581  1.0000
  Fe  Fe133     1.0  0.51822  0.41949  0.76891  1.0000
  S   S270      1.0  0.54972  0.43532  0.77564  1.0000
  S   S271      1.0  0.50915  0.38731  0.76719  1.0000
  Fe  Fe134     1.0  0.54209  0.45530  0.80101  1.0000
  S   S272      1.0  0.55816  0.47280  0.83725  1.0000
  Fe  Fe135     1.0  0.54807  0.45245  0.74043  1.0000
  S   S273      1.0  0.56992  0.46310  0.70844  1.0000
  S   S274      1.0  0.51072  0.43891  0.79602  1.0000
  S   S275      1.0  0.51744  0.43561  0.73204  1.0000
  H   H811      1.0  0.51694  0.46711  0.89589  1.0000
  S   S276      1.0  0.56202  0.45791  0.96118  1.0000
  N   N67       1.0  0.53041  0.48142  0.93163  1.0000
  S   S277      1.0  0.55329  0.47294  0.58609  1.0000
  H   H812      1.0  0.51958  0.47706  0.55582  1.0000
  S   S278      1.0  0.59113  0.47858  0.52530  1.0000
  H   H813      1.0  0.51154  0.41042  0.67759  1.0000
  S   S279      1.0  0.40654  0.26071  0.76233  1.0000
  H   H814      1.0  0.42397  0.25466  0.88123  1.0000
  S   S280      1.0  0.41641  0.26597  0.82592  1.0000
  H   H815      1.0  0.58557  0.43026  0.69342  1.0000
  H   H816      1.0  0.53943  0.43921  0.86914  1.0000
  Fe  Fe136     1.0  0.42917  0.28166  0.78914  1.0000
  S   S281      1.0  0.43591  0.31340  0.79008  1.0000
  S   S282      1.0  0.44969  0.26750  0.78514  1.0000
  Fe  Fe137     1.0  0.57144  0.48636  0.55074  1.0000
  H   H817      1.0  0.44290  0.27013  0.64797  1.0000
  H   H818      1.0  0.50600  0.46598  0.95267  1.0000
  H   H819      1.0  0.43703  0.30372  0.86400  1.0000
  H   H820      1.0  0.53411  0.49377  0.86739  1.0000
  H   H821      1.0  0.51668  0.39351  0.65770  1.0000
  H   H822      1.0  0.50268  0.29435  0.84528  1.0000
  H   H823      1.0  0.57834  0.41347  0.73605  1.0000
  H   H824      1.0  0.52758  0.41830  0.65114  1.0000
  C   C814      1.0  0.35915  0.47417  0.93893  1.0000
  C   C815      1.0  0.34171  0.45872  0.94053  1.0000
  C   C816      1.0  0.32497  0.45937  0.92951  1.0000
  C   C817      1.0  0.32590  0.47577  0.91693  1.0000
  H   H825      1.0  0.37186  0.47338  0.94741  1.0000
  H   H826      1.0  0.34124  0.44616  0.95033  1.0000
  C   C818      1.0  0.48842  0.36701  0.77323  1.0000
  C   C819      1.0  0.48869  0.34906  0.76884  1.0000
  C   C820      1.0  0.47274  0.33252  0.77343  1.0000
  C   C821      1.0  0.45624  0.33369  0.78258  1.0000
  C   C822      1.0  0.45599  0.35164  0.78701  1.0000
  C   C823      1.0  0.47193  0.36817  0.78238  1.0000
  H   H827      1.0  0.50133  0.34792  0.76175  1.0000
  H   H828      1.0  0.47321  0.31888  0.76992  1.0000
  H   H829      1.0  0.44334  0.35276  0.79411  1.0000
  H   H830      1.0  0.47142  0.38180  0.78589  1.0000
  C   C824      1.0  0.56508  0.46619  0.67461  1.0000
  C   C825      1.0  0.58015  0.47475  0.65777  1.0000
  C   C826      1.0  0.57689  0.47709  0.63068  1.0000
  C   C827      1.0  0.55847  0.47074  0.62008  1.0000
  C   C828      1.0  0.54340  0.46212  0.63695  1.0000
  C   C829      1.0  0.54666  0.45989  0.66403  1.0000
  C   C830      1.0  0.52277  0.40777  0.66702  1.0000
  C   C831      1.0  0.56713  0.41187  0.72160  1.0000
  H   H831      1.0  0.52910  0.45708  0.62893  1.0000
  H   H832      1.0  0.53491  0.45317  0.67665  1.0000
  C   C832      1.0  0.55968  0.46774  0.87133  1.0000
  H   H833      1.0  0.41390  0.25148  0.92764  1.0000
  C   C833      1.0  0.44015  0.25615  0.65501  1.0000
  C   C834      1.0  0.56172  0.46197  0.92659  1.0000
  C   C835      1.0  0.54989  0.44750  0.90944  1.0000
  C   C836      1.0  0.54875  0.45038  0.88200  1.0000
  H   H834      1.0  0.59447  0.47963  0.66571  1.0000
  C   C837      1.0  0.46055  0.32633  0.84804  1.0000
  H   H835      1.0  0.54144  0.43401  0.91747  1.0000
  Fe  Fe138     1.0  0.43542  0.25064  0.82032  1.0000
  H   H836      1.0  0.54514  0.39356  0.74576  1.0000
  C   C838      1.0  0.54851  0.40080  0.72710  1.0000
  C   C839      1.0  0.47867  0.33171  0.83852  1.0000
  H   H837      1.0  0.45318  0.28154  0.86411  1.0000
  C   C840      1.0  0.51990  0.46561  0.94833  1.0000
  N   N68       1.0  0.47826  0.30108  0.84778  1.0000
  H   H838      1.0  0.50109  0.32287  0.82989  1.0000
  H   H839      1.0  0.52548  0.48771  0.65729  1.0000
  H   H840      1.0  0.48429  0.27882  0.86491  1.0000
  H   H841      1.0  0.51795  0.45204  0.93850  1.0000
  C   C841      1.0  0.48727  0.31875  0.83819  1.0000
  C   C842      1.0  0.46049  0.29569  0.85714  1.0000
  S   S283      1.0  0.55177  0.48344  0.51577  1.0000
  C   C843      1.0  0.57120  0.42118  0.69763  1.0000
  C   C844      1.0  0.34335  0.49119  0.91527  1.0000
  H   H842      1.0  0.48133  0.27772  0.82944  1.0000
  H   H843      1.0  0.58862  0.48372  0.61798  1.0000
  H   H844      1.0  0.45335  0.33594  0.84713  1.0000
  H   H845      1.0  0.48565  0.34561  0.83043  1.0000
  C   C845      1.0  0.46801  0.49373  0.77744  1.0000
  C   C846      1.0  0.45135  0.30821  0.85738  1.0000
  H   H846      1.0  0.55980  0.42726  0.66140  1.0000
  C   C847      1.0  0.57178  0.48205  0.88843  1.0000
  H   H847      1.0  0.51964  0.39111  0.71340  1.0000
  C   C848      1.0  0.52183  0.49320  0.67576  1.0000
  N   N69       1.0  0.53820  0.40911  0.68561  1.0000
  C   C849      1.0  0.53413  0.39954  0.70876  1.0000
  C   C850      1.0  0.55649  0.41956  0.67968  1.0000
  C   C851      1.0  0.57270  0.47926  0.91587  1.0000
  H   H848      1.0  0.48951  0.49263  0.80467  1.0000
  H   H849      1.0  0.54447  0.48330  0.70717  1.0000
  C   C852      1.0  0.49885  0.48890  0.54728  1.0000
  C   C853      1.0  0.42991  0.24784  0.89530  1.0000
  Fe  Fe139     1.0  0.57277  0.47900  0.48998  1.0000
  H   H850      1.0  0.52771  0.46609  0.96732  1.0000
  H   H851      1.0  0.43758  0.26338  0.69581  1.0000
  C   C854      1.0  0.48716  0.28741  0.84675  1.0000
  S   S284      1.0  0.44216  0.24694  0.60275  1.0000
  H   H852      1.0  0.58198  0.49048  0.92871  1.0000
  H   H853      1.0  0.40826  0.25860  0.61768  1.0000
  Fe  Fe140     1.0  0.42645  0.24576  0.76026  1.0000
  C   C855      1.0  0.51666  0.48974  0.55519  1.0000
  C   C856      1.0  0.52682  0.48009  0.90491  1.0000
  C   C857      1.0  0.36013  0.49055  0.92620  1.0000
  C   C858      1.0  0.42420  0.24601  0.92167  1.0000
  C   C859      1.0  0.43717  0.25238  0.68214  1.0000
  H   H854      1.0  0.48779  0.47556  0.54141  1.0000
  H   H855      1.0  0.51382  0.48120  0.68845  1.0000
  H   H856      1.0  0.46071  0.47858  0.77598  1.0000
  H   H857      1.0  0.38403  0.24829  0.60492  1.0000
  C   C860      1.0  0.39710  0.24577  0.60876  1.0000
  H   H858      1.0  0.39588  0.24626  0.66132  1.0000
  Fe  Fe141     1.0  0.50938  0.57364  0.20790  1.0000
  S   S285      1.0  0.47887  0.55660  0.20041  1.0000
  S   S286      1.0  0.52760  0.55749  0.21830  1.0000
  Fe  Fe142     1.0  0.50453  0.61075  0.19824  1.0000
  S   S287      1.0  0.47310  0.59507  0.19043  1.0000
  S   S288      1.0  0.51386  0.64296  0.20133  1.0000
  Fe  Fe143     1.0  0.47423  0.57797  0.22595  1.0000
  S   S289      1.0  0.45213  0.56844  0.25768  1.0000
  Fe  Fe144     1.0  0.48101  0.57500  0.16546  1.0000
  S   S290      1.0  0.46748  0.55561  0.12967  1.0000
  S   S291      1.0  0.50483  0.59449  0.23521  1.0000
  S   S292      1.0  0.51228  0.59126  0.17160  1.0000
  C   C861      1.0  0.51726  0.50612  0.16332  1.0000
  S   S293      1.0  0.58544  0.51962  0.04920  1.0000
  Fe  Fe145     1.0  0.56861  0.51596  0.01074  1.0000
  C   C862      1.0  0.48837  0.50618  0.23645  1.0000
  C   C863      1.0  0.52824  0.50966  0.30154  1.0000
  S   S294      1.0  0.63787  0.52106  0.03247  1.0000
  Fe  Fe146     1.0  0.41250  0.51740  0.44356  1.0000
  S   S295      1.0  0.42880  0.54837  0.43606  1.0000
  H   H859      1.0  0.46343  0.50889  0.01527  1.0000
  Fe  Fe147     1.0  0.44946  0.51205  0.45568  1.0000
  S   S296      1.0  0.46707  0.54218  0.44899  1.0000
  H   H860      1.0  0.43721  0.59846  0.25738  1.0000
  H   H861      1.0  0.54134  0.52788  0.22074  1.0000
  S   S297      1.0  0.45305  0.56955  0.00781  1.0000
  Fe  Fe148     1.0  0.44850  0.53922  0.41273  1.0000
  S   S298      1.0  0.46743  0.55031  0.37725  1.0000
  H   H862      1.0  0.59027  0.72398  0.11263  1.0000
  S   S299      1.0  0.43152  0.50835  0.41834  1.0000
  S   S300      1.0  0.58377  0.71744  0.16939  1.0000
  H   H863      1.0  0.46506  0.50554  0.29076  1.0000
  C   C864      1.0  0.54296  0.73980  0.11787  1.0000
  H   H864      1.0  0.48901  0.53185  0.48334  1.0000
  H   H865      1.0  0.46238  0.49713  0.16010  1.0000
  C   C865      1.0  0.48734  0.51625  0.40609  1.0000
  H   H866      1.0  0.50008  0.54629  0.41141  1.0000
  N   N70       1.0  0.49124  0.51601  0.16239  1.0000
  H   H867      1.0  0.54434  0.52745  0.15497  1.0000
  C   C866      1.0  0.50040  0.62521  0.29228  1.0000
  C   C867      1.0  0.51745  0.50515  0.99282  1.0000
  H   H868      1.0  0.58616  0.73424  0.08238  1.0000
  H   H869      1.0  0.64431  0.56072  0.02316  1.0000
  H   H870      1.0  0.48388  0.60716  0.32249  1.0000
  C   C868      1.0  0.47709  0.51843  0.29773  1.0000
  C   C869      1.0  0.53367  0.66342  0.19259  1.0000
  C   C870      1.0  0.53379  0.68129  0.19888  1.0000
  C   C871      1.0  0.54905  0.69794  0.19238  1.0000
  C   C872      1.0  0.56446  0.69697  0.17939  1.0000
  C   C873      1.0  0.56433  0.67911  0.17307  1.0000
  C   C874      1.0  0.54909  0.66246  0.17961  1.0000
  H   H871      1.0  0.52199  0.68227  0.20892  1.0000
  H   H872      1.0  0.54886  0.71151  0.19737  1.0000
  H   H873      1.0  0.57614  0.67813  0.16302  1.0000
  H   H874      1.0  0.54929  0.64890  0.17460  1.0000
  C   C875      1.0  0.46368  0.56000  0.09592  1.0000
  C   C876      1.0  0.46961  0.57815  0.08590  1.0000
  C   C877      1.0  0.46619  0.58079  0.05895  1.0000
  C   C878      1.0  0.45688  0.56539  0.04168  1.0000
  C   C879      1.0  0.45095  0.54724  0.05173  1.0000
  C   C880      1.0  0.45439  0.54459  0.07863  1.0000
  H   H875      1.0  0.47673  0.59014  0.09890  1.0000
  H   H876      1.0  0.47076  0.59489  0.05145  1.0000
  H   H877      1.0  0.44345  0.53525  0.03888  1.0000
  H   H878      1.0  0.44957  0.53051  0.08621  1.0000
  C   C881      1.0  0.45650  0.56276  0.29056  1.0000
  C   C882      1.0  0.47463  0.56555  0.30006  1.0000
  C   C883      1.0  0.47765  0.56170  0.32662  1.0000
  C   C884      1.0  0.46261  0.55492  0.34401  1.0000
  C   C885      1.0  0.44448  0.55207  0.33449  1.0000
  C   C886      1.0  0.44148  0.55603  0.30794  1.0000
  H   H879      1.0  0.48636  0.57085  0.28701  1.0000
  H   H880      1.0  0.49176  0.56403  0.33379  1.0000
  H   H881      1.0  0.43276  0.54686  0.34757  1.0000
  H   H882      1.0  0.42739  0.55385  0.30084  1.0000
  C   C887      1.0  0.51623  0.53338  0.22539  1.0000
  C   C888      1.0  0.49713  0.52543  0.23123  1.0000
  C   C889      1.0  0.47440  0.51343  0.03150  1.0000
  C   C890      1.0  0.52185  0.55271  0.02820  1.0000
  H   H883      1.0  0.52814  0.57987  0.01111  1.0000
  C   C891      1.0  0.52657  0.52192  0.22534  1.0000
  H   H884      1.0  0.48916  0.53415  0.23257  1.0000
  C   C892      1.0  0.51723  0.56639  0.01545  1.0000
  H   H885      1.0  0.57666  0.70916  0.08548  1.0000
  C   C893      1.0  0.49985  0.63274  0.26744  1.0000
  C   C894      1.0  0.49850  0.56253  0.00805  1.0000
  C   C895      1.0  0.61800  0.51319  0.41798  1.0000
  H   H886      1.0  0.53560  0.51620  0.42846  1.0000
  N   N71       1.0  0.48933  0.53153  0.02554  1.0000
  H   H887      1.0  0.44992  0.60818  0.22867  1.0000
  H   H888      1.0  0.46631  0.52115  0.15415  1.0000
  C   C896      1.0  0.48470  0.54490  0.01319  1.0000
  H   H889      1.0  0.45369  0.59963  0.29781  1.0000
  C   C897      1.0  0.49814  0.50231  0.16644  1.0000
  H   H890      1.0  0.49458  0.57304  0.99831  1.0000
  H   H891      1.0  0.47417  0.52255  0.31769  1.0000
  Fe  Fe149     1.0  0.60570  0.51150  0.02532  1.0000
  H   H892      1.0  0.52584  0.69600  0.14346  1.0000
  H   H893      1.0  0.51378  0.62841  0.30276  1.0000
  H   H894      1.0  0.53173  0.55245  0.14917  1.0000
  C   C898      1.0  0.52837  0.52723  0.29500  1.0000
  C   C899      1.0  0.51141  0.52990  0.29391  1.0000
  C   C900      1.0  0.53484  0.70807  0.13263  1.0000
  C   C901      1.0  0.48897  0.50427  0.47694  1.0000
  C   C902      1.0  0.53095  0.72426  0.13132  1.0000
  S   S301      1.0  0.58843  0.50949  0.48231  1.0000
  H   H895      1.0  0.34179  0.50522  0.44829  1.0000
  H   H896      1.0  0.53123  0.54624  0.42615  1.0000
  S   S302      1.0  0.42898  0.51792  0.48147  1.0000
  C   C903      1.0  0.55084  0.70774  0.12060  1.0000
  H   H897      1.0  0.39580  0.54380  0.47527  1.0000
  H   H898      1.0  0.46895  0.51396  0.18733  1.0000
  H   H899      1.0  0.54125  0.50727  0.30230  1.0000
  H   H900      1.0  0.52274  0.49529  0.16671  1.0000
  S   S303      1.0  0.38039  0.50931  0.44519  1.0000
  C   C904      1.0  0.51968  0.53317  0.42052  1.0000
  C   C905      1.0  0.57977  0.72263  0.09638  1.0000
  C   C906      1.0  0.51929  0.50190  0.48530  1.0000
  H   H901      1.0  0.55416  0.69536  0.12254  1.0000
  C   C907      1.0  0.49449  0.49805  0.30500  1.0000
  C   C908      1.0  0.46659  0.60915  0.28929  1.0000
  C   C909      1.0  0.50309  0.53382  0.15621  1.0000
  H   H902      1.0  0.52299  0.49750  0.00593  1.0000
  Fe  Fe150     1.0  0.44593  0.54804  0.47284  1.0000
  C   C910      1.0  0.49012  0.49943  0.40793  1.0000
  C   C911      1.0  0.52233  0.53819  0.15336  1.0000
  C   C912      1.0  0.48366  0.61338  0.30337  1.0000
  H   H903      1.0  0.48227  0.63365  0.23425  1.0000
  C   C913      1.0  0.49737  0.52347  0.48325  1.0000
  C   C914      1.0  0.48254  0.62801  0.25378  1.0000
  C   C915      1.0  0.44833  0.61135  0.24973  1.0000
  H   H904      1.0  0.44357  0.62317  0.25089  1.0000
  H   H905      1.0  0.55472  0.49649  0.38534  1.0000
  H   H906      1.0  0.51879  0.72485  0.14098  1.0000
  H   H907      1.0  0.49774  0.54483  0.15373  1.0000
  H   H908      1.0  0.47779  0.52967  0.28367  1.0000
  C   C916      1.0  0.55882  0.73896  0.10607  1.0000
  H   H909      1.0  0.47022  0.54194  0.00712  1.0000
  H   H910      1.0  0.62374  0.52841  0.41737  1.0000
  H   H911      1.0  0.54146  0.53861  0.29023  1.0000
  C   C917      1.0  0.47124  0.51183  0.16620  1.0000
  N   N72       1.0  0.46625  0.61613  0.26457  1.0000
  N   N73       1.0  0.49473  0.51534  0.29862  1.0000
  H   H912      1.0  0.51277  0.64185  0.25846  1.0000
  C   C918      1.0  0.51784  0.50267  0.23072  1.0000
  C   C919      1.0  0.50759  0.53530  0.03337  1.0000
  C   C920      1.0  0.52204  0.51611  0.42187  1.0000
  N   N74       1.0  0.56258  0.72306  0.10755  1.0000
  H   H913      1.0  0.46774  0.51468  0.05020  1.0000
  H   H914      1.0  0.51161  0.54354  0.28844  1.0000
  C   C921      1.0  0.60734  0.50245  0.39653  1.0000
  H   H915      1.0  0.47363  0.51616  0.40028  1.0000
  H   H916      1.0  0.53643  0.55534  0.03342  1.0000
  H   H917      1.0  0.51136  0.52468  0.04296  1.0000
  C   C922      1.0  0.50222  0.53320  0.41245  1.0000
  S   S304      1.0  0.55309  0.53383  0.99518  1.0000
  C   C923      1.0  0.49876  0.49477  0.23670  1.0000
  C   C924      1.0  0.51122  0.49497  0.30661  1.0000
  C   C925      1.0  0.52941  0.52420  0.15680  1.0000
  H   H918      1.0  0.47999  0.50219  0.03321  1.0000
  H   H919      1.0  0.62931  0.51261  0.45707  1.0000
  H   H920      1.0  0.60456  0.50922  0.37912  1.0000
  H   H921      1.0  0.47360  0.50019  0.24097  1.0000
  N   N75       1.0  0.50730  0.49952  0.41582  1.0000
  C   C926      1.0  0.62107  0.50415  0.44044  1.0000
  S   S305      1.0  0.59036  0.51100  0.98628  1.0000
  Fe  Fe151     1.0  0.51208  0.57364  0.70731  1.0000
  S   S306      1.0  0.48199  0.55560  0.69856  1.0000
  S   S307      1.0  0.53073  0.55881  0.72230  1.0000
  Fe  Fe152     1.0  0.50556  0.60978  0.69604  1.0000
  S   S308      1.0  0.47442  0.59295  0.68688  1.0000
  S   S309      1.0  0.51406  0.64193  0.69594  1.0000
  Fe  Fe153     1.0  0.47549  0.57637  0.72315  1.0000
  S   S310      1.0  0.45308  0.56253  0.75371  1.0000
  Fe  Fe154     1.0  0.48409  0.57366  0.66311  1.0000
  S   S311      1.0  0.47253  0.55556  0.62535  1.0000
  S   S312      1.0  0.50572  0.59401  0.73353  1.0000
  S   S313      1.0  0.51505  0.59098  0.67063  1.0000
  H   H922      1.0  0.41633  0.56779  0.79121  1.0000
  S   S314      1.0  0.58730  0.51756  0.54615  1.0000
  Fe  Fe155     1.0  0.56822  0.51394  0.51004  1.0000
  H   H923      1.0  0.64610  0.55005  0.55275  1.0000
  Fe  Fe156     1.0  0.60619  0.50983  0.51882  1.0000
  C   C927      1.0  0.49853  0.55279  0.78048  1.0000
  Fe  Fe157     1.0  0.41295  0.51962  0.93640  1.0000
  S   S315      1.0  0.42785  0.55131  0.93661  1.0000
  H   H924      1.0  0.40995  0.53406  0.87875  1.0000
  Fe  Fe158     1.0  0.45052  0.51573  0.94892  1.0000
  S   S316      1.0  0.46707  0.54667  0.94882  1.0000
  C   C928      1.0  0.51444  0.66198  0.63343  1.0000
  H   H925      1.0  0.54209  0.53580  0.75751  1.0000
  S   S317      1.0  0.45474  0.57065  0.50547  1.0000
  Fe  Fe159     1.0  0.44969  0.54656  0.91236  1.0000
  S   S318      1.0  0.46495  0.56602  0.87917  1.0000
  C   C929      1.0  0.40125  0.54226  0.87383  1.0000
  S   S319      1.0  0.43450  0.51519  0.91054  1.0000
  S   S320      1.0  0.58677  0.71712  0.67708  1.0000
  C   C930      1.0  0.53089  0.50705  0.56197  1.0000
  H   H926      1.0  0.50456  0.66032  0.64976  1.0000
  C   C931      1.0  0.40694  0.52323  0.56050  1.0000
  N   N76       1.0  0.53908  0.50581  0.68971  1.0000
  C   C932      1.0  0.54523  0.52484  0.68680  1.0000
  H   H927      1.0  0.52999  0.54696  0.96203  1.0000
  C   C933      1.0  0.49043  0.50727  0.96883  1.0000
  C   C934      1.0  0.40806  0.55556  0.82953  1.0000
  C   C935      1.0  0.52285  0.69590  0.63864  1.0000
  C   C936      1.0  0.39553  0.51361  0.53889  1.0000
  C   C937      1.0  0.41852  0.56974  0.81250  1.0000
  H   H928      1.0  0.54486  0.50782  0.56771  1.0000
  C   C938      1.0  0.52120  0.53307  0.96848  1.0000
  H   H929      1.0  0.50169  0.54243  0.57295  1.0000
  C   C939      1.0  0.53508  0.66254  0.69306  1.0000
  C   C940      1.0  0.53430  0.68026  0.69757  1.0000
  C   C941      1.0  0.55006  0.69708  0.69353  1.0000
  C   C942      1.0  0.56687  0.69644  0.68476  1.0000
  C   C943      1.0  0.56772  0.67873  0.68055  1.0000
  C   C944      1.0  0.55197  0.66190  0.68463  1.0000
  H   H930      1.0  0.52135  0.68098  0.70413  1.0000
  H   H931      1.0  0.54914  0.71053  0.69699  1.0000
  H   H932      1.0  0.58065  0.67801  0.67385  1.0000
  H   H933      1.0  0.55286  0.64845  0.68100  1.0000
  C   C945      1.0  0.46878  0.56058  0.59190  1.0000
  C   C946      1.0  0.47042  0.57843  0.58385  1.0000
  C   C947      1.0  0.46646  0.58139  0.55722  1.0000
  C   C948      1.0  0.46100  0.56663  0.53831  1.0000
  C   C949      1.0  0.45967  0.54886  0.54628  1.0000
  C   C950      1.0  0.46341  0.54585  0.57293  1.0000
  H   H934      1.0  0.47448  0.58987  0.59820  1.0000
  H   H935      1.0  0.46750  0.59518  0.55129  1.0000
  H   H936      1.0  0.45536  0.53734  0.53204  1.0000
  H   H937      1.0  0.46197  0.53197  0.57897  1.0000
  C   C951      1.0  0.45797  0.56251  0.78825  1.0000
  C   C952      1.0  0.44640  0.54753  0.80351  1.0000
  C   C953      1.0  0.44881  0.54790  0.83132  1.0000
  C   C954      1.0  0.46272  0.56341  0.84415  1.0000
  C   C955      1.0  0.47462  0.57809  0.82877  1.0000
  C   C956      1.0  0.47232  0.57764  0.80101  1.0000
  H   H938      1.0  0.43525  0.53575  0.79384  1.0000
  H   H939      1.0  0.43959  0.53648  0.84287  1.0000
  H   H940      1.0  0.48542  0.59016  0.83848  1.0000
  H   H941      1.0  0.48127  0.58933  0.78959  1.0000
  C   C957      1.0  0.52008  0.53460  0.72944  1.0000
  C   C958      1.0  0.50336  0.52278  0.71648  1.0000
  C   C959      1.0  0.54940  0.51183  0.90009  1.0000
  C   C960      1.0  0.56612  0.50998  0.71781  1.0000
  C   C961      1.0  0.49835  0.49719  0.98464  1.0000
  C   C962      1.0  0.52909  0.52682  0.74746  1.0000
  H   H942      1.0  0.49663  0.52833  0.70179  1.0000
  S   S321      1.0  0.46606  0.49705  0.96027  1.0000
  H   H943      1.0  0.44141  0.59674  0.80995  1.0000
  H   H944      1.0  0.50631  0.65764  0.61442  1.0000
  H   H945      1.0  0.50679  0.52720  0.80656  1.0000
  C   C963      1.0  0.49557  0.50348  0.72178  1.0000
  H   H946      1.0  0.39758  0.54267  0.82115  1.0000
  H   H947      1.0  0.52830  0.50178  0.76690  1.0000
  C   C964      1.0  0.46168  0.50537  0.76250  1.0000
  C   C965      1.0  0.50200  0.52521  0.96062  1.0000
  C   C966      1.0  0.57228  0.52941  0.71546  1.0000
  C   C967      1.0  0.39363  0.52367  0.51687  1.0000
  H   H948      1.0  0.57415  0.50386  0.72974  1.0000
  C   C968      1.0  0.56177  0.53693  0.69989  1.0000
  C   C969      1.0  0.52904  0.52312  0.98471  1.0000
  C   C970      1.0  0.47183  0.52481  0.76370  1.0000
  N   N77       1.0  0.52813  0.68143  0.63220  1.0000
  S   S322      1.0  0.63811  0.51988  0.51239  1.0000
  H   H949      1.0  0.56417  0.73271  0.62878  1.0000
  C   C971      1.0  0.54589  0.68503  0.62376  1.0000
  N   N78       1.0  0.50956  0.52240  0.55305  1.0000
  C   C972      1.0  0.41397  0.55231  0.53756  1.0000
  C   C973      1.0  0.55388  0.71835  0.62903  1.0000
  C   C974      1.0  0.41609  0.54273  0.55998  1.0000
  C   C975      1.0  0.48422  0.50164  0.79358  1.0000
  S   S323      1.0  0.42766  0.51720  0.97484  1.0000
  H   H950      1.0  0.51230  0.50051  0.67080  1.0000
  H   H951      1.0  0.52156  0.65219  0.63788  1.0000
  S   S324      1.0  0.38174  0.51050  0.92296  1.0000
  H   H952      1.0  0.42522  0.55036  0.57652  1.0000
  H   H953      1.0  0.56608  0.55204  0.69849  1.0000
  H   H954      1.0  0.49400  0.53829  0.53859  1.0000
  H   H955      1.0  0.56290  0.52592  0.93666  1.0000
  H   H956      1.0  0.55708  0.52356  0.88774  1.0000
  N   N79       1.0  0.41147  0.55765  0.85631  1.0000
  C   C976      1.0  0.42530  0.57357  0.86675  1.0000
  H   H957      1.0  0.57341  0.70634  0.61681  1.0000
  C   C977      1.0  0.43604  0.58801  0.85031  1.0000
  H   H958      1.0  0.49627  0.53296  0.94788  1.0000
  C   C978      1.0  0.43264  0.58602  0.82301  1.0000
  H   H959      1.0  0.44754  0.60020  0.85866  1.0000
  H   H960      1.0  0.42866  0.57487  0.88784  1.0000
  C   C979      1.0  0.52708  0.52334  0.56079  1.0000
  H   H961      1.0  0.39789  0.54770  0.89260  1.0000
  H   H962      1.0  0.46697  0.53370  0.75168  1.0000
  C   C980      1.0  0.50566  0.53955  0.55292  1.0000
  H   H963      1.0  0.53835  0.53678  0.56556  1.0000
  C   C981      1.0  0.49400  0.52115  0.79437  1.0000
  H   H964      1.0  0.48165  0.50469  0.54003  1.0000
  C   C982      1.0  0.52142  0.50745  0.75253  1.0000
  H   H965      1.0  0.49264  0.56017  0.76632  1.0000
  H   H966      1.0  0.51819  0.55181  0.54682  1.0000
  H   H967      1.0  0.51338  0.55615  0.77519  1.0000
  S   S325      1.0  0.55180  0.53215  0.50106  1.0000
  H   H968      1.0  0.44923  0.49938  0.74963  1.0000
  H   H969      1.0  0.34387  0.50374  0.90538  1.0000
  H   H970      1.0  0.49822  0.55841  0.80065  1.0000
  H   H971      1.0  0.50883  0.69303  0.64555  1.0000
  H   H972      1.0  0.42156  0.56743  0.53700  1.0000
  H   H973      1.0  0.58506  0.53863  0.72587  1.0000
  H   H974      1.0  0.58036  0.49551  0.88042  1.0000
  H   H975      1.0  0.53171  0.72604  0.64324  1.0000
  H   H976      1.0  0.52303  0.54677  0.49486  1.0000
  H   H977      1.0  0.55023  0.67359  0.61923  1.0000
  C   C983      1.0  0.55902  0.70353  0.62207  1.0000
  N   N80       1.0  0.48782  0.53243  0.77942  1.0000
  H   H978      1.0  0.48258  0.49451  0.71170  1.0000
  C   C984      1.0  0.51668  0.53189  0.49017  1.0000
  H   H979      1.0  0.38763  0.53252  0.86475  1.0000
  C   C985      1.0  0.54320  0.49765  0.94290  1.0000
  Fe  Fe160     1.0  0.44389  0.54838  0.97313  1.0000
  H   H980      1.0  0.53700  0.53087  0.67518  1.0000
  C   C986      1.0  0.53567  0.71457  0.63730  1.0000
  C   C987      1.0  0.50464  0.49568  0.73961  1.0000
  C   C988      1.0  0.55280  0.51312  0.92740  1.0000
  C   C989      1.0  0.54935  0.49835  0.70483  1.0000
  H   H981      1.0  0.41527  0.56386  0.48785  1.0000
  H   H982      1.0  0.54621  0.49867  0.96399  1.0000
  C   C990      1.0  0.53636  0.49521  0.88870  1.0000
  H   H983      1.0  0.40881  0.51562  0.57757  1.0000
  C   C991      1.0  0.49548  0.50545  0.54649  1.0000
  C   C992      1.0  0.52771  0.52112  0.49145  1.0000
  N   N81       1.0  0.40313  0.54274  0.51621  1.0000
  H   H984      1.0  0.38479  0.51606  0.50013  1.0000
  H   H985      1.0  0.39153  0.56027  0.49691  1.0000
  C   C993      1.0  0.40128  0.55318  0.49296  1.0000
  H   H986      1.0  0.38834  0.49843  0.53899  1.0000
  H   H987      1.0  0.54171  0.74377  0.48741  1.0000
  H   H988      1.0  0.46457  0.98569  0.28149  1.0000
  S   S326      1.0  0.47740  0.94781  0.46540  1.0000
  H   H989      1.0  0.44351  0.87592  0.00030  1.0000
  Fe  Fe161     1.0  0.51048  0.92085  0.45967  1.0000
  S   S327      1.0  0.47937  0.90747  0.44851  1.0000
  H   H990      1.0  0.63163  0.81604  0.36563  1.0000
  Fe  Fe162     1.0  0.48405  0.93513  0.42868  1.0000
  S   S328      1.0  0.47168  0.94375  0.39183  1.0000
  C   C994      1.0  0.39113  0.90974  0.27870  1.0000
  S   S329      1.0  0.44202  0.91171  0.01797  1.0000
  S   S330      1.0  0.51532  0.94755  0.43773  1.0000
  C   C995      1.0  0.56075  0.75026  0.41270  1.0000
  Fe  Fe163     1.0  0.44659  0.92650  0.23666  1.0000
  S   S331      1.0  0.43060  0.94509  0.24056  1.0000
  S   S332      1.0  0.45670  0.91398  0.27168  1.0000
  Fe  Fe164     1.0  0.44789  0.93045  0.17584  1.0000
  S   S333      1.0  0.43199  0.94956  0.17621  1.0000
  S   S334      1.0  0.46355  0.92521  0.14088  1.0000
  Fe  Fe165     1.0  0.45085  0.96361  0.21154  1.0000
  H   H991      1.0  0.50753  0.95885  0.24129  1.0000
  Fe  Fe166     1.0  0.41307  0.92898  0.20508  1.0000
  S   S335      1.0  0.38115  0.92148  0.20731  1.0000
  S   S336      1.0  0.46775  0.94581  0.20962  1.0000
  S   S337      1.0  0.42806  0.90905  0.20288  1.0000
  Fe  Fe167     1.0  0.61091  0.83850  0.41443  1.0000
  S   S338      1.0  0.60781  0.80873  0.41920  1.0000
  H   H992      1.0  0.63283  0.85020  0.29852  1.0000
  Fe  Fe168     1.0  0.56922  0.82881  0.42277  1.0000
  S   S339      1.0  0.56347  0.79805  0.42800  1.0000
  S   S340      1.0  0.54388  0.83703  0.41930  1.0000
  Fe  Fe169     1.0  0.58996  0.80855  0.45380  1.0000
  H   H993      1.0  0.38710  0.86588  0.23795  1.0000
  Fe  Fe170     1.0  0.58199  0.80130  0.39307  1.0000
  S   S341      1.0  0.57782  0.77938  0.36047  1.0000
  S   S342      1.0  0.59471  0.83916  0.45062  1.0000
  S   S343      1.0  0.58598  0.83113  0.38625  1.0000
  S   S344      1.0  0.53408  0.90997  0.46333  1.0000
  S   S345      1.0  0.57058  0.76360  0.17657  1.0000
  Fe  Fe171     1.0  0.62458  0.78725  0.16461  1.0000
  S   S346      1.0  0.60634  0.80353  0.16857  1.0000
  C   C996      1.0  0.60953  0.83499  0.10265  1.0000
  Fe  Fe172     1.0  0.59357  0.78461  0.20267  1.0000
  S   S347      1.0  0.59090  0.80098  0.23913  1.0000
  Fe  Fe173     1.0  0.58551  0.78120  0.14226  1.0000
  S   S348      1.0  0.57073  0.78951  0.10792  1.0000
  S   S349      1.0  0.61329  0.76946  0.20027  1.0000
  S   S350      1.0  0.60436  0.76572  0.13645  1.0000
  C   C997      1.0  0.51610  0.98999  0.28052  1.0000
  C   C998      1.0  0.59115  0.79797  0.02230  1.0000
  C   C999      1.0  0.57745  0.80439  0.03049  1.0000
  C   C1000     1.0  0.57115  0.80146  0.05665  1.0000
  C   C1001     1.0  0.57868  0.79240  0.07498  1.0000
  C   C1002     1.0  0.59235  0.78598  0.06677  1.0000
  C   C1003     1.0  0.59836  0.78856  0.04052  1.0000
  H   H994      1.0  0.57175  0.81163  0.01671  1.0000
  H   H995      1.0  0.56050  0.80642  0.06276  1.0000
  H   H996      1.0  0.59837  0.77907  0.08059  1.0000
  H   H997      1.0  0.60897  0.78356  0.03439  1.0000
  C   C1004     1.0  0.58043  0.78519  0.32652  1.0000
  C   C1005     1.0  0.58326  0.80323  0.31798  1.0000
  C   C1006     1.0  0.58571  0.80752  0.29100  1.0000
  C   C1007     1.0  0.58565  0.79397  0.27226  1.0000
  C   C1008     1.0  0.58255  0.77583  0.28069  1.0000
  C   C1009     1.0  0.57995  0.77148  0.30772  1.0000
  H   H998      1.0  0.58354  0.81388  0.33211  1.0000
  H   H999      1.0  0.58797  0.82156  0.28464  1.0000
  H   H1000     1.0  0.58236  0.76522  0.26646  1.0000
  H   H1001     1.0  0.57764  0.75743  0.31408  1.0000
  C   C1010     1.0  0.36021  0.90172  0.19791  1.0000
  C   C1011     1.0  0.36059  0.88495  0.18779  1.0000
  C   C1012     1.0  0.34359  0.86925  0.18262  1.0000
  H   H1002     1.0  0.43824  0.96498  0.00499  1.0000
  H   H1003     1.0  0.56820  0.75123  0.09602  1.0000
  C   C1013     1.0  0.34257  0.90257  0.20229  1.0000
  H   H1004     1.0  0.37399  0.88401  0.18423  1.0000
  H   H1005     1.0  0.34412  0.85635  0.17498  1.0000
  H   H1006     1.0  0.34545  0.89420  0.25789  1.0000
  H   H1007     1.0  0.34203  0.91547  0.20993  1.0000
  C   C1014     1.0  0.38827  0.87805  0.24983  1.0000
  C   C1015     1.0  0.54075  0.85657  0.43363  1.0000
  C   C1016     1.0  0.52412  0.85937  0.42747  1.0000
  C   C1017     1.0  0.52160  0.87545  0.43681  1.0000
  C   C1018     1.0  0.53574  0.88885  0.45246  1.0000
  C   C1019     1.0  0.55215  0.88580  0.45922  1.0000
  C   C1020     1.0  0.55468  0.86974  0.44984  1.0000
  H   H1008     1.0  0.51326  0.84919  0.41498  1.0000
  H   H1009     1.0  0.50890  0.87761  0.43147  1.0000
  Fe  Fe174     1.0  0.59093  0.74925  0.17240  1.0000
  H   H1010     1.0  0.56747  0.86768  0.45488  1.0000
  C   C1021     1.0  0.44837  0.91773  0.05181  1.0000
  C   C1022     1.0  0.43419  0.91502  0.07012  1.0000
  C   C1023     1.0  0.43866  0.91822  0.09743  1.0000
  C   C1024     1.0  0.45736  0.92398  0.10669  1.0000
  C   C1025     1.0  0.47157  0.92718  0.08828  1.0000
  C   C1026     1.0  0.46713  0.92420  0.06099  1.0000
  H   H1011     1.0  0.41963  0.91005  0.06324  1.0000
  H   H1012     1.0  0.42757  0.91562  0.11139  1.0000
  H   H1013     1.0  0.48606  0.93150  0.09527  1.0000
  H   H1014     1.0  0.47818  0.92615  0.04726  1.0000
  C   C1027     1.0  0.46779  0.93516  0.35857  1.0000
  C   C1028     1.0  0.47277  0.92052  0.34989  1.0000
  C   C1029     1.0  0.46932  0.91425  0.32324  1.0000
  C   C1030     1.0  0.46090  0.92254  0.30498  1.0000
  C   C1031     1.0  0.45589  0.93716  0.31369  1.0000
  C   C1032     1.0  0.45939  0.94345  0.34027  1.0000
  H   H1015     1.0  0.47918  0.91396  0.36372  1.0000
  H   H1016     1.0  0.47315  0.90286  0.31677  1.0000
  H   H1017     1.0  0.44911  0.94350  0.30011  1.0000
  H   H1018     1.0  0.45539  0.95472  0.34682  1.0000
  H   H1019     1.0  0.59057  0.75572  0.47703  1.0000
  H   H1020     1.0  0.62273  0.79087  0.26282  1.0000
  H   H1021     1.0  0.58526  0.75113  0.39240  1.0000
  H   H1022     1.0  0.53706  0.89522  0.38007  1.0000
  H   H1023     1.0  0.49343  0.96539  0.06026  1.0000
  C   C1033     1.0  0.47771  0.88631  0.08248  1.0000
  C   C1034     1.0  0.55330  0.75117  0.43732  1.0000
  H   H1024     1.0  0.44970  0.88219  0.09409  1.0000
  C   C1035     1.0  0.63100  0.82208  0.29001  1.0000
  H   H1025     1.0  0.63153  0.81787  0.12060  1.0000
  H   H1026     1.0  0.41991  0.91325  0.28761  1.0000
  H   H1027     1.0  0.51914  0.95759  0.27244  1.0000
  H   H1028     1.0  0.35539  0.90647  0.28852  1.0000
  N   N82       1.0  0.62982  0.80533  0.30028  1.0000
  C   C1036     1.0  0.35843  0.90468  0.26759  1.0000
  H   H1029     1.0  0.54028  0.86652  0.36225  1.0000
  C   C1037     1.0  0.46511  0.96698  0.02140  1.0000
  H   H1030     1.0  0.39252  0.92242  0.28948  1.0000
  C   C1038     1.0  0.64663  0.81835  0.05828  1.0000
  H   H1031     1.0  0.56267  0.91760  0.40884  1.0000
  N   N83       1.0  0.56388  0.75289  0.46010  1.0000
  C   C1039     1.0  0.40528  0.88884  0.26291  1.0000
  N   N84       1.0  0.58222  0.88616  0.39557  1.0000
  C   C1040     1.0  0.56803  0.87362  0.38001  1.0000
  C   C1041     1.0  0.58046  0.90185  0.40575  1.0000
  C   C1042     1.0  0.55174  0.87684  0.37383  1.0000
  C   C1043     1.0  0.56434  0.90550  0.40000  1.0000
  C   C1044     1.0  0.54992  0.89290  0.38390  1.0000
  C   C1045     1.0  0.59868  0.88196  0.40303  1.0000
  H   H1032     1.0  0.56892  0.86067  0.37309  1.0000
  H   H1033     1.0  0.59131  0.91140  0.41899  1.0000
  C   C1046     1.0  0.63149  0.81784  0.34438  1.0000
  C   C1047     1.0  0.48044  0.87963  0.03644  1.0000
  N   N85       1.0  0.62208  0.82896  0.08722  1.0000
  H   H1034     1.0  0.60265  0.87474  0.38657  1.0000
  H   H1035     1.0  0.61122  0.89493  0.40804  1.0000
  H   H1036     1.0  0.59547  0.87270  0.42044  1.0000
  N   N86       1.0  0.37444  0.89895  0.26610  1.0000
  C   C1048     1.0  0.45048  0.87545  0.05269  1.0000
  Fe  Fe175     1.0  0.50813  0.95817  0.47550  1.0000
  C   C1049     1.0  0.48344  0.97180  0.27362  1.0000
  H   H1037     1.0  0.48404  0.89126  0.10197  1.0000
  H   H1038     1.0  0.47213  0.95893  0.26681  1.0000
  C   C1050     1.0  0.37285  0.88325  0.25184  1.0000
  C   C1051     1.0  0.49611  0.97064  0.03979  1.0000
  C   C1052     1.0  0.47908  0.98686  0.28212  1.0000
  C   C1053     1.0  0.62915  0.78998  0.28250  1.0000
  H   H1039     1.0  0.44410  0.85304  0.00616  1.0000
  C   C1054     1.0  0.40670  0.90472  0.27757  1.0000
  C   C1055     1.0  0.32595  0.87005  0.18727  1.0000
  H   H1040     1.0  0.49453  0.94399  0.26733  1.0000
  H   H1041     1.0  0.63350  0.84639  0.34733  1.0000
  S   S351      1.0  0.63825  0.86095  0.40177  1.0000
  H   H1042     1.0  0.41745  0.88511  0.26143  1.0000
  C   C1056     1.0  0.48885  0.88557  0.06155  1.0000
  H   H1043     1.0  0.59718  0.83460  0.09037  1.0000
  H   H1044     1.0  0.35972  0.87486  0.24144  1.0000
  H   H1045     1.0  0.36173  0.91819  0.25722  1.0000
  H   H1046     1.0  0.53919  0.75102  0.43805  1.0000
  C   C1057     1.0  0.45269  0.86835  0.00605  1.0000
  H   H1047     1.0  0.60371  0.82538  0.11931  1.0000
  N   N87       1.0  0.46150  0.87481  0.03227  1.0000
  H   H1048     1.0  0.64692  0.83416  0.16721  1.0000
  H   H1049     1.0  0.48922  0.87911  0.02026  1.0000
  C   C1058     1.0  0.63016  0.80312  0.32709  1.0000
  H   H1050     1.0  0.62919  0.78985  0.33526  1.0000
  H   H1051     1.0  0.49686  0.98499  0.21016  1.0000
  H   H1052     1.0  0.51079  0.98122  0.03880  1.0000
  C   C1059     1.0  0.45838  0.88110  0.07811  1.0000
  C   C1060     1.0  0.58194  0.75376  0.45907  1.0000
  H   H1053     1.0  0.62028  0.77612  0.29058  1.0000
  C   C1061     1.0  0.57917  0.75126  0.41147  1.0000
  C   C1062     1.0  0.32557  0.88689  0.19706  1.0000
  H   H1054     1.0  0.49316  0.98079  0.41630  1.0000
  C   C1063     1.0  0.63228  0.83708  0.30674  1.0000
  C   C1064     1.0  0.58988  0.75304  0.43477  1.0000
  H   H1055     1.0  0.46161  0.95202  0.01912  1.0000
  N   N88       1.0  0.48239  0.97858  0.03157  1.0000
  C   C1065     1.0  0.63270  0.82056  0.09961  1.0000
  C   C1066     1.0  0.50599  0.95772  0.26306  1.0000
  C   C1067     1.0  0.45179  0.97424  0.01344  1.0000
  H   H1056     1.0  0.49523  0.95889  0.02627  1.0000
  H   H1057     1.0  0.46333  0.87100  0.99057  1.0000
  C   C1068     1.0  0.62371  0.83246  0.06074  1.0000
  H   H1058     1.0  0.61735  0.84945  0.11067  1.0000
  H   H1059     1.0  0.50392  0.88971  0.06464  1.0000
  H   H1060     1.0  0.64557  0.83048  0.42616  1.0000
  C   C1069     1.0  0.63255  0.83491  0.33409  1.0000
  H   H1061     1.0  0.43555  0.87211  0.04920  1.0000
  H   H1062     1.0  0.53066  0.99161  0.27899  1.0000
  H   H1063     1.0  0.63040  0.82373  0.26874  1.0000
  H   H1064     1.0  0.63650  0.82918  0.02461  1.0000
  H   H1065     1.0  0.61516  0.83893  0.05079  1.0000
  C   C1070     1.0  0.63589  0.82709  0.04583  1.0000
  H   H1066     1.0  0.64360  0.79054  0.27970  1.0000
  N   N89       1.0  0.50173  0.97340  0.27325  1.0000
  H   H1067     1.0  0.48819  0.98636  0.48181  1.0000
  H   H1068     1.0  0.60438  0.75433  0.43400  1.0000
  C   C1071     1.0  0.45616  0.99348  0.01631  1.0000
  H   H1069     1.0  0.55256  0.74945  0.39457  1.0000
  H   H1070     1.0  0.54024  0.75258  0.11694  1.0000
  S   S352      1.0  0.60063  0.80217  0.99026  1.0000
  S   S353      1.0  0.49364  0.92178  0.99603  1.0000
  Fe  Fe176     1.0  0.47543  0.92159  0.48603  1.0000
  C   C1072     1.0  0.64510  0.81511  0.08537  1.0000
  H   H1071     1.0  0.56312  0.89607  0.47144  1.0000
  C   C1073     1.0  0.55601  0.75484  0.48549  1.0000
  H   H1072     1.0  0.52682  0.99309  0.43143  1.0000
  H   H1073     1.0  0.48165  0.98316  0.88759  1.0000
  S   S354      1.0  0.47122  0.94284  0.96187  1.0000
  C   C1074     1.0  0.49059  0.97326  0.58581  1.0000
  Fe  Fe177     1.0  0.49181  0.90478  0.95896  1.0000
  S   S355      1.0  0.46113  0.89908  0.94992  1.0000
  H   H1074     1.0  0.50056  0.88324  0.48747  1.0000
  Fe  Fe178     1.0  0.47217  0.92566  0.92625  1.0000
  S   S356      1.0  0.46209  0.93652  0.88933  1.0000
  N   N90       1.0  0.47165  0.96572  0.59000  1.0000
  S   S357      1.0  0.45228  0.90957  0.51569  1.0000
  S   S358      1.0  0.50270  0.93024  0.93298  1.0000
  H   H1075     1.0  0.45083  0.87081  0.53224  1.0000
  Fe  Fe179     1.0  0.44421  0.92135  0.73415  1.0000
  S   S359      1.0  0.42861  0.94045  0.73700  1.0000
  S   S360      1.0  0.45176  0.90707  0.76934  1.0000
  Fe  Fe180     1.0  0.44872  0.92671  0.67390  1.0000
  S   S361      1.0  0.43337  0.94625  0.67310  1.0000
  S   S362      1.0  0.46671  0.92378  0.64023  1.0000
  Fe  Fe181     1.0  0.45055  0.95924  0.71005  1.0000
  H   H1076     1.0  0.47073  0.88056  0.57342  1.0000
  Fe  Fe182     1.0  0.41265  0.92542  0.69989  1.0000
  S   S363      1.0  0.38101  0.91979  0.69671  1.0000
  S   S364      1.0  0.46700  0.94100  0.70959  1.0000
  S   S365      1.0  0.42708  0.90496  0.69855  1.0000
  Fe  Fe183     1.0  0.61813  0.84097  0.91066  1.0000
  S   S366      1.0  0.60774  0.81012  0.91727  1.0000
  N   N91       1.0  0.50494  0.88757  0.52925  1.0000
  Fe  Fe184     1.0  0.58024  0.84271  0.92356  1.0000
  S   S367      1.0  0.56678  0.81147  0.93077  1.0000
  S   S368      1.0  0.56871  0.86564  0.91886  1.0000
  Fe  Fe185     1.0  0.59407  0.81592  0.95338  1.0000
  H   H1077     1.0  0.36359  0.91149  0.75044  1.0000
  Fe  Fe186     1.0  0.58183  0.80840  0.89428  1.0000
  S   S369      1.0  0.57004  0.78635  0.86121  1.0000
  S   S370      1.0  0.60660  0.84732  0.94809  1.0000
  S   S371      1.0  0.59304  0.83894  0.88564  1.0000
  C   C1075     1.0  0.49588  0.98286  0.77760  1.0000
  S   S372      1.0  0.57228  0.76295  0.68036  1.0000
  Fe  Fe187     1.0  0.62629  0.78666  0.66821  1.0000
  S   S373      1.0  0.60775  0.80269  0.67092  1.0000
  H   H1078     1.0  0.56496  0.75377  0.50252  1.0000
  Fe  Fe188     1.0  0.59517  0.78469  0.70588  1.0000
  S   S374      1.0  0.59453  0.80292  0.74143  1.0000
  Fe  Fe189     1.0  0.58708  0.77973  0.64527  1.0000
  S   S375      1.0  0.57262  0.78796  0.61032  1.0000
  S   S376      1.0  0.61508  0.76973  0.70450  1.0000
  S   S377      1.0  0.60624  0.76442  0.64062  1.0000
  H   H1079     1.0  0.45146  0.95339  0.61943  1.0000
  C   C1076     1.0  0.59014  0.79327  0.52329  1.0000
  C   C1077     1.0  0.57736  0.80072  0.53202  1.0000
  C   C1078     1.0  0.57208  0.79891  0.55868  1.0000
  C   C1079     1.0  0.57959  0.78975  0.57690  1.0000
  C   C1080     1.0  0.59233  0.78226  0.56809  1.0000
  C   C1081     1.0  0.59755  0.78402  0.54147  1.0000
  H   H1080     1.0  0.57146  0.80780  0.51825  1.0000
  H   H1081     1.0  0.56213  0.80466  0.56524  1.0000
  H   H1082     1.0  0.59804  0.77494  0.58172  1.0000
  Fe  Fe190     1.0  0.50114  0.94650  0.96928  1.0000
  C   C1082     1.0  0.57666  0.79099  0.82781  1.0000
  C   C1083     1.0  0.58637  0.80932  0.81927  1.0000
  C   C1084     1.0  0.59131  0.81261  0.79266  1.0000
  C   C1085     1.0  0.58706  0.79764  0.77433  1.0000
  C   C1086     1.0  0.57739  0.77928  0.78281  1.0000
  C   C1087     1.0  0.57205  0.77601  0.80938  1.0000
  H   H1083     1.0  0.59002  0.82100  0.83309  1.0000
  H   H1084     1.0  0.59871  0.82686  0.78626  1.0000
  H   H1085     1.0  0.57393  0.76763  0.76890  1.0000
  H   H1086     1.0  0.56446  0.76178  0.81574  1.0000
  C   C1088     1.0  0.35935  0.89965  0.69316  1.0000
  C   C1089     1.0  0.34220  0.90218  0.69374  1.0000
  C   C1090     1.0  0.62659  0.80998  0.84852  1.0000
  C   C1091     1.0  0.61786  0.79048  0.85077  1.0000
  C   C1092     1.0  0.34118  0.86592  0.68822  1.0000
  C   C1093     1.0  0.35871  0.88136  0.69036  1.0000
  H   H1087     1.0  0.34245  0.91623  0.69586  1.0000
  H   H1088     1.0  0.39330  0.92439  0.81090  1.0000
  H   H1089     1.0  0.34092  0.85188  0.68606  1.0000
  H   H1090     1.0  0.37169  0.87910  0.68969  1.0000
  H   H1091     1.0  0.62799  0.81883  0.86581  1.0000
  C   C1094     1.0  0.54998  0.86955  0.93374  1.0000
  C   C1095     1.0  0.53747  0.85649  0.95033  1.0000
  C   C1096     1.0  0.52190  0.85963  0.95989  1.0000
  C   C1097     1.0  0.51880  0.87588  0.95316  1.0000
  C   C1098     1.0  0.53146  0.88903  0.93688  1.0000
  C   C1099     1.0  0.54695  0.88585  0.92721  1.0000
  H   H1092     1.0  0.53966  0.84391  0.95551  1.0000
  H   H1093     1.0  0.47296  0.99202  0.78118  1.0000
  H   H1094     1.0  0.52927  0.90160  0.93161  1.0000
  H   H1095     1.0  0.55659  0.89605  0.91445  1.0000
  C   C1100     1.0  0.45638  0.91399  0.55025  1.0000
  C   C1101     1.0  0.44100  0.90988  0.56686  1.0000
  C   C1102     1.0  0.44382  0.91310  0.59445  1.0000
  C   C1103     1.0  0.46208  0.92003  0.60570  1.0000
  C   C1104     1.0  0.47742  0.92401  0.58909  1.0000
  C   C1105     1.0  0.47462  0.92125  0.56152  1.0000
  H   H1096     1.0  0.42682  0.90422  0.55836  1.0000
  H   H1097     1.0  0.43188  0.90986  0.60703  1.0000
  H   H1098     1.0  0.49159  0.92938  0.59762  1.0000
  H   H1099     1.0  0.48659  0.92449  0.54908  1.0000
  C   C1106     1.0  0.46001  0.92838  0.85600  1.0000
  C   C1107     1.0  0.46270  0.91208  0.84892  1.0000
  C   C1108     1.0  0.46038  0.90591  0.82226  1.0000
  C   C1109     1.0  0.45548  0.91600  0.80238  1.0000
  C   C1110     1.0  0.45296  0.93240  0.80941  1.0000
  C   C1111     1.0  0.45514  0.93849  0.83609  1.0000
  H   H1100     1.0  0.46640  0.90413  0.86400  1.0000
  H   H1101     1.0  0.46231  0.89318  0.81702  1.0000
  H   H1102     1.0  0.44908  0.94023  0.79436  1.0000
  H   H1103     1.0  0.45295  0.95108  0.84138  1.0000
  H   H1104     1.0  0.55307  0.81214  0.83851  1.0000
  H   H1105     1.0  0.60132  0.82570  0.62759  1.0000
  H   H1106     1.0  0.45523  0.95246  0.52720  1.0000
  C   C1112     1.0  0.61563  0.77901  0.82845  1.0000
  C   C1113     1.0  0.32402  0.86844  0.68882  1.0000
  H   H1107     1.0  0.38446  0.93277  0.75244  1.0000
  N   N92       1.0  0.38658  0.91001  0.77347  1.0000
  H   H1108     1.0  0.53636  0.79302  0.87597  1.0000
  C   C1114     1.0  0.54687  0.83615  0.84970  1.0000
  H   H1109     1.0  0.64156  0.86247  0.59894  1.0000
  C   C1115     1.0  0.47719  0.88060  0.55459  1.0000
  C   C1116     1.0  0.52551  0.89487  0.52781  1.0000
  H   H1110     1.0  0.36916  0.92540  0.78028  1.0000
  C   C1117     1.0  0.39497  0.91381  0.79822  1.0000
  H   H1111     1.0  0.60738  0.77811  0.53491  1.0000
  H   H1112     1.0  0.46249  0.97880  0.62064  1.0000
  H   H1113     1.0  0.40306  0.87771  0.75238  1.0000
  H   H1114     1.0  0.55468  0.84460  0.83369  1.0000
  H   H1115     1.0  0.47501  0.96448  0.63194  1.0000
  H   H1116     1.0  0.53231  0.89355  0.54691  1.0000
  N   N93       1.0  0.63275  0.81783  0.82465  1.0000
  H   H1117     1.0  0.41286  0.90737  0.82695  1.0000
  H   H1118     1.0  0.62014  0.77837  0.78662  1.0000
  C   C1118     1.0  0.53664  0.80708  0.87341  1.0000
  H   H1119     1.0  0.41748  0.88367  0.79773  1.0000
  H   H1120     1.0  0.50538  0.89182  0.57108  1.0000
  H   H1121     1.0  0.51218  0.84940  0.97252  1.0000
  C   C1119     1.0  0.40044  0.88749  0.76561  1.0000
  C   C1120     1.0  0.40856  0.89086  0.79108  1.0000
  C   C1121     1.0  0.37542  0.92047  0.76382  1.0000
  C   C1122     1.0  0.52465  0.99027  0.91496  1.0000
  H   H1122     1.0  0.38333  0.89471  0.73715  1.0000
  C   C1123     1.0  0.45901  0.95876  0.56921  1.0000
  C   C1124     1.0  0.40597  0.90420  0.80747  1.0000
  C   C1125     1.0  0.38942  0.89725  0.75707  1.0000
  H   H1123     1.0  0.52079  0.80648  0.90806  1.0000
  S   S378      1.0  0.52255  0.97521  0.98167  1.0000
  C   C1126     1.0  0.52862  0.83283  0.88780  1.0000
  C   C1127     1.0  0.63091  0.80667  0.80274  1.0000
  H   H1124     1.0  0.48676  0.96839  0.77274  1.0000
  C   C1128     1.0  0.60882  0.83547  0.61183  1.0000
  S   S379      1.0  0.52564  0.98650  0.49374  1.0000
  C   C1129     1.0  0.52787  0.81461  0.89132  1.0000
  H   H1125     1.0  0.50060  0.97895  0.60225  1.0000
  H   H1126     1.0  0.63555  0.81285  0.78370  1.0000
  H   H1127     1.0  0.50190  0.96579  0.89856  1.0000
  C   C1130     1.0  0.46525  0.95866  0.54353  1.0000
  C   C1131     1.0  0.49678  0.88704  0.55308  1.0000
  H   H1128     1.0  0.52191  0.83863  0.90194  1.0000
  H   H1129     1.0  0.61230  0.78434  0.86950  1.0000
  S   S380      1.0  0.64626  0.85891  0.89434  1.0000
  H   H1130     1.0  0.60834  0.76390  0.82975  1.0000
  C   C1132     1.0  0.46484  0.96572  0.61677  1.0000
  C   C1133     1.0  0.54612  0.81786  0.85239  1.0000
  H   H1131     1.0  0.49613  0.97944  0.70778  1.0000
  C   C1134     1.0  0.62225  0.78711  0.80428  1.0000
  C   C1135     1.0  0.46599  0.87507  0.53148  1.0000
  H   H1132     1.0  0.52987  0.86604  0.87757  1.0000
  S   S381      1.0  0.49872  0.87892  0.96501  1.0000
  H   H1133     1.0  0.59932  0.83217  0.59395  1.0000
  H   H1134     1.0  0.64632  0.83301  0.66863  1.0000
  C   C1136     1.0  0.49731  0.97343  0.56035  1.0000
  C   C1137     1.0  0.49406  0.88232  0.50645  1.0000
  H   H1135     1.0  0.51232  0.97924  0.55690  1.0000
  H   H1136     1.0  0.61154  0.84991  0.61914  1.0000
  H   H1137     1.0  0.44400  0.95274  0.57251  1.0000
  C   C1138     1.0  0.53917  0.86260  0.86387  1.0000
  C   C1139     1.0  0.32467  0.88673  0.69158  1.0000
  S   S382      1.0  0.50588  0.93276  0.49834  1.0000
  H   H1138     1.0  0.55385  0.87268  0.86832  1.0000
  H   H1139     1.0  0.61465  0.80371  0.61135  1.0000
  H   H1140     1.0  0.53494  0.86464  0.84335  1.0000
  N   N94       1.0  0.53802  0.84333  0.86714  1.0000
  H   H1141     1.0  0.53094  0.90991  0.52229  1.0000
  H   H1142     1.0  0.52983  0.88701  0.51256  1.0000
  N   N95       1.0  0.62634  0.83327  0.60562  1.0000
  C   C1140     1.0  0.48452  0.96588  0.53922  1.0000
  H   H1143     1.0  0.48958  0.96546  0.51958  1.0000
  C   C1141     1.0  0.51542  0.98844  0.77812  1.0000
  C   C1142     1.0  0.62682  0.81575  0.60560  1.0000
  C   C1143     1.0  0.47444  0.87600  0.50723  1.0000
  C   C1144     1.0  0.64182  0.84853  0.59872  1.0000
  S   S383      1.0  0.46463  0.99082  0.71737  1.0000
  C   C1145     1.0  0.64194  0.83829  0.82278  1.0000
  H   H1144     1.0  0.52158  0.97832  0.77374  1.0000
  H   H1145     1.0  0.63647  0.84546  0.83762  1.0000
  Fe  Fe191     1.0  0.59290  0.74877  0.67723  1.0000
  C   C1146     1.0  0.64309  0.81315  0.59871  1.0000
  H   H1146     1.0  0.63923  0.84304  0.80298  1.0000
  H   H1147     1.0  0.53336  0.98262  0.92065  1.0000
  H   H1148     1.0  0.55525  0.76891  0.48695  1.0000
  C   C1147     1.0  0.50697  0.98080  0.90275  1.0000
  C   C1148     1.0  0.49557  0.99061  0.89660  1.0000
  S   S384      1.0  0.59679  0.79430  0.48981  1.0000
  H   H1149     1.0  0.49031  0.97869  0.95513  1.0000
  C   C1149     1.0  0.49776  0.99128  0.96643  1.0000
  H   H1150     1.0  0.64359  0.79931  0.59970  1.0000
  H   H1151     1.0  0.46584  0.87229  0.48910  1.0000
  H   H1152     1.0  0.64872  0.82368  0.91032  1.0000
  Fe  Fe192     1.0  0.46376  0.91721  0.98617  1.0000
  C   C1150     1.0  0.51448  0.99365  0.98024  1.0000
  C   C1151     1.0  0.50170  0.99427  0.71272  1.0000
  Fe  Fe193     1.0  0.74745  0.18994  0.28132  1.0000
  S   S385      1.0  0.76420  0.22123  0.27639  1.0000
  S   S386      1.0  0.71519  0.18153  0.28016  1.0000
  Fe  Fe194     1.0  0.78380  0.18313  0.29118  1.0000
  S   S387      1.0  0.80183  0.21333  0.28655  1.0000
  S   S388      1.0  0.79843  0.16364  0.30298  1.0000
  Fe  Fe195     1.0  0.78142  0.21910  0.31216  1.0000
  H   H1153     1.0  0.94678  0.10938  0.29982  1.0000
  Fe  Fe196     1.0  0.78321  0.21245  0.25112  1.0000
  H   H1154     1.0  0.87917  0.15817  0.28708  1.0000
  S   S389      1.0  0.76390  0.18869  0.31860  1.0000
  S   S390      1.0  0.76591  0.18139  0.25428  1.0000
  Fe  Fe197     1.0  0.90438  0.14273  0.32334  1.0000
  S   S391      1.0  0.92151  0.17328  0.31779  1.0000
  S   S392      1.0  0.89376  0.12053  0.29033  1.0000
  Fe  Fe198     1.0  0.90166  0.14816  0.38406  1.0000
  S   S393      1.0  0.91859  0.17936  0.38224  1.0000
  S   S394      1.0  0.88385  0.13131  0.41770  1.0000
  Fe  Fe199     1.0  0.90092  0.17781  0.34510  1.0000
  S   S395      1.0  0.88618  0.19711  0.33328  1.0000
  Fe  Fe200     1.0  0.93780  0.17194  0.35509  1.0000
  S   S396      1.0  0.96990  0.17945  0.35563  1.0000
  S   S397      1.0  0.88317  0.14736  0.34848  1.0000
  S   S398      1.0  0.92151  0.14057  0.35901  1.0000
  S   S399      1.0  0.81367  0.22402  0.03756  1.0000
  S   S400      1.0  0.86225  0.22645  0.06075  1.0000
  Fe  Fe201     1.0  0.84823  0.08384  0.09896  1.0000
  S   S401      1.0  0.87958  0.09917  0.10778  1.0000
  S   S402      1.0  0.83946  0.05165  0.09640  1.0000
  Fe  Fe202     1.0  0.84413  0.12147  0.08823  1.0000
  S   S403      1.0  0.87461  0.13810  0.09671  1.0000
  S   S404      1.0  0.82688  0.13744  0.07201  1.0000
  Fe  Fe203     1.0  0.87941  0.11638  0.07208  1.0000
  S   S405      1.0  0.90201  0.12643  0.04121  1.0000
  Fe  Fe204     1.0  0.87156  0.11951  0.13176  1.0000
  S   S406      1.0  0.88611  0.13751  0.16829  1.0000
  S   S407      1.0  0.84893  0.10023  0.06185  1.0000
  S   S408      1.0  0.84025  0.10368  0.12471  1.0000
  C   C1152     1.0  0.85271  0.20162  0.06265  1.0000
  C   C1153     1.0  0.83637  0.19043  0.04827  1.0000
  C   C1154     1.0  0.82879  0.17079  0.05100  1.0000
  C   C1155     1.0  0.83748  0.16209  0.06808  1.0000
  C   C1156     1.0  0.85392  0.17326  0.08229  1.0000
  C   C1157     1.0  0.86159  0.19288  0.07936  1.0000
  H   H1155     1.0  0.82964  0.19683  0.03477  1.0000
  H   H1156     1.0  0.81606  0.16232  0.03995  1.0000
  H   H1157     1.0  0.86054  0.16690  0.09602  1.0000
  H   H1158     1.0  0.87426  0.20138  0.09054  1.0000
  H   H1159     1.0  0.90206  0.08512  0.04208  1.0000
  C   C1158     1.0  0.89063  0.12545  0.25672  1.0000
  C   C1159     1.0  0.89750  0.14384  0.24752  1.0000
  C   C1160     1.0  0.89574  0.14718  0.22046  1.0000
  C   C1161     1.0  0.88704  0.13225  0.20225  1.0000
  C   C1162     1.0  0.87998  0.11386  0.21148  1.0000
  C   C1163     1.0  0.88186  0.11049  0.23859  1.0000
  H   H1160     1.0  0.90458  0.15547  0.26111  1.0000
  H   H1161     1.0  0.90132  0.16145  0.21347  1.0000
  H   H1162     1.0  0.87331  0.10223  0.19768  1.0000
  H   H1163     1.0  0.87656  0.09620  0.24546  1.0000
  C   C1164     1.0  0.88798  0.13311  0.45249  1.0000
  C   C1165     1.0  0.90602  0.14193  0.46409  1.0000
  C   C1166     1.0  0.80850  0.23771  0.13776  1.0000
  H   H1164     1.0  0.84220  0.05465  0.03965  1.0000
  H   H1165     1.0  0.87273  0.06693  0.06490  1.0000
  C   C1167     1.0  0.87274  0.12405  0.46886  1.0000
  H   H1166     1.0  0.91788  0.14890  0.45175  1.0000
  S   S409      1.0  0.80138  0.22685  0.21619  1.0000
  C   C1168     1.0  0.81157  0.23570  0.16495  1.0000
  H   H1167     1.0  0.85874  0.11712  0.46005  1.0000
  C   C1169     1.0  0.79639  0.22792  0.18187  1.0000
  C   C1170     1.0  0.77802  0.22208  0.17119  1.0000
  H   H1168     1.0  0.83209  0.23472  0.33826  1.0000
  H   H1169     1.0  0.76621  0.21615  0.18397  1.0000
  H   H1170     1.0  0.84137  0.06059  0.99144  1.0000
  H   H1171     1.0  0.78825  0.18198  0.37788  1.0000
  C   C1171     1.0  0.78045  0.22031  0.38945  1.0000
  C   C1172     1.0  0.77934  0.21772  0.41698  1.0000
  H   H1172     1.0  0.76936  0.21106  0.37629  1.0000
  H   H1173     1.0  0.76736  0.20642  0.42479  1.0000
  C   C1173     1.0  0.82275  0.17335  0.31194  1.0000
  C   C1174     1.0  0.83474  0.19089  0.30299  1.0000
  C   C1175     1.0  0.85412  0.19792  0.30953  1.0000
  C   C1176     1.0  0.86176  0.18751  0.32512  1.0000
  C   C1177     1.0  0.84976  0.17003  0.33430  1.0000
  C   C1178     1.0  0.83038  0.16292  0.32754  1.0000
  H   H1174     1.0  0.82927  0.19889  0.29037  1.0000
  H   H1175     1.0  0.86325  0.21147  0.30238  1.0000
  H   H1176     1.0  0.85528  0.16207  0.34695  1.0000
  H   H1177     1.0  0.82127  0.14931  0.33454  1.0000
  C   C1179     1.0  0.79014  0.23214  0.12714  1.0000
  C   C1180     1.0  0.82165  0.01299  0.09839  1.0000
  C   C1181     1.0  0.81984  0.03028  0.10266  1.0000
  C   C1182     1.0  0.80265  0.02995  0.11147  1.0000
  C   C1183     1.0  0.78756  0.01262  0.11579  1.0000
  H   H1178     1.0  0.83483  0.01300  0.09153  1.0000
  H   H1179     1.0  0.80092  0.04303  0.11483  1.0000
  H   H1180     1.0  0.77435  0.01261  0.12248  1.0000
  N   N96       1.0  0.87421  0.16323  0.00720  1.0000
  C   C1184     1.0  0.67811  0.12758  0.26256  1.0000
  C   C1185     1.0  0.69500  0.14348  0.26727  1.0000
  C   C1186     1.0  0.69442  0.16075  0.27459  1.0000
  C   C1187     1.0  0.67666  0.16179  0.27721  1.0000
  C   C1188     1.0  0.65402  0.15519  0.21028  1.0000
  H   H1181     1.0  0.67882  0.11435  0.25684  1.0000
  H   H1182     1.0  0.70848  0.14239  0.26516  1.0000
  H   H1183     1.0  0.67602  0.17507  0.28283  1.0000
  C   C1189     1.0  0.83307  0.22348  0.35018  1.0000
  Fe  Fe205     1.0  0.84397  0.24163  0.04586  1.0000
  N   N97       1.0  0.82147  0.19547  0.11285  1.0000
  C   C1190     1.0  0.81810  0.17692  0.11655  1.0000
  C   C1191     1.0  0.80891  0.20048  0.09850  1.0000
  C   C1192     1.0  0.80205  0.16285  0.10506  1.0000
  C   C1193     1.0  0.79263  0.18681  0.08697  1.0000
  C   C1194     1.0  0.78927  0.16786  0.09014  1.0000
  C   C1195     1.0  0.83816  0.21011  0.12532  1.0000
  H   H1184     1.0  0.82809  0.17288  0.12774  1.0000
  H   H1185     1.0  0.81153  0.21515  0.09562  1.0000
  H   H1186     1.0  0.79985  0.14816  0.10712  1.0000
  H   H1187     1.0  0.78281  0.19100  0.07553  1.0000
  H   H1188     1.0  0.77689  0.15708  0.08089  1.0000
  H   H1189     1.0  0.83454  0.21437  0.14474  1.0000
  H   H1190     1.0  0.84982  0.20516  0.12821  1.0000
  H   H1191     1.0  0.84363  0.22263  0.11254  1.0000
  H   H1192     1.0  0.90370  0.10029  0.45674  1.0000
  C   C1196     1.0  0.66039  0.12865  0.26508  1.0000
  C   C1197     1.0  0.65977  0.14588  0.27255  1.0000
  H   H1193     1.0  0.90143  0.17844  0.99221  1.0000
  H   H1194     1.0  0.92553  0.14561  0.99871  1.0000
  H   H1195     1.0  0.81699  0.16819  0.25059  1.0000
  C   C1198     1.0  0.80041  0.17766  0.37650  1.0000
  C   C1199     1.0  0.89657  0.12943  0.00774  1.0000
  S   S410      1.0  0.78922  0.22793  0.46899  1.0000
  C   C1200     1.0  0.79526  0.23549  0.37918  1.0000
  H   H1196     1.0  0.96721  0.17852  0.29830  1.0000
  Fe  Fe206     1.0  0.81617  0.24242  0.00239  1.0000
  H   H1197     1.0  0.89465  0.16288  0.03620  1.0000
  H   H1198     1.0  0.91630  0.10338  0.00388  1.0000
  H   H1199     1.0  0.86503  0.20937  0.38079  1.0000
  N   N98       1.0  0.83848  0.15804  0.25999  1.0000
  C   C1201     1.0  0.85728  0.16427  0.26663  1.0000
  C   C1202     1.0  0.82643  0.14053  0.26708  1.0000
  C   C1203     1.0  0.86439  0.15297  0.28112  1.0000
  C   C1204     1.0  0.83314  0.12876  0.28124  1.0000
  C   C1205     1.0  0.85226  0.13504  0.28821  1.0000
  C   C1206     1.0  0.83124  0.16979  0.24420  1.0000
  H   H1200     1.0  0.86686  0.17819  0.26128  1.0000
  H   H1201     1.0  0.81149  0.13571  0.26213  1.0000
  H   H1202     1.0  0.92281  0.10357  0.28757  1.0000
  H   H1203     1.0  0.82356  0.11493  0.28696  1.0000
  C   C1207     1.0  0.87151  0.07585  0.99007  1.0000
  C   C1208     1.0  0.88883  0.07947  0.03074  1.0000
  H   H1204     1.0  0.83040  0.16574  0.22297  1.0000
  H   H1205     1.0  0.79728  0.16697  0.36031  1.0000
  N   N99       1.0  0.81772  0.19381  0.37107  1.0000
  C   C1209     1.0  0.81676  0.20800  0.35591  1.0000
  C   C1210     1.0  0.83480  0.19416  0.37992  1.0000
  H   H1206     1.0  0.84560  0.14774  0.01699  1.0000
  C   C1211     1.0  0.85145  0.20936  0.37441  1.0000
  H   H1207     1.0  0.83569  0.18250  0.39087  1.0000
  H   H1208     1.0  0.66710  0.16468  0.21979  1.0000
  H   H1209     1.0  0.80330  0.20736  0.34805  1.0000
  H   H1210     1.0  0.86942  0.08141  0.45140  1.0000
  C   C1212     1.0  0.95865  0.16592  0.28703  1.0000
  N   N100      1.0  0.94127  0.13251  0.28529  1.0000
  C   C1213     1.0  0.95249  0.14840  0.29906  1.0000
  C   C1214     1.0  0.93634  0.13347  0.25931  1.0000
  C   C1215     1.0  0.80659  0.99567  0.10277  1.0000
  C   C1216     1.0  0.94223  0.15076  0.24667  1.0000
  C   C1217     1.0  0.95335  0.16709  0.26073  1.0000
  C   C1218     1.0  0.93506  0.11433  0.29839  1.0000
  H   H1211     1.0  0.82583  0.24042  0.17306  1.0000
  H   H1212     1.0  0.92726  0.12092  0.24842  1.0000
  H   H1213     1.0  0.76068  0.21996  0.13604  1.0000
  H   H1214     1.0  0.93774  0.15148  0.22631  1.0000
  C   C1219     1.0  0.88129  0.16520  0.03467  1.0000
  H   H1215     1.0  0.95771  0.18063  0.25135  1.0000
  H   H1216     1.0  0.88369  0.17943  0.04257  1.0000
  N   N101      1.0  0.88828  0.08265  0.00422  1.0000
  C   C1220     1.0  0.87646  0.08255  0.47060  1.0000
  C   C1221     1.0  0.89576  0.09309  0.47356  1.0000
  C   C1222     1.0  0.77494  0.22427  0.14399  1.0000
  C   C1223     1.0  0.85052  0.22414  0.35956  1.0000
  C   C1224     1.0  0.85538  0.15390  0.00136  1.0000
  H   H1217     1.0  0.85770  0.12610  0.29922  1.0000
  C   C1225     1.0  0.87814  0.12125  0.99731  1.0000
  C   C1226     1.0  0.78937  0.99534  0.11146  1.0000
  H   H1218     1.0  0.86677  0.11356  0.01001  1.0000
  H   H1219     1.0  0.93020  0.11558  0.31853  1.0000
  H   H1220     1.0  0.86335  0.23582  0.35472  1.0000
  H   H1221     1.0  0.82037  0.24408  0.12522  1.0000
  H   H1222     1.0  0.84039  0.18494  0.24673  1.0000
  H   H1223     1.0  0.66354  0.13261  0.20648  1.0000
  C   C1227     1.0  0.88650  0.17116  0.98757  1.0000
  H   H1224     1.0  0.87114  0.15460  0.04733  1.0000
  C   C1228     1.0  0.79314  0.23007  0.43454  1.0000
  H   H1225     1.0  0.80171  0.17119  0.39560  1.0000
  S   S411      1.0  0.79573  0.24090  0.34510  1.0000
  S   S412      1.0  0.78561  0.23569  0.09335  1.0000
  H   H1226     1.0  0.97872  0.21983  0.36578  1.0000
  C   C1229     1.0  0.87230  0.06930  0.04380  1.0000
  C   C1230     1.0  0.85514  0.06241  0.02960  1.0000
  H   H1227     1.0  0.95652  0.14765  0.31962  1.0000
  C   C1231     1.0  0.90587  0.09252  0.99062  1.0000
  C   C1232     1.0  0.91119  0.13929  0.99084  1.0000
  C   C1233     1.0  0.85468  0.06575  0.00258  1.0000
  C   C1234     1.0  0.65197  0.13705  0.20253  1.0000
  Fe  Fe207     1.0  0.74412  0.18774  0.78152  1.0000
  S   S413      1.0  0.75999  0.21901  0.77614  1.0000
  S   S414      1.0  0.71195  0.17968  0.78034  1.0000
  Fe  Fe208     1.0  0.78131  0.18286  0.79415  1.0000
  S   S415      1.0  0.79862  0.21331  0.78945  1.0000
  S   S416      1.0  0.79619  0.16427  0.80868  1.0000
  Fe  Fe209     1.0  0.77670  0.21804  0.81298  1.0000
  H   H1228     1.0  0.88387  0.18792  0.72429  1.0000
  Fe  Fe210     1.0  0.78047  0.21111  0.75292  1.0000
  S   S417      1.0  0.80414  0.22427  0.96502  1.0000
  S   S418      1.0  0.75997  0.18759  0.81969  1.0000
  S   S419      1.0  0.76398  0.17992  0.75626  1.0000
  Fe  Fe211     1.0  0.90376  0.14393  0.82456  1.0000
  S   S420      1.0  0.92059  0.17458  0.81869  1.0000
  S   S421      1.0  0.89121  0.12137  0.79222  1.0000
  Fe  Fe212     1.0  0.90104  0.14978  0.88525  1.0000
  S   S422      1.0  0.91749  0.18104  0.88304  1.0000
  S   S423      1.0  0.88316  0.13408  0.91951  1.0000
  Fe  Fe213     1.0  0.89988  0.17911  0.84575  1.0000
  S   S424      1.0  0.88478  0.19808  0.83358  1.0000
  Fe  Fe214     1.0  0.93685  0.17361  0.85628  1.0000
  S   S425      1.0  0.96917  0.18269  0.85876  1.0000
  S   S426      1.0  0.88249  0.14865  0.84966  1.0000
  S   S427      1.0  0.92097  0.14217  0.86048  1.0000
  S   S428      1.0  0.80750  0.22499  0.53996  1.0000
  S   S429      1.0  0.85668  0.22523  0.55595  1.0000
  Fe  Fe215     1.0  0.84531  0.08448  0.59923  1.0000
  S   S430      1.0  0.87673  0.10008  0.60714  1.0000
  S   S431      1.0  0.83642  0.05235  0.59369  1.0000
  Fe  Fe216     1.0  0.84034  0.12202  0.59178  1.0000
  S   S432      1.0  0.87088  0.13898  0.59922  1.0000
  S   S433      1.0  0.82174  0.13744  0.57891  1.0000
  Fe  Fe217     1.0  0.87564  0.11806  0.57280  1.0000
  S   S434      1.0  0.89817  0.12907  0.54196  1.0000
  Fe  Fe218     1.0  0.86895  0.11967  0.63310  1.0000
  S   S435      1.0  0.88499  0.13711  0.66934  1.0000
  S   S436      1.0  0.84506  0.10177  0.56334  1.0000
  S   S437      1.0  0.83759  0.10341  0.62713  1.0000
  C   C1235     1.0  0.84619  0.20107  0.56378  1.0000
  C   C1236     1.0  0.82830  0.18946  0.55371  1.0000
  C   C1237     1.0  0.82080  0.17013  0.55913  1.0000
  C   C1238     1.0  0.83121  0.16209  0.57426  1.0000
  C   C1239     1.0  0.84897  0.17376  0.58467  1.0000
  C   C1240     1.0  0.85639  0.19313  0.57949  1.0000
  H   H1229     1.0  0.82039  0.19521  0.54116  1.0000
  H   H1230     1.0  0.80703  0.16128  0.55104  1.0000
  H   H1231     1.0  0.85700  0.16793  0.59685  1.0000
  H   H1232     1.0  0.87021  0.20195  0.58744  1.0000
  H   H1233     1.0  0.86297  0.15759  0.70285  1.0000
  C   C1241     1.0  0.89036  0.12565  0.75786  1.0000
  C   C1242     1.0  0.90074  0.14320  0.74737  1.0000
  C   C1243     1.0  0.89937  0.14617  0.72007  1.0000
  C   C1244     1.0  0.88735  0.13178  0.70301  1.0000
  C   C1245     1.0  0.87703  0.11418  0.71346  1.0000
  C   C1246     1.0  0.87865  0.11112  0.74073  1.0000
  H   H1234     1.0  0.90989  0.15446  0.76025  1.0000
  H   H1235     1.0  0.90746  0.15981  0.71217  1.0000
  H   H1236     1.0  0.86779  0.10297  0.70058  1.0000
  H   H1237     1.0  0.87067  0.09745  0.74864  1.0000
  C   C1247     1.0  0.88903  0.13240  0.95323  1.0000
  C   C1248     1.0  0.87445  0.12257  0.97018  1.0000
  H   H1238     1.0  0.90776  0.20280  0.54792  1.0000
  H   H1239     1.0  0.70446  0.16979  0.71201  1.0000
  C   C1249     1.0  0.66021  0.13652  0.70235  1.0000
  C   C1250     1.0  0.90745  0.14088  0.96371  1.0000
  H   H1240     1.0  0.86015  0.11604  0.96226  1.0000
  C   C1251     1.0  0.86457  0.15893  0.72426  1.0000
  H   H1241     1.0  0.84671  0.13014  0.73044  1.0000
  H   H1242     1.0  0.91879  0.14852  0.95088  1.0000
  H   H1243     1.0  0.84705  0.11504  0.77257  1.0000
  C   C1252     1.0  0.77538  0.22316  0.67407  1.0000
  H   H1244     1.0  0.71448  0.18450  0.83592  1.0000
  H   H1245     1.0  0.76361  0.21540  0.68613  1.0000
  H   H1246     1.0  0.86373  0.11583  0.50857  1.0000
  Fe  Fe219     1.0  0.83851  0.24137  0.54385  1.0000
  C   C1253     1.0  0.78875  0.21762  0.88686  1.0000
  C   C1254     1.0  0.79278  0.21446  0.91330  1.0000
  H   H1247     1.0  0.78441  0.20620  0.87245  1.0000
  H   H1248     1.0  0.79164  0.20058  0.91897  1.0000
  C   C1255     1.0  0.82088  0.17375  0.81507  1.0000
  C   C1256     1.0  0.83265  0.19084  0.80451  1.0000
  C   C1257     1.0  0.85214  0.19819  0.81050  1.0000
  C   C1258     1.0  0.86015  0.18841  0.82674  1.0000
  C   C1259     1.0  0.84842  0.17125  0.83714  1.0000
  C   C1260     1.0  0.82891  0.16393  0.83122  1.0000
  H   H1249     1.0  0.82682  0.19828  0.79138  1.0000
  H   H1250     1.0  0.86110  0.21139  0.80217  1.0000
  H   H1251     1.0  0.85426  0.16372  0.85012  1.0000
  H   H1252     1.0  0.81996  0.15068  0.83944  1.0000
  H   H1253     1.0  0.85670  0.12872  0.80171  1.0000
  C   C1261     1.0  0.81932  0.01356  0.59531  1.0000
  C   C1262     1.0  0.81782  0.03068  0.60208  1.0000
  C   C1263     1.0  0.80170  0.02994  0.61496  1.0000
  C   C1264     1.0  0.78736  0.01242  0.62077  1.0000
  H   H1254     1.0  0.83167  0.01387  0.58534  1.0000
  H   H1255     1.0  0.80021  0.04288  0.62027  1.0000
  H   H1256     1.0  0.77497  0.01214  0.63060  1.0000
  H   H1257     1.0  0.84475  0.14549  0.49244  1.0000
  C   C1265     1.0  0.67419  0.12604  0.76300  1.0000
  C   C1266     1.0  0.69126  0.14160  0.76838  1.0000
  C   C1267     1.0  0.69099  0.15894  0.77603  1.0000
  C   C1268     1.0  0.67341  0.16027  0.77903  1.0000
  H   H1258     1.0  0.75048  0.23409  0.87763  1.0000
  H   H1259     1.0  0.67462  0.11283  0.75653  1.0000
  H   H1260     1.0  0.70460  0.14026  0.76602  1.0000
  H   H1261     1.0  0.67298  0.17356  0.78504  1.0000
  H   H1262     1.0  0.83447  0.12794  0.78795  1.0000
  C   C1269     1.0  0.65661  0.12751  0.76529  1.0000
  C   C1270     1.0  0.79853  0.22912  0.93237  1.0000
  H   H1263     1.0  0.90347  0.10004  0.97310  1.0000
  C   C1271     1.0  0.87287  0.15997  0.53574  1.0000
  H   H1264     1.0  0.83371  0.14383  0.97049  1.0000
  H   H1265     1.0  0.84935  0.06656  0.53835  1.0000
  C   C1272     1.0  0.73499  0.18882  0.89711  1.0000
  S   S438      1.0  0.79876  0.22528  0.71818  1.0000
  N   N102      1.0  0.81454  0.20158  0.65486  1.0000
  C   C1273     1.0  0.79544  0.19241  0.65144  1.0000
  C   C1274     1.0  0.82533  0.21014  0.63403  1.0000
  C   C1275     1.0  0.89395  0.08652  0.52019  1.0000
  C   C1276     1.0  0.81696  0.21004  0.60913  1.0000
  C   C1277     1.0  0.74285  0.21895  0.87676  1.0000
  C   C1278     1.0  0.82365  0.20242  0.68094  1.0000
  C   C1279     1.0  0.74429  0.20832  0.89836  1.0000
  H   H1266     1.0  0.84045  0.21749  0.63668  1.0000
  H   H1267     1.0  0.85617  0.15711  0.93434  1.0000
  N   N103      1.0  0.83351  0.22343  0.87416  1.0000
  H   H1268     1.0  0.79386  0.00099  0.70248  1.0000
  H   H1269     1.0  0.83234  0.21726  0.68670  1.0000
  H   H1270     1.0  0.81318  0.19687  0.69665  1.0000
  H   H1271     1.0  0.83266  0.19416  0.68059  1.0000
  C   C1280     1.0  0.72291  0.19131  0.85339  1.0000
  C   C1281     1.0  0.67872  0.17429  0.71564  1.0000
  C   C1282     1.0  0.87552  0.12333  0.49641  1.0000
  H   H1272     1.0  0.81734  0.21087  0.83941  1.0000
  H   H1273     1.0  0.84081  0.22800  0.83399  1.0000
  H   H1274     1.0  0.79079  0.20100  0.58642  1.0000
  H   H1275     1.0  0.91948  0.10376  0.50119  1.0000
  C   C1283     1.0  0.79752  0.20076  0.60546  1.0000
  C   C1284     1.0  0.88012  0.16937  0.96114  1.0000
  C   C1285     1.0  0.83695  0.23840  0.89104  1.0000
  C   C1286     1.0  0.82827  0.22453  0.84638  1.0000
  C   C1287     1.0  0.89017  0.17329  0.54506  1.0000
  H   H1276     1.0  0.75815  0.22099  0.63876  1.0000
  H   H1277     1.0  0.86369  0.05294  0.54217  1.0000
  H   H1278     1.0  0.72136  0.22871  0.83647  1.0000
  H   H1279     1.0  0.65097  0.17410  0.71953  1.0000
  H   H1280     1.0  0.73629  0.18041  0.91354  1.0000
  H   H1281     1.0  0.82545  0.21747  0.59294  1.0000
  C   C1288     1.0  0.83978  0.20584  0.90949  1.0000
  C   C1289     1.0  0.65634  0.14468  0.77378  1.0000
  N   N104      1.0  0.87497  0.07646  0.51720  1.0000
  H   H1282     1.0  0.90085  0.08866  0.53964  1.0000
  H   H1283     1.0  0.87107  0.07845  0.96906  1.0000
  C   C1290     1.0  0.80881  0.24008  0.66915  1.0000
  C   C1291     1.0  0.89366  0.13157  0.50789  1.0000
  H   H1284     1.0  0.92293  0.14750  0.50034  1.0000
  H   H1285     1.0  0.72644  0.21338  0.81362  1.0000
  N   N105      1.0  0.86029  0.16535  0.52210  1.0000
  C   C1292     1.0  0.83530  0.20746  0.88288  1.0000
  C   C1293     1.0  0.78753  0.23607  0.63107  1.0000
  C   C1294     1.0  0.90462  0.09502  0.49847  1.0000
  C   C1295     1.0  0.72413  0.18023  0.87455  1.0000
  C   C1296     1.0  0.86407  0.06739  0.54010  1.0000
  H   H1286     1.0  0.71683  0.16507  0.87328  1.0000
  S   S439      1.0  0.78310  0.23875  0.59700  1.0000
  H   H1287     1.0  0.68587  0.18889  0.72183  1.0000
  N   N106      1.0  0.85841  0.14462  0.76685  1.0000
  C   C1297     1.0  0.85553  0.14337  0.73997  1.0000
  C   C1298     1.0  0.86983  0.16123  0.77877  1.0000
  C   C1299     1.0  0.87902  0.17710  0.76374  1.0000
  C   C1300     1.0  0.87645  0.17587  0.73628  1.0000
  C   C1301     1.0  0.84855  0.12828  0.78304  1.0000
  H   H1288     1.0  0.87209  0.16226  0.80002  1.0000
  H   H1289     1.0  0.88820  0.19015  0.77347  1.0000
  H   H1290     1.0  0.87025  0.07541  0.55871  1.0000
  C   C1302     1.0  0.84269  0.22081  0.92707  1.0000
  C   C1303     1.0  0.79021  0.23549  0.87926  1.0000
  C   C1304     1.0  0.89453  0.19228  0.54041  1.0000
  H   H1291     1.0  0.84556  0.21959  0.94795  1.0000
  H   H1292     1.0  0.90003  0.16883  0.55593  1.0000
  H   H1293     1.0  0.86949  0.14528  0.53972  1.0000
  Fe  Fe220     1.0  0.80836  0.24269  0.50457  1.0000
  H   H1294     1.0  0.83297  0.19576  0.86927  1.0000
  C   C1305     1.0  0.77234  0.22633  0.64721  1.0000
  C   C1306     1.0  0.78666  0.19182  0.62668  1.0000
  H   H1295     1.0  0.83712  0.13917  0.52581  1.0000
  C   C1307     1.0  0.84154  0.23729  0.91776  1.0000
  N   N107      1.0  0.73253  0.21039  0.85449  1.0000
  H   H1296     1.0  0.84077  0.19301  0.91644  1.0000
  C   C1308     1.0  0.79369  0.22995  0.68514  1.0000
  H   H1297     1.0  0.78682  0.18599  0.66805  1.0000
  C   C1309     1.0  0.67992  0.14458  0.70323  1.0000
  C   C1310     1.0  0.88167  0.19767  0.52631  1.0000
  H   H1298     1.0  0.80103  0.00078  0.66924  1.0000
  H   H1299     1.0  0.85454  0.18827  0.50653  1.0000
  C   C1311     1.0  0.86458  0.18391  0.51704  1.0000
  C   C1312     1.0  0.65903  0.16582  0.71440  1.0000
  C   C1313     1.0  0.68919  0.16356  0.71005  1.0000
  H   H1300     1.0  0.68793  0.13595  0.69982  1.0000
  C   C1314     1.0  0.73131  0.22191  0.83218  1.0000
  H   H1301     1.0  0.97486  0.22211  0.86999  1.0000
  S   S440      1.0  0.78469  0.23998  0.84640  1.0000
  C   C1315     1.0  0.86106  0.15937  0.95490  1.0000
  H   H1302     1.0  0.88465  0.21243  0.52321  1.0000
  H   H1303     1.0  0.89002  0.17487  0.94545  1.0000
  H   H1304     1.0  0.75295  0.21517  0.91568  1.0000
  C   C1316     1.0  0.84253  0.15100  0.51184  1.0000
  H   H1305     1.0  0.77148  0.18509  0.62415  1.0000
  H   H1306     1.0  0.83141  0.15676  0.50963  1.0000
  C   C1317     1.0  0.84854  0.15172  0.97512  1.0000
  C   C1318     1.0  0.90883  0.14107  0.49165  1.0000
  C   C1319     1.0  0.80579  0.24302  0.64225  1.0000
  N   N108      1.0  0.65003  0.14717  0.70781  1.0000
  H   H1307     1.0  0.74541  0.23293  0.82841  1.0000
  H   H1308     1.0  0.65313  0.12154  0.69844  1.0000
  H   H1309     1.0  0.85118  0.06619  0.49039  1.0000
  H   H1310     1.0  0.82212  0.23528  0.84344  1.0000
  H   H1311     1.0  0.91195  0.08238  0.98410  1.0000
  C   C1320     1.0  0.86622  0.07420  0.49276  1.0000
  C   C1321     1.0  0.80503  0.99604  0.60125  1.0000
  C   C1322     1.0  0.78886  0.99531  0.61398  1.0000
  C   C1323     1.0  0.82063  0.30140  0.45596  1.0000
  C   C1324     1.0  0.89733  0.35039  0.01856  1.0000
  H   H1312     1.0  0.79170  0.29769  0.08225  1.0000
  Fe  Fe221     1.0  0.92061  0.42089  0.01690  1.0000
  S   S441      1.0  0.90040  0.43550  0.02087  1.0000
  S   S442      1.0  0.93612  0.47511  0.01083  1.0000
  H   H1313     1.0  0.85837  0.44037  0.28324  1.0000
  S   S443      1.0  0.90643  0.46150  0.44694  1.0000
  Fe  Fe222     1.0  0.92375  0.45710  0.04594  1.0000
  S   S444      1.0  0.92312  0.47511  0.08189  1.0000
  H   H1314     1.0  0.79827  0.28015  0.39869  1.0000
  S   S445      1.0  0.94334  0.44178  0.04364  1.0000
  C   C1325     1.0  0.79028  0.27701  0.46377  1.0000
  S   S446      1.0  0.93477  0.47191  0.32843  1.0000
  H   H1315     1.0  0.75850  0.26425  0.42581  1.0000
  S   S447      1.0  0.90252  0.46155  0.20379  1.0000
  C   C1326     1.0  0.80682  0.29137  0.47345  1.0000
  H   H1316     1.0  0.94806  0.47515  0.45325  1.0000
  Fe  Fe223     1.0  0.83838  0.27854  0.03538  1.0000
  S   S448      1.0  0.80723  0.26217  0.02620  1.0000
  S   S449      1.0  0.84605  0.31054  0.03880  1.0000
  H   H1317     1.0  0.93224  0.44867  0.41886  1.0000
  S   S450      1.0  0.84725  0.25940  0.00955  1.0000
  H   H1318     1.0  0.91062  0.35067  0.01175  1.0000
  C   C1327     1.0  0.87963  0.43731  0.30922  1.0000
  C   C1328     1.0  0.76960  0.25847  0.42746  1.0000
  C   C1329     1.0  0.96607  0.47796  0.10596  1.0000
  S   S451      1.0  0.83829  0.26229  0.07242  1.0000
  H   H1319     1.0  0.87523  0.43933  0.24236  1.0000
  Fe  Fe224     1.0  0.91854  0.45158  0.48278  1.0000
  H   H1320     1.0  0.78967  0.27409  0.07396  1.0000
  H   H1321     1.0  0.94632  0.46296  0.19117  1.0000
  C   C1330     1.0  0.80058  0.28326  0.41976  1.0000
  H   H1322     1.0  0.94830  0.45472  0.14430  1.0000
  C   C1331     1.0  0.80607  0.27729  0.15094  1.0000
  H   H1323     1.0  0.95456  0.46438  0.09999  1.0000
  H   H1324     1.0  0.90897  0.48489  0.35638  1.0000
  C   C1332     1.0  0.79782  0.27818  0.12627  1.0000
  C   C1333     1.0  0.89517  0.36749  0.02298  1.0000
  N   N109      1.0  0.78738  0.27307  0.43722  1.0000
  C   C1334     1.0  0.88253  0.33288  0.02304  1.0000
  C   C1335     1.0  0.86527  0.33217  0.03212  1.0000
  C   C1336     1.0  0.86309  0.34928  0.03642  1.0000
  C   C1337     1.0  0.87786  0.36679  0.03184  1.0000
  H   H1325     1.0  0.83648  0.30380  0.09345  1.0000
  N   N110      1.0  0.80870  0.28752  0.10594  1.0000
  H   H1326     1.0  0.84986  0.34901  0.04344  1.0000
  H   H1327     1.0  0.87589  0.37972  0.03544  1.0000
  C   C1338     1.0  0.91714  0.47069  0.11560  1.0000
  C   C1339     1.0  0.92123  0.48613  0.13309  1.0000
  C   C1340     1.0  0.91700  0.48354  0.16007  1.0000
  C   C1341     1.0  0.90835  0.46542  0.16991  1.0000
  C   C1342     1.0  0.90422  0.44995  0.15245  1.0000
  C   C1343     1.0  0.90873  0.45254  0.12548  1.0000
  C   C1344     1.0  0.82782  0.29631  0.10953  1.0000
  H   H1328     1.0  0.78271  0.27084  0.12323  1.0000
  H   H1329     1.0  0.89747  0.43586  0.15978  1.0000
  H   H1330     1.0  0.90542  0.44053  0.11229  1.0000
  C   C1345     1.0  0.91449  0.46423  0.41406  1.0000
  C   C1346     1.0  0.90790  0.47431  0.39611  1.0000
  C   C1347     1.0  0.91413  0.47707  0.36993  1.0000
  C   C1348     1.0  0.92696  0.46961  0.36139  1.0000
  C   C1349     1.0  0.93344  0.45941  0.37928  1.0000
  C   C1350     1.0  0.92728  0.45674  0.40546  1.0000
  S   S452      1.0  0.91445  0.38914  0.01660  1.0000
  S   S453      1.0  0.90167  0.48632  0.27481  1.0000
  H   H1331     1.0  0.94326  0.45347  0.37282  1.0000
  N   N111      1.0  0.90609  0.43478  0.28795  1.0000
  C   C1351     1.0  0.89691  0.43531  0.31054  1.0000
  C   C1352     1.0  0.89845  0.43619  0.26373  1.0000
  H   H1332     1.0  0.87270  0.43823  0.32725  1.0000
  C   C1353     1.0  0.88107  0.43795  0.26165  1.0000
  H   H1333     1.0  0.82821  0.30505  0.41510  1.0000
  C   C1354     1.0  0.92449  0.43327  0.28943  1.0000
  H   H1334     1.0  0.90319  0.43474  0.32982  1.0000
  H   H1335     1.0  0.90592  0.43624  0.24582  1.0000
  C   C1355     1.0  0.79957  0.28839  0.08047  1.0000
  Fe  Fe225     1.0  0.95419  0.45864  0.00712  1.0000
  C   C1356     1.0  0.81753  0.29737  0.42889  1.0000
  H   H1336     1.0  0.92852  0.43102  0.31001  1.0000
  H   H1337     1.0  0.92435  0.42141  0.27679  1.0000
  H   H1338     1.0  0.93555  0.44657  0.28283  1.0000
  H   H1339     1.0  0.88455  0.31995  0.01967  1.0000
  H   H1340     1.0  0.83214  0.28481  0.17349  1.0000
  C   C1357     1.0  0.82558  0.28588  0.15464  1.0000
  H   H1341     1.0  0.83372  0.31221  0.46356  1.0000
  Fe  Fe226     1.0  0.91497  0.48419  0.23604  1.0000
  C   C1358     1.0  0.87165  0.43856  0.28457  1.0000
  H   H1342     1.0  0.79743  0.26934  0.16677  1.0000
  C   C1359     1.0  0.83656  0.29550  0.13385  1.0000
  H   H1343     1.0  0.80998  0.29395  0.06470  1.0000
  H   H1344     1.0  0.97982  0.47688  0.10289  1.0000
  S   S454      1.0  0.93834  0.43652  0.48242  1.0000
  H   H1345     1.0  0.81928  0.25421  0.43746  1.0000
  C   C1360     1.0  0.95425  0.47374  0.17758  1.0000
  Fe  Fe227     1.0  0.92918  0.48859  0.29444  1.0000
  H   H1346     1.0  0.85177  0.30217  0.13641  1.0000
  H   H1347     1.0  0.89794  0.48011  0.40253  1.0000
  S   S455      1.0  0.94107  0.48385  0.25613  1.0000
  H   H1348     1.0  0.82111  0.25909  0.38884  1.0000
  C   C1361     1.0  0.95536  0.46920  0.15103  1.0000
  N   N112      1.0  0.96468  0.48293  0.13363  1.0000
  H   H1349     1.0  0.77989  0.26887  0.47766  1.0000
  C   C1362     1.0  0.96100  0.48581  0.44658  1.0000
  H   H1350     1.0  0.77117  0.25279  0.40780  1.0000
  C   C1363     1.0  0.96288  0.49238  0.18628  1.0000
  H   H1351     1.0  0.96450  0.48864  0.09251  1.0000
  C   C1364     1.0  0.80949  0.24741  0.39662  1.0000
  H   H1352     1.0  0.76499  0.24636  0.44106  1.0000
  Fe  Fe228     1.0  0.80802  0.24530  0.06211  1.0000
  H   H1353     1.0  0.97583  0.46714  0.44780  1.0000
  C   C1365     1.0  0.97661  0.48112  0.44318  1.0000
  C   C1366     1.0  0.80853  0.24464  0.42418  1.0000
  C   C1367     1.0  0.90888  0.38296  0.94980  1.0000
  H   H1354     1.0  0.88506  0.38961  0.98172  1.0000
  H   H1355     1.0  0.87935  0.41464  0.64862  1.0000
  S   S456      1.0  0.91559  0.38909  0.52542  1.0000
  S   S457      1.0  0.90092  0.43389  0.51525  1.0000
  H   H1356     1.0  0.90907  0.40196  0.90589  1.0000
  H   H1357     1.0  0.87561  0.43435  0.61204  1.0000
  S   S458      1.0  0.90001  0.46031  0.95104  1.0000
  Fe  Fe229     1.0  0.92104  0.45541  0.54372  1.0000
  S   S459      1.0  0.91150  0.46841  0.57810  1.0000
  H   H1358     1.0  0.84793  0.34825  0.51102  1.0000
  S   S460      1.0  0.94133  0.44114  0.54710  1.0000
  H   H1359     1.0  0.88748  0.47377  0.90431  1.0000
  S   S461      1.0  0.92964  0.47184  0.83318  1.0000
  Fe  Fe230     1.0  0.91678  0.47517  0.73406  1.0000
  S   S462      1.0  0.91549  0.45395  0.70156  1.0000
  S   S463      1.0  0.94129  0.48164  0.76270  1.0000
  S   S464      1.0  0.89710  0.47450  0.76681  1.0000
  Fe  Fe231     1.0  0.83493  0.27911  0.53307  1.0000
  S   S465      1.0  0.80317  0.26421  0.52965  1.0000
  S   S466      1.0  0.84357  0.31066  0.52401  1.0000
  Fe  Fe232     1.0  0.95551  0.45869  0.51249  1.0000
  C   C1368     1.0  0.89945  0.40311  0.92039  1.0000
  H   H1360     1.0  0.88848  0.39918  0.55637  1.0000
  C   C1369     1.0  0.87712  0.41616  0.93356  1.0000
  H   H1361     1.0  0.88045  0.42677  0.56589  1.0000
  S   S467      1.0  0.83985  0.25780  0.50645  1.0000
  S   S468      1.0  0.83652  0.26400  0.57084  1.0000
  H   H1362     1.0  0.90630  0.37977  0.58063  1.0000
  C   C1370     1.0  0.90858  0.47208  0.65789  1.0000
  Fe  Fe233     1.0  0.91490  0.45229  0.98561  1.0000
  S   S469      1.0  0.93652  0.47439  0.51123  1.0000
  H   H1363     1.0  0.89071  0.42145  0.89614  1.0000
  H   H1364     1.0  0.89374  0.36740  0.60858  1.0000
  C   C1371     1.0  0.88620  0.40237  0.57661  1.0000
  Fe  Fe234     1.0  0.80531  0.24790  0.56535  1.0000
  H   H1365     1.0  0.86695  0.40941  0.97293  1.0000
  H   H1366     1.0  0.79697  0.26401  0.89264  1.0000
  C   C1372     1.0  0.89542  0.36738  0.52392  1.0000
  C   C1373     1.0  0.89755  0.35077  0.53153  1.0000
  C   C1374     1.0  0.88197  0.33334  0.53174  1.0000
  C   C1375     1.0  0.86393  0.33223  0.52432  1.0000
  H   H1367     1.0  0.82301  0.24558  0.67756  1.0000
  C   C1376     1.0  0.87736  0.36629  0.51658  1.0000
  H   H1368     1.0  0.89862  0.47853  0.85816  1.0000
  H   H1369     1.0  0.88395  0.32076  0.53758  1.0000
  H   H1370     1.0  0.88151  0.36514  0.57720  1.0000
  C   C1377     1.0  0.88909  0.41411  0.91471  1.0000
  C   C1378     1.0  0.91357  0.46462  0.61235  1.0000
  H   H1371     1.0  0.80450  0.25843  0.93918  1.0000
  C   C1379     1.0  0.86178  0.34886  0.51678  1.0000
  C   C1380     1.0  0.91526  0.45878  0.66740  1.0000
  C   C1381     1.0  0.92132  0.44859  0.64926  1.0000
  C   C1382     1.0  0.92070  0.45163  0.62186  1.0000
  H   H1372     1.0  0.88714  0.38713  0.63849  1.0000
  N   N113      1.0  0.88798  0.39141  0.59679  1.0000
  H   H1373     1.0  0.92648  0.43825  0.65646  1.0000
  H   H1374     1.0  0.92535  0.44366  0.60810  1.0000
  C   C1383     1.0  0.90786  0.46277  0.91806  1.0000
  C   C1384     1.0  0.92275  0.45787  0.91067  1.0000
  C   C1385     1.0  0.92884  0.46034  0.88445  1.0000
  C   C1386     1.0  0.92034  0.46797  0.86535  1.0000
  C   C1387     1.0  0.90532  0.47270  0.87265  1.0000
  C   C1388     1.0  0.89905  0.46998  0.89883  1.0000
  H   H1375     1.0  0.92964  0.45226  0.92516  1.0000
  H   H1376     1.0  0.94043  0.45660  0.87899  1.0000
  C   C1389     1.0  0.88091  0.41105  0.62827  1.0000
  H   H1377     1.0  0.83550  0.25105  0.88413  1.0000
  C   C1390     1.0  0.89261  0.37514  0.59064  1.0000
  C   C1391     1.0  0.87572  0.40736  0.95782  1.0000
  H   H1378     1.0  0.91140  0.35136  0.53732  1.0000
  C   C1392     1.0  0.90760  0.47485  0.63051  1.0000
  H   H1379     1.0  0.92245  0.39202  0.95980  1.0000
  C   C1393     1.0  0.87880  0.42212  0.60776  1.0000
  H   H1380     1.0  0.90203  0.48490  0.62335  1.0000
  H   H1381     1.0  0.80905  0.29465  0.49445  1.0000
  H   H1382     1.0  0.90369  0.47989  0.67162  1.0000
  H   H1383     1.0  0.84340  0.24883  0.93141  1.0000
  H   H1384     1.0  0.86950  0.42518  0.92975  1.0000
  C   C1394     1.0  0.88158  0.41787  0.58179  1.0000
  N   N114      1.0  0.89761  0.39409  0.94397  1.0000
  C   C1395     1.0  0.88612  0.39629  0.96272  1.0000
  Fe  Fe235     1.0  0.92269  0.48401  0.79488  1.0000
  H   H1385     1.0  0.81759  0.25069  0.63017  1.0000
  H   H1386     1.0  0.91178  0.37660  0.93156  1.0000
  Fe  Fe236     1.0  0.92197  0.42021  0.51694  1.0000
  S   S470      1.0  0.93352  0.43649  0.98007  1.0000
  H   H1387     1.0  0.90142  0.37125  0.96325  1.0000
  C   C1396     1.0  0.88550  0.39562  0.62239  1.0000
  H   H1388     1.0  0.87538  0.37885  0.51066  1.0000
  H   H1389     1.0  0.97970  0.47711  0.93852  1.0000
  C   C1397     1.0  0.79584  0.25013  0.89833  1.0000
  C   C1398     1.0  0.97267  0.47468  0.63324  1.0000
  C   C1399     1.0  0.95874  0.49153  0.60565  1.0000
  H   H1390     1.0  0.97097  0.47281  0.59055  1.0000
  H   H1391     1.0  0.97175  0.47905  0.67512  1.0000
  C   C1400     1.0  0.96811  0.48264  0.65561  1.0000
  C   C1401     1.0  0.96785  0.47912  0.60811  1.0000
  H   H1392     1.0  0.95014  0.49239  0.69285  1.0000
  C   C1402     1.0  0.80007  0.24701  0.92474  1.0000
  C   C1403     1.0  0.98236  0.48867  0.92421  1.0000
  H   H1393     1.0  0.96000  0.48868  0.96330  1.0000
  H   H1394     1.0  0.97971  0.46501  0.63541  1.0000
  H   H1395     1.0  0.97409  0.49315  0.73415  1.0000
  H   H1396     1.0  0.98089  0.51208  0.12838  1.0000
  H   H1397     1.0  0.67698  0.52760  0.03878  1.0000
  H   H1398     1.0  0.89320  0.59622  0.24130  1.0000
  H   H1399     1.0  0.81445  0.67603  0.11465  1.0000
  Fe  Fe237     1.0  0.91608  0.51776  0.26996  1.0000
  S   S471      1.0  0.90743  0.54228  0.27899  1.0000
  S   S472      1.0  0.83039  0.71123  0.34481  1.0000
  Fe  Fe238     1.0  0.83814  0.62032  0.30922  1.0000
  S   S473      1.0  0.80917  0.62010  0.30480  1.0000
  S   S474      1.0  0.86147  0.64815  0.31960  1.0000
  Fe  Fe239     1.0  0.82527  0.57910  0.29352  1.0000
  S   S475      1.0  0.79508  0.57628  0.28808  1.0000
  S   S476      1.0  0.82936  0.55187  0.28523  1.0000
  Fe  Fe240     1.0  0.80703  0.60382  0.26701  1.0000
  S   S477      1.0  0.79746  0.61633  0.23149  1.0000
  Fe  Fe241     1.0  0.80036  0.59298  0.32640  1.0000
  S   S478      1.0  0.77870  0.58583  0.35867  1.0000
  S   S479      1.0  0.83683  0.60565  0.27019  1.0000
  S   S480      1.0  0.82966  0.59404  0.33313  1.0000
  S   S481      1.0  0.88758  0.70563  0.07663  1.0000
  Fe  Fe242     1.0  0.77961  0.59947  0.01840  1.0000
  S   S482      1.0  0.76642  0.62054  0.01367  1.0000
  C   C1404     1.0  0.82662  0.67905  0.12884  1.0000
  Fe  Fe243     1.0  0.77294  0.59656  0.07828  1.0000
  S   S483      1.0  0.75938  0.61757  0.07729  1.0000
  S   S484      1.0  0.77489  0.58058  0.11509  1.0000
  Fe  Fe244     1.0  0.74400  0.60190  0.04033  1.0000
  S   S485      1.0  0.71293  0.59614  0.03124  1.0000
  Fe  Fe245     1.0  0.78313  0.63389  0.05094  1.0000
  S   S486      1.0  0.79904  0.66560  0.05429  1.0000
  S   S487      1.0  0.75621  0.57989  0.04275  1.0000
  S   S488      1.0  0.79761  0.61379  0.05421  1.0000
  C   C1405     1.0  0.86296  0.69480  0.07035  1.0000
  C   C1406     1.0  0.85208  0.70526  0.06456  1.0000
  C   C1407     1.0  0.83251  0.69611  0.05974  1.0000
  C   C1408     1.0  0.82368  0.67643  0.06037  1.0000
  C   C1409     1.0  0.83459  0.66597  0.06598  1.0000
  C   C1410     1.0  0.85412  0.67513  0.07107  1.0000
  H   H1400     1.0  0.85868  0.72040  0.06382  1.0000
  H   H1401     1.0  0.82419  0.70432  0.05538  1.0000
  H   H1402     1.0  0.82798  0.65083  0.06664  1.0000
  H   H1403     1.0  0.86242  0.66692  0.07556  1.0000
  C   C1411     1.0  0.78186  0.59101  0.14709  1.0000
  C   C1412     1.0  0.78502  0.58029  0.16763  1.0000
  C   C1413     1.0  0.79009  0.58790  0.19348  1.0000
  C   C1414     1.0  0.79180  0.60627  0.19911  1.0000
  C   C1415     1.0  0.78860  0.61697  0.17856  1.0000
  C   C1416     1.0  0.78376  0.60944  0.15265  1.0000
  H   H1404     1.0  0.78355  0.56601  0.16354  1.0000
  H   H1405     1.0  0.79243  0.57949  0.20910  1.0000
  H   H1406     1.0  0.78980  0.63115  0.18275  1.0000
  H   H1407     1.0  0.78130  0.61782  0.13709  1.0000
  C   C1417     1.0  0.78455  0.59114  0.39284  1.0000
  C   C1418     1.0  0.80324  0.59806  0.40247  1.0000
  C   C1419     1.0  0.80729  0.60054  0.42992  1.0000
  C   C1420     1.0  0.79279  0.59645  0.44808  1.0000
  C   C1421     1.0  0.77411  0.58984  0.43844  1.0000
  C   C1422     1.0  0.77004  0.58708  0.41097  1.0000
  H   H1408     1.0  0.81456  0.60121  0.38881  1.0000
  H   H1409     1.0  0.82178  0.60564  0.43715  1.0000
  H   H1410     1.0  0.76280  0.58659  0.45214  1.0000
  H   H1411     1.0  0.75553  0.58168  0.40376  1.0000
  C   C1423     1.0  0.83923  0.69381  0.33786  1.0000
  C   C1424     1.0  0.85643  0.69818  0.32560  1.0000
  C   C1425     1.0  0.86337  0.68420  0.32066  1.0000
  C   C1426     1.0  0.85292  0.66558  0.32728  1.0000
  C   C1427     1.0  0.83574  0.66112  0.33966  1.0000
  C   C1428     1.0  0.82889  0.67519  0.34484  1.0000
  H   H1412     1.0  0.86419  0.71216  0.31905  1.0000
  H   H1413     1.0  0.87662  0.68773  0.31096  1.0000
  H   H1414     1.0  0.82787  0.64690  0.34572  1.0000
  H   H1415     1.0  0.81560  0.67164  0.35445  1.0000
  C   C1429     1.0  0.88535  0.54373  0.28381  1.0000
  C   C1430     1.0  0.86829  0.52872  0.27790  1.0000
  C   C1431     1.0  0.85119  0.53130  0.27918  1.0000
  C   C1432     1.0  0.85101  0.54886  0.28638  1.0000
  C   C1433     1.0  0.86800  0.56367  0.29319  1.0000
  C   C1434     1.0  0.88508  0.56110  0.29186  1.0000
  H   H1416     1.0  0.86830  0.51527  0.27179  1.0000
  H   H1417     1.0  0.83807  0.51974  0.27403  1.0000
  H   H1418     1.0  0.86805  0.57722  0.29886  1.0000
  H   H1419     1.0  0.89823  0.57277  0.29654  1.0000
  H   H1420     1.0  0.73708  0.54830  0.10574  1.0000
  C   C1435     1.0  0.84687  0.70967  0.26433  1.0000
  C   C1436     1.0  0.67460  0.57598  0.02640  1.0000
  C   C1437     1.0  0.69230  0.57499  0.03098  1.0000
  C   C1438     1.0  0.69305  0.55741  0.03524  1.0000
  C   C1439     1.0  0.67626  0.54112  0.03525  1.0000
  H   H1421     1.0  0.85838  0.58537  0.23555  1.0000
  H   H1422     1.0  0.70649  0.55635  0.03893  1.0000
  H   H1423     1.0  0.73812  0.55754  0.13876  1.0000
  S   S489      1.0  0.79887  0.59905  0.48247  1.0000
  C   C1440     1.0  0.69725  0.54823  0.10772  1.0000
  H   H1424     1.0  0.67380  0.58948  0.02303  1.0000
  N   N115      1.0  0.71590  0.55859  0.11367  1.0000
  C   C1441     1.0  0.82158  0.54887  0.35487  1.0000
  H   H1425     1.0  0.80040  0.53857  0.32373  1.0000
  C   C1442     1.0  0.80433  0.66900  0.28559  1.0000
  H   H1426     1.0  0.77116  0.54824  0.32836  1.0000
  C   C1443     1.0  0.80332  0.54372  0.34405  1.0000
  C   C1444     1.0  0.86405  0.54575  0.21595  1.0000
  H   H1427     1.0  0.76088  0.54346  0.35993  1.0000
  C   C1445     1.0  0.69277  0.57640  0.09556  1.0000
  H   H1428     1.0  0.83432  0.67030  0.12234  1.0000
  N   N116      1.0  0.88318  0.55177  0.21933  1.0000
  H   H1429     1.0  0.86005  0.67365  0.24914  1.0000
  H   H1430     1.0  0.69145  0.53308  0.10957  1.0000
  N   N117      1.0  0.85432  0.66933  0.00431  1.0000
  H   H1431     1.0  0.73817  0.58572  0.11450  1.0000
  C   C1446     1.0  0.71185  0.58678  0.10117  1.0000
  H   H1432     1.0  0.86432  0.69447  0.13323  1.0000
  H   H1433     1.0  0.82122  0.67462  0.14884  1.0000
  H   H1434     1.0  0.81566  0.70770  0.12528  1.0000
  C   C1447     1.0  0.68538  0.55699  0.09884  1.0000
  H   H1435     1.0  0.89061  0.53476  0.19231  1.0000
  H   H1436     1.0  0.88608  0.52586  0.22559  1.0000
  C   C1448     1.0  0.65781  0.55968  0.02644  1.0000
  H   H1437     1.0  0.85210  0.72490  0.26428  1.0000
  H   H1438     1.0  0.83207  0.62208  0.99630  1.0000
  N   N118      1.0  0.83878  0.69911  0.12932  1.0000
  C   C1449     1.0  0.85790  0.70473  0.13255  1.0000
  C   C1450     1.0  0.83081  0.71214  0.12791  1.0000
  C   C1451     1.0  0.86955  0.72383  0.13431  1.0000
  C   C1452     1.0  0.84205  0.73137  0.12970  1.0000
  C   C1453     1.0  0.86153  0.73720  0.13307  1.0000
  C   C1454     1.0  0.83921  0.67434  0.00085  1.0000
  H   H1439     1.0  0.83978  0.56039  0.38916  1.0000
  C   C1455     1.0  0.65851  0.54211  0.03099  1.0000
  H   H1440     1.0  0.88472  0.72823  0.13634  1.0000
  H   H1441     1.0  0.80010  0.67747  0.30003  1.0000
  H   H1442     1.0  0.68385  0.58328  0.08780  1.0000
  H   H1443     1.0  0.79363  0.66402  0.26912  1.0000
  C   C1456     1.0  0.85809  0.70054  0.25528  1.0000
  C   C1457     1.0  0.86542  0.57611  0.23043  1.0000
  C   C1458     1.0  0.86044  0.69358  0.39433  1.0000
  H   H1444     1.0  0.83963  0.55278  0.21986  1.0000
  H   H1445     1.0  0.71779  0.60180  0.09785  1.0000
  S   S490      1.0  0.94284  0.51998  0.29176  1.0000
  N   N119      1.0  0.78941  0.54548  0.35868  1.0000
  C   C1459     1.0  0.79313  0.55213  0.38424  1.0000
  C   C1460     1.0  0.82558  0.55597  0.38075  1.0000
  C   C1461     1.0  0.81127  0.55760  0.39559  1.0000
  H   H1446     1.0  0.87206  0.70873  0.24831  1.0000
  C   C1462     1.0  0.77047  0.54013  0.34664  1.0000
  H   H1447     1.0  0.78218  0.55374  0.39580  1.0000
  H   H1448     1.0  0.92502  0.73387  0.38415  1.0000
  H   H1449     1.0  0.76431  0.52487  0.34173  1.0000
  C   C1463     1.0  0.83355  0.67078  0.26559  1.0000
  C   C1464     1.0  0.89232  0.53871  0.21365  1.0000
  H   H1450     1.0  0.80454  0.65660  0.29638  1.0000
  H   H1451     1.0  0.82083  0.70637  0.28209  1.0000
  C   C1465     1.0  0.89365  0.56972  0.22809  1.0000
  H   H1452     1.0  0.85015  0.71507  0.40388  1.0000
  C   C1466     1.0  0.88494  0.58217  0.23367  1.0000
  C   C1467     1.0  0.97259  0.50624  0.16856  1.0000
  H   H1453     1.0  0.90874  0.57431  0.23166  1.0000
  C   C1468     1.0  0.91327  0.73871  0.38585  1.0000
  H   H1454     1.0  0.67066  0.54873  0.09364  1.0000
  H   H1455     1.0  0.85573  0.53140  0.20958  1.0000
  H   H1456     1.0  0.88062  0.67977  0.02580  1.0000
  Fe  Fe246     1.0  0.95249  0.51501  0.25211  1.0000
  H   H1457     1.0  0.87431  0.67568  0.38147  1.0000
  C   C1469     1.0  0.85138  0.68095  0.25576  1.0000
  H   H1458     1.0  0.83263  0.54773  0.34297  1.0000
  H   H1459     1.0  0.81422  0.56340  0.41561  1.0000
  H   H1460     1.0  0.90763  0.54488  0.21905  1.0000
  C   C1470     1.0  0.82919  0.69909  0.27427  1.0000
  H   H1461     1.0  0.97937  0.52076  0.17538  1.0000
  Fe  Fe247     1.0  0.90379  0.73735  0.07700  1.0000
  N   N120      1.0  0.89508  0.72303  0.38874  1.0000
  C   C1471     1.0  0.89320  0.70497  0.38335  1.0000
  C   C1472     1.0  0.87987  0.72671  0.39603  1.0000
  C   C1473     1.0  0.87590  0.68997  0.38624  1.0000
  C   C1474     1.0  0.86233  0.71207  0.39890  1.0000
  H   H1462     1.0  0.80905  0.66460  0.99427  1.0000
  H   H1463     1.0  0.90504  0.70204  0.37659  1.0000
  H   H1464     1.0  0.92026  0.49560  0.17316  1.0000
  H   H1465     1.0  0.92773  0.50023  0.12568  1.0000
  H   H1466     1.0  0.72040  0.53499  0.12983  1.0000
  N   N121      1.0  0.96209  0.50361  0.44189  1.0000
  C   C1475     1.0  0.72838  0.54930  0.12241  1.0000
  H   H1467     1.0  0.84683  0.68212  0.39605  1.0000
  S   S491      1.0  0.92702  0.51526  0.22983  1.0000
  C   C1476     1.0  0.85488  0.55779  0.22153  1.0000
  N   N122      1.0  0.82288  0.67991  0.27516  1.0000
  H   H1468     1.0  0.82846  0.65554  0.26607  1.0000
  C   C1477     1.0  0.72329  0.57760  0.11030  1.0000
  H   H1469     1.0  0.97706  0.50613  0.00400  1.0000
  C   C1478     1.0  0.81859  0.64180  0.99421  1.0000
  H   H1470     1.0  0.87292  0.69756  0.01482  1.0000
  H   H1471     1.0  0.93736  0.50570  0.42571  1.0000
  H   H1472     1.0  0.94941  0.52291  0.45157  1.0000
  C   C1479     1.0  0.82111  0.66065  0.99598  1.0000
  H   H1473     1.0  0.83574  0.74171  0.12848  1.0000
  H   H1474     1.0  0.72408  0.57036  0.99663  1.0000
  H   H1475     1.0  0.86391  0.64685  0.00529  1.0000
  C   C1480     1.0  0.85195  0.65084  0.00260  1.0000
  C   C1481     1.0  0.83405  0.63680  0.99752  1.0000
  H   H1476     1.0  0.97935  0.53118  0.42964  1.0000
  C   C1482     1.0  0.94542  0.50810  0.44488  1.0000
  C   C1483     1.0  0.97843  0.51704  0.43335  1.0000
  C   C1484     1.0  0.87329  0.68376  0.00911  1.0000
  C   C1485     1.0  0.97339  0.50123  0.14212  1.0000
  H   H1477     1.0  0.84097  0.68895  0.00256  1.0000
  Fe  Fe248     1.0  0.84947  0.74127  0.33697  1.0000
  S   S492      1.0  0.98066  0.53198  0.23508  1.0000
  H   H1478     1.0  0.96195  0.49615  0.20670  1.0000
  H   H1479     1.0  0.80466  0.63102  0.99048  1.0000
  H   H1480     1.0  0.88119  0.74106  0.39928  1.0000
  H   H1481     1.0  0.90345  0.74131  0.21621  1.0000
  H   H1482     1.0  0.93594  0.49907  0.45986  1.0000
  H   H1483     1.0  0.75070  0.56088  0.98742  1.0000
  H   H1484     1.0  0.88166  0.68563  0.99108  1.0000
  S   S493      1.0  0.93036  0.51503  0.78862  1.0000
  H   H1485     1.0  0.76103  0.56104  0.94146  1.0000
  Fe  Fe249     1.0  0.94718  0.51162  0.75469  1.0000
  H   H1486     1.0  0.86531  0.71769  0.63842  1.0000
  C   C1486     1.0  0.81438  0.53654  0.72766  1.0000
  C   C1487     1.0  0.95439  0.50278  0.67670  1.0000
  S   S494      1.0  0.82497  0.71572  0.81260  1.0000
  Fe  Fe250     1.0  0.83427  0.62166  0.78863  1.0000
  S   S495      1.0  0.80315  0.61251  0.79031  1.0000
  S   S496      1.0  0.85205  0.65148  0.77768  1.0000
  Fe  Fe251     1.0  0.83278  0.58306  0.80390  1.0000
  S   S497      1.0  0.80107  0.57141  0.80673  1.0000
  S   S498      1.0  0.84860  0.56496  0.81735  1.0000
  Fe  Fe252     1.0  0.80190  0.58673  0.76862  1.0000
  S   S499      1.0  0.78018  0.57719  0.73469  1.0000
  Fe  Fe253     1.0  0.80558  0.59856  0.82829  1.0000
  S   S500      1.0  0.78985  0.60539  0.86188  1.0000
  S   S501      1.0  0.83316  0.59659  0.76448  1.0000
  S   S502      1.0  0.83711  0.60936  0.82775  1.0000
  S   S503      1.0  0.88684  0.70178  0.59159  1.0000
  Fe  Fe254     1.0  0.78156  0.59885  0.51860  1.0000
  S   S504      1.0  0.76483  0.61688  0.52401  1.0000
  H   H1487     1.0  0.82926  0.52158  0.81433  1.0000
  Fe  Fe255     1.0  0.78095  0.59048  0.57865  1.0000
  S   S505      1.0  0.76442  0.60792  0.58724  1.0000
  S   S506      1.0  0.79372  0.57848  0.61119  1.0000
  Fe  Fe256     1.0  0.74679  0.59382  0.55071  1.0000
  S   S507      1.0  0.71502  0.58424  0.55744  1.0000
  Fe  Fe257     1.0  0.78389  0.62883  0.55990  1.0000
  S   S508      1.0  0.79835  0.66009  0.56950  1.0000
  S   S509      1.0  0.76264  0.57505  0.54347  1.0000
  S   S510      1.0  0.80132  0.61211  0.55332  1.0000
  C   C1488     1.0  0.86209  0.69040  0.58672  1.0000
  C   C1489     1.0  0.85048  0.70049  0.58432  1.0000
  C   C1490     1.0  0.83094  0.69097  0.57973  1.0000
  C   C1491     1.0  0.82282  0.67131  0.57710  1.0000
  C   C1492     1.0  0.83439  0.66120  0.57986  1.0000
  C   C1493     1.0  0.85390  0.67070  0.58485  1.0000
  H   H1488     1.0  0.85652  0.71563  0.58579  1.0000
  H   H1489     1.0  0.82211  0.69893  0.57770  1.0000
  H   H1490     1.0  0.82839  0.64607  0.57803  1.0000
  H   H1491     1.0  0.86276  0.66276  0.58678  1.0000
  C   C1494     1.0  0.79078  0.58033  0.64558  1.0000
  C   C1495     1.0  0.80421  0.57856  0.66357  1.0000
  C   C1496     1.0  0.80169  0.57866  0.69105  1.0000
  C   C1497     1.0  0.78532  0.57977  0.70070  1.0000
  C   C1498     1.0  0.77204  0.58185  0.68273  1.0000
  C   C1499     1.0  0.77498  0.58263  0.65534  1.0000
  H   H1492     1.0  0.81652  0.57687  0.65619  1.0000
  H   H1493     1.0  0.81204  0.57711  0.70467  1.0000
  H   H1494     1.0  0.75937  0.58280  0.69009  1.0000
  H   H1495     1.0  0.76477  0.58446  0.64181  1.0000
  C   C1500     1.0  0.79211  0.60196  0.89625  1.0000
  C   C1501     1.0  0.80230  0.59173  0.90613  1.0000
  C   C1502     1.0  0.80288  0.58853  0.93348  1.0000
  C   C1503     1.0  0.79343  0.59562  0.95126  1.0000
  C   C1504     1.0  0.78362  0.60625  0.94147  1.0000
  C   C1505     1.0  0.78290  0.60931  0.91409  1.0000
  H   H1496     1.0  0.80943  0.58596  0.89265  1.0000
  H   H1497     1.0  0.81047  0.58024  0.94083  1.0000
  H   H1498     1.0  0.77614  0.61167  0.95484  1.0000
  H   H1499     1.0  0.77495  0.61722  0.90663  1.0000
  C   C1506     1.0  0.83196  0.69809  0.80020  1.0000
  C   C1507     1.0  0.85015  0.70245  0.79117  1.0000
  C   C1508     1.0  0.85598  0.68807  0.78359  1.0000
  C   C1509     1.0  0.84365  0.66921  0.78485  1.0000
  C   C1510     1.0  0.82520  0.66491  0.79274  1.0000
  C   C1511     1.0  0.81937  0.67929  0.80038  1.0000
  H   H1500     1.0  0.85982  0.71687  0.79020  1.0000
  H   H1501     1.0  0.87026  0.69155  0.77743  1.0000
  H   H1502     1.0  0.81543  0.65056  0.79341  1.0000
  H   H1503     1.0  0.80519  0.67578  0.80699  1.0000
  C   C1512     1.0  0.87820  0.53478  0.76831  1.0000
  C   C1513     1.0  0.87884  0.53442  0.79593  1.0000
  C   C1514     1.0  0.87054  0.54456  0.81071  1.0000
  C   C1515     1.0  0.86159  0.55520  0.79808  1.0000
  C   C1516     1.0  0.86178  0.55632  0.77052  1.0000
  C   C1517     1.0  0.86998  0.54608  0.75574  1.0000
  H   H1504     1.0  0.88510  0.52578  0.80585  1.0000
  H   H1505     1.0  0.87053  0.54367  0.83204  1.0000
  H   H1506     1.0  0.85506  0.56453  0.76055  1.0000
  H   H1507     1.0  0.86954  0.54654  0.73438  1.0000
  C   C1518     1.0  0.87285  0.70104  0.85469  1.0000
  C   C1519     1.0  0.87325  0.68389  0.84659  1.0000
  C   C1520     1.0  0.67643  0.56519  0.55386  1.0000
  C   C1521     1.0  0.69379  0.56685  0.54351  1.0000
  C   C1522     1.0  0.69375  0.55411  0.52367  1.0000
  C   C1523     1.0  0.67660  0.53994  0.51444  1.0000
  H   H1508     1.0  0.67623  0.57492  0.56922  1.0000
  H   H1509     1.0  0.70693  0.55514  0.51549  1.0000
  H   H1510     1.0  0.69616  0.58266  0.94408  1.0000
  C   C1524     1.0  0.70388  0.58117  0.96222  1.0000
  N   N123      1.0  0.81486  0.62786  0.66328  1.0000
  C   C1525     1.0  0.80051  0.62712  0.67916  1.0000
  C   C1526     1.0  0.83190  0.62950  0.67417  1.0000
  C   C1527     1.0  0.80286  0.62751  0.70672  1.0000
  C   C1528     1.0  0.83479  0.63011  0.70167  1.0000
  C   C1529     1.0  0.82014  0.62908  0.71797  1.0000
  C   C1530     1.0  0.74342  0.56486  0.97139  1.0000
  H   H1511     1.0  0.83526  0.50714  0.74749  1.0000
  H   H1512     1.0  0.84334  0.63028  0.66159  1.0000
  C   C1531     1.0  0.86727  0.69932  0.52203  1.0000
  H   H1513     1.0  0.84827  0.63135  0.71042  1.0000
  H   H1514     1.0  0.82218  0.62948  0.73929  1.0000
  H   H1515     1.0  0.80171  0.55013  0.75378  1.0000
  H   H1516     1.0  0.71865  0.58071  0.91489  1.0000
  H   H1517     1.0  0.96679  0.51530  0.68371  1.0000
  H   H1518     1.0  0.81414  0.49870  0.80089  1.0000
  H   H1519     1.0  0.88942  0.72218  0.64776  1.0000
  N   N124      1.0  0.83695  0.67417  0.51481  1.0000
  H   H1520     1.0  0.83290  0.71630  0.51433  1.0000
  H   H1521     1.0  0.67680  0.53020  0.49909  1.0000
  H   H1522     1.0  0.88606  0.71095  0.69166  1.0000
  C   C1532     1.0  0.65923  0.53829  0.52476  1.0000
  C   C1533     1.0  0.72846  0.57030  0.97645  1.0000
  N   N125      1.0  0.71950  0.57556  0.95624  1.0000
  Fe  Fe258     1.0  0.90569  0.50562  0.75922  1.0000
  C   C1534     1.0  0.82757  0.51629  0.74893  1.0000
  C   C1535     1.0  0.74925  0.56496  0.94554  1.0000
  C   C1536     1.0  0.74035  0.57079  0.92513  1.0000
  H   H1523     1.0  0.70929  0.59481  0.97335  1.0000
  H   H1524     1.0  0.82050  0.62083  0.62439  1.0000
  H   H1525     1.0  0.88615  0.68321  0.83959  1.0000
  C   C1537     1.0  0.95444  0.49925  0.62844  1.0000
  H   H1526     1.0  0.88294  0.74142  0.63971  1.0000
  H   H1527     1.0  0.86749  0.72733  0.52267  1.0000
  S   S511      1.0  0.79333  0.58983  0.98517  1.0000
  C   C1538     1.0  0.94213  0.50085  0.94474  1.0000
  C   C1539     1.0  0.82377  0.52433  0.72593  1.0000
  H   H1528     1.0  0.80450  0.73638  0.84217  1.0000
  C   C1540     1.0  0.80898  0.54060  0.75226  1.0000
  H   H1529     1.0  0.81674  0.64256  0.62749  1.0000
  S   S512      1.0  0.88521  0.51968  0.74862  1.0000
  C   C1541     1.0  0.82635  0.51185  0.79691  1.0000
  H   H1530     1.0  0.78701  0.62587  0.67057  1.0000
  H   H1531     1.0  0.94234  0.50704  0.67281  1.0000
  C   C1542     1.0  0.93757  0.50776  0.92131  1.0000
  H   H1532     1.0  0.88550  0.71382  0.85435  1.0000
  C   C1543     1.0  0.87858  0.71985  0.69642  1.0000
  H   H1533     1.0  0.72832  0.58044  0.61195  1.0000
  H   H1534     1.0  0.70706  0.56386  0.62515  1.0000
  H   H1535     1.0  0.79129  0.62630  0.71932  1.0000
  C   C1544     1.0  0.85676  0.66762  0.84704  1.0000
  S   S513      1.0  0.92354  0.50525  0.72480  1.0000
  C   C1545     1.0  0.72189  0.56633  0.62082  1.0000
  H   H1536     1.0  0.72934  0.56622  0.63990  1.0000
  H   H1537     1.0  0.69352  0.57044  0.97459  1.0000
  H   H1538     1.0  0.74524  0.57147  0.90508  1.0000
  H   H1539     1.0  0.69477  0.54440  0.58721  1.0000
  H   H1540     1.0  0.85553  0.71513  0.86879  1.0000
  C   C1546     1.0  0.82542  0.65404  0.51134  1.0000
  H   H1541     1.0  0.94394  0.51309  0.88020  1.0000
  N   N126      1.0  0.72296  0.55209  0.60233  1.0000
  C   C1547     1.0  0.70775  0.54207  0.58620  1.0000
  N   N127      1.0  0.84026  0.66848  0.85495  1.0000
  H   H1542     1.0  0.80932  0.53597  0.79407  1.0000
  N   N128      1.0  0.87363  0.72949  0.67701  1.0000
  Fe  Fe259     1.0  0.84895  0.74368  0.81941  1.0000
  C   C1548     1.0  0.85895  0.71242  0.52008  1.0000
  C   C1549     1.0  0.73954  0.54965  0.60029  1.0000
  H   H1543     1.0  0.75176  0.55785  0.61258  1.0000
  C   C1550     1.0  0.65928  0.55105  0.54457  1.0000
  C   C1551     1.0  0.81230  0.62790  0.63445  1.0000
  H   H1544     1.0  0.82312  0.64089  0.84039  1.0000
  C   C1552     1.0  0.70890  0.52917  0.56749  1.0000
  C   C1553     1.0  0.72541  0.57611  0.93087  1.0000
  C   C1554     1.0  0.74116  0.53677  0.58194  1.0000
  H   H1545     1.0  0.69689  0.52162  0.55436  1.0000
  C   C1555     1.0  0.87801  0.72755  0.64941  1.0000
  H   H1546     1.0  0.82664  0.68602  0.86884  1.0000
  C   C1556     1.0  0.72574  0.52655  0.56535  1.0000
  H   H1547     1.0  0.79734  0.62001  0.62814  1.0000
  H   H1548     1.0  0.94697  0.50856  0.62632  1.0000
  H   H1549     1.0  0.75448  0.53518  0.58019  1.0000
  H   H1550     1.0  0.72692  0.51683  0.55060  1.0000
  H   H1551     1.0  0.81137  0.54292  0.71000  1.0000
  C   C1557     1.0  0.83975  0.68525  0.86293  1.0000
  C   C1558     1.0  0.82323  0.65121  0.85590  1.0000
  C   C1559     1.0  0.83953  0.70622  0.51540  1.0000
  C   C1560     1.0  0.85601  0.70177  0.86291  1.0000
  H   H1552     1.0  0.83144  0.64540  0.52293  1.0000
  H   H1553     1.0  0.82240  0.64455  0.87546  1.0000
  H   H1554     1.0  0.81029  0.65402  0.85217  1.0000
  C   C1561     1.0  0.85602  0.68014  0.51915  1.0000
  H   H1555     1.0  0.82436  0.64977  0.49014  1.0000
  N   N129      1.0  0.82248  0.52058  0.77304  1.0000
  H   H1556     1.0  0.85713  0.65439  0.84032  1.0000
  C   C1562     1.0  0.82867  0.68693  0.51278  1.0000
  H   H1557     1.0  0.93392  0.49986  0.96217  1.0000
  C   C1563     1.0  0.94776  0.50830  0.89875  1.0000
  C   C1564     1.0  0.85979  0.74282  0.70924  1.0000
  H   H1558     1.0  0.87901  0.71463  0.73836  1.0000
  H   H1559     1.0  0.82832  0.52129  0.70697  1.0000
  Fe  Fe260     1.0  0.90261  0.73315  0.58602  1.0000
  C   C1565     1.0  0.86419  0.74072  0.68307  1.0000
  H   H1560     1.0  0.88228  0.70398  0.52655  1.0000
  C   C1566     1.0  0.81318  0.53245  0.77490  1.0000
  H   H1561     1.0  0.97539  0.50559  0.50758  1.0000
  S   S514      1.0  0.97645  0.53152  0.74433  1.0000
  H   H1562     1.0  0.83912  0.50860  0.79477  1.0000
  H   H1563     1.0  0.92579  0.51215  0.92046  1.0000
  H   H1564     1.0  0.97009  0.50212  0.88226  1.0000
  H   H1565     1.0  0.86259  0.67005  0.52115  1.0000
  H   H1566     1.0  0.86246  0.73543  0.74971  1.0000
  C   C1567     1.0  0.96245  0.50191  0.90000  1.0000
  C   C1568     1.0  0.86509  0.73333  0.72921  1.0000
  C   C1569     1.0  0.87450  0.72173  0.72282  1.0000
  H   H1567     1.0  0.81352  0.68218  0.50978  1.0000
  H   H1568     1.0  0.81095  0.65055  0.51849  1.0000
  H   H1569     1.0  0.90259  0.74392  0.94321  1.0000
  N   N130      1.0  0.96666  0.49491  0.92299  1.0000
  C   C1570     1.0  0.95679  0.49442  0.94521  1.0000
  H   H1570     1.0  0.95446  0.49468  0.58624  1.0000
  N   N131      1.0  0.95889  0.49454  0.65300  1.0000
  Fe  Fe261     1.0  0.85440  0.78149  0.32512  1.0000
  S   S515      1.0  0.88588  0.79047  0.32117  1.0000
  S   S516      1.0  0.84229  0.80351  0.31552  1.0000
  H   H1571     1.0  0.86461  0.81317  0.42855  1.0000
  H   H1572     1.0  0.66504  0.86829  0.16121  1.0000
  Fe  Fe262     1.0  0.88409  0.77382  0.35821  1.0000
  C   C1571     1.0  0.97701  0.78392  0.14737  1.0000
  Fe  Fe263     1.0  0.87869  0.76348  0.29775  1.0000
  H   H1573     1.0  0.72133  0.91312  0.42880  1.0000
  N   N132      1.0  0.97262  0.79857  0.15577  1.0000
  H   H1574     1.0  0.96602  0.77079  0.14057  1.0000
  Fe  Fe264     1.0  0.94346  0.76932  0.07872  1.0000
  S   S517      1.0  0.93133  0.79141  0.08019  1.0000
  H   H1575     1.0  0.83242  0.96485  0.17952  1.0000
  H   H1576     1.0  0.89287  0.81048  0.41061  1.0000
  H   H1577     1.0  0.92398  0.77797  0.48491  1.0000
  Fe  Fe265     1.0  0.91042  0.77380  0.04882  1.0000
  S   S518      1.0  0.90211  0.78782  0.01413  1.0000
  Fe  Fe266     1.0  0.91141  0.77281  0.10962  1.0000
  S   S519      1.0  0.90418  0.78572  0.14606  1.0000
  C   C1572     1.0  0.65695  0.83775  0.41335  1.0000
  C   C1573     1.0  0.78218  0.95259  0.21915  1.0000
  Fe  Fe267     1.0  0.73397  0.85081  0.37885  1.0000
  S   S520      1.0  0.74272  0.88139  0.37141  1.0000
  S   S521      1.0  0.70521  0.83272  0.39330  1.0000
  Fe  Fe268     1.0  0.77399  0.85201  0.37085  1.0000
  S   S522      1.0  0.78535  0.88314  0.36264  1.0000
  S   S523      1.0  0.79118  0.83465  0.38252  1.0000
  Fe  Fe269     1.0  0.76817  0.88525  0.39709  1.0000
  S   S524      1.0  0.77824  0.90753  0.43007  1.0000
  Fe  Fe270     1.0  0.75864  0.87621  0.33745  1.0000
  S   S525      1.0  0.75185  0.88844  0.29932  1.0000
  S   S526      1.0  0.75845  0.85494  0.40653  1.0000
  S   S527      1.0  0.74823  0.84489  0.34374  1.0000
  Fe  Fe271     1.0  0.77123  0.91190  0.15002  1.0000
  S   S528      1.0  0.75160  0.92666  0.15471  1.0000
  S   S529      1.0  0.78689  0.90540  0.18501  1.0000
  Fe  Fe272     1.0  0.76289  0.90652  0.08978  1.0000
  S   S530      1.0  0.74221  0.92066  0.09104  1.0000
  S   S531      1.0  0.76795  0.89002  0.05508  1.0000
  Fe  Fe273     1.0  0.76422  0.94232  0.11784  1.0000
  S   S532      1.0  0.76983  0.97393  0.11779  1.0000
  Fe  Fe274     1.0  0.73170  0.90382  0.12779  1.0000
  S   S533      1.0  0.70125  0.88940  0.14038  1.0000
  S   S534      1.0  0.78543  0.92889  0.11486  1.0000
  S   S535      1.0  0.75087  0.88841  0.12489  1.0000
  C   C1574     1.0  0.73273  0.90850  0.43522  1.0000
  H   H1578     1.0  0.80825  0.98259  0.09917  1.0000
  C   C1575     1.0  0.66792  0.82585  0.15030  1.0000
  C   C1576     1.0  0.68571  0.83238  0.13895  1.0000
  C   C1577     1.0  0.69600  0.85174  0.13546  1.0000
  C   C1578     1.0  0.68866  0.86482  0.14356  1.0000
  C   C1579     1.0  0.67085  0.85828  0.15489  1.0000
  C   C1580     1.0  0.89422  0.77105  0.47980  1.0000
  H   H1579     1.0  0.69154  0.82239  0.13264  1.0000
  H   H1580     1.0  0.70957  0.85650  0.12641  1.0000
  S   S536      1.0  0.89127  0.75380  0.26302  1.0000
  C   C1581     1.0  0.66052  0.83892  0.15827  1.0000
  C   C1582     1.0  0.72444  0.89528  0.47920  1.0000
  C   C1583     1.0  0.76599  0.87916  0.00296  1.0000
  C   C1584     1.0  0.76678  0.89364  0.02060  1.0000
  C   C1585     1.0  0.76804  0.91085  0.01035  1.0000
  H   H1581     1.0  0.94319  0.78169  0.15852  1.0000
  C   C1586     1.0  0.76286  0.88383  0.47161  1.0000
  H   H1582     1.0  0.76501  0.86581  0.01072  1.0000
  H   H1583     1.0  0.76872  0.92214  0.02368  1.0000
  H   H1584     1.0  0.96617  0.80178  0.04415  1.0000
  C   C1587     1.0  0.76272  0.89393  0.26834  1.0000
  C   C1588     1.0  0.77873  0.89051  0.26229  1.0000
  C   C1589     1.0  0.78616  0.89432  0.23680  1.0000
  C   C1590     1.0  0.77748  0.90125  0.21705  1.0000
  C   C1591     1.0  0.76157  0.90478  0.22321  1.0000
  C   C1592     1.0  0.75438  0.90132  0.24876  1.0000
  H   H1585     1.0  0.78533  0.88486  0.27717  1.0000
  H   H1586     1.0  0.79853  0.89160  0.23225  1.0000
  H   H1587     1.0  0.75474  0.91011  0.20826  1.0000
  H   H1588     1.0  0.74204  0.90411  0.25325  1.0000
  C   C1593     1.0  0.68706  0.84120  0.39532  1.0000
  C   C1594     1.0  0.67161  0.83144  0.41077  1.0000
  C   C1595     1.0  0.89072  0.81781  0.39341  1.0000
  H   H1589     1.0  0.98061  0.81379  0.09326  1.0000
  C   C1596     1.0  0.67287  0.86362  0.38475  1.0000
  C   C1597     1.0  0.68775  0.85743  0.38243  1.0000
  H   H1590     1.0  0.73892  0.90492  0.41744  1.0000
  H   H1591     1.0  0.80612  0.87197  0.40664  1.0000
  H   H1592     1.0  0.67333  0.87601  0.37446  1.0000
  H   H1593     1.0  0.69957  0.86504  0.37037  1.0000
  C   C1598     1.0  0.82649  0.81053  0.33341  1.0000
  C   C1599     1.0  0.82074  0.82431  0.32275  1.0000
  C   C1600     1.0  0.80942  0.83142  0.33710  1.0000
  C   C1601     1.0  0.80396  0.82501  0.36253  1.0000
  C   C1602     1.0  0.80965  0.81116  0.37316  1.0000
  C   C1603     1.0  0.82067  0.80379  0.35859  1.0000
  H   H1594     1.0  0.82521  0.82966  0.30331  1.0000
  H   H1595     1.0  0.80524  0.84211  0.32869  1.0000
  H   H1596     1.0  0.80541  0.80603  0.39275  1.0000
  H   H1597     1.0  0.82481  0.79307  0.36692  1.0000
  C   C1604     1.0  0.89412  0.76255  0.23040  1.0000
  C   C1605     1.0  0.89048  0.77834  0.22347  1.0000
  C   C1606     1.0  0.89352  0.78515  0.19751  1.0000
  C   C1607     1.0  0.90004  0.77617  0.17817  1.0000
  C   C1608     1.0  0.90341  0.76020  0.18496  1.0000
  N   N133      1.0  0.72524  0.89237  0.45262  1.0000
  H   H1598     1.0  0.88556  0.78546  0.23817  1.0000
  H   H1599     1.0  0.89088  0.79752  0.19244  1.0000
  S   S537      1.0  0.88929  0.75748  0.07843  1.0000
  C   C1609     1.0  0.90505  0.82452  0.37520  1.0000
  C   C1610     1.0  0.90135  0.77713  0.42530  1.0000
  C   C1611     1.0  0.88300  0.77174  0.43417  1.0000
  H   H1600     1.0  0.85085  0.79698  0.40271  1.0000
  H   H1601     1.0  0.80313  0.94084  0.21541  1.0000
  H   H1602     1.0  0.80846  0.89526  0.41562  1.0000
  H   H1603     1.0  0.71892  0.87216  0.42104  1.0000
  H   H1604     1.0  0.87153  0.77004  0.42025  1.0000
  C   C1612     1.0  0.77402  0.96414  0.20771  1.0000
  H   H1605     1.0  0.81604  0.90530  0.46390  1.0000
  C   C1613     1.0  0.79698  0.95001  0.20658  1.0000
  N   N134      1.0  0.87413  0.82013  0.38933  1.0000
  H   H1606     1.0  0.94610  0.81760  0.02519  1.0000
  H   H1607     1.0  0.90627  0.75525  0.98993  1.0000
  H   H1608     1.0  0.87041  0.75208  0.13452  1.0000
  H   H1609     1.0  0.86531  0.76495  0.46804  1.0000
  C   C1614     1.0  0.78092  0.97317  0.18420  1.0000
  C   C1615     1.0  0.96147  0.79949  0.02354  1.0000
  N   N135      1.0  0.80326  0.95847  0.18310  1.0000
  C   C1616     1.0  0.87951  0.76884  0.46128  1.0000
  H   H1610     1.0  0.95035  0.80482  0.17221  1.0000
  C   C1617     1.0  0.79573  0.97026  0.17220  1.0000
  H   H1611     1.0  0.70585  0.84486  0.44989  1.0000
  C   C1618     1.0  0.85891  0.81204  0.40789  1.0000
  N   N136      1.0  0.80579  0.87730  0.44820  1.0000
  C   C1619     1.0  0.79672  0.85859  0.45321  1.0000
  H   H1612     1.0  0.80716  0.91274  0.99949  1.0000
  C   C1620     1.0  0.79069  0.85266  0.47864  1.0000
  H   H1613     1.0  0.91802  0.82226  0.37830  1.0000
  C   C1621     1.0  0.71034  0.86180  0.48554  1.0000
  C   C1622     1.0  0.81243  0.88344  0.42168  1.0000
  H   H1614     1.0  0.79390  0.84813  0.43743  1.0000
  C   C1623     1.0  0.71098  0.85898  0.45838  1.0000
  H   H1615     1.0  0.81878  0.95841  0.14873  1.0000
  H   H1616     1.0  0.81719  0.94063  0.17196  1.0000
  S   S538      1.0  0.92375  0.75273  0.04538  1.0000
  S   S539      1.0  0.90648  0.78160  0.39145  1.0000
  C   C1624     1.0  0.80930  0.89045  0.46806  1.0000
  H   H1617     1.0  0.84901  0.81938  0.40719  1.0000
  N   N137      1.0  0.72442  0.85904  0.23336  1.0000
  C   C1625     1.0  0.73950  0.85381  0.23369  1.0000
  C   C1626     1.0  0.71923  0.86565  0.21072  1.0000
  C   C1627     1.0  0.74987  0.85524  0.21096  1.0000
  C   C1628     1.0  0.72944  0.86748  0.18779  1.0000
  C   C1629     1.0  0.74482  0.86220  0.18793  1.0000
  C   C1630     1.0  0.71390  0.85801  0.25739  1.0000
  H   H1618     1.0  0.74396  0.84904  0.25178  1.0000
  H   H1619     1.0  0.70735  0.86991  0.21036  1.0000
  H   H1620     1.0  0.76215  0.85163  0.21145  1.0000
  H   H1621     1.0  0.72566  0.87334  0.17022  1.0000
  H   H1622     1.0  0.75315  0.86398  0.17044  1.0000
  H   H1623     1.0  0.72005  0.85322  0.27462  1.0000
  H   H1624     1.0  0.71446  0.87219  0.26284  1.0000
  H   H1625     1.0  0.69902  0.84816  0.25418  1.0000
  C   C1631     1.0  0.91607  0.77929  0.44375  1.0000
  C   C1632     1.0  0.65730  0.85365  0.40000  1.0000
  H   H1626     1.0  0.75908  0.87237  0.45742  1.0000
  H   H1627     1.0  0.74435  0.92036  0.44538  1.0000
  H   H1628     1.0  0.93033  0.78353  0.43711  1.0000
  H   H1629     1.0  0.77693  0.94543  0.23741  1.0000
  H   H1630     1.0  0.76230  0.96601  0.21692  1.0000
  S   S540      1.0  0.88022  0.74803  0.33461  1.0000
  C   C1633     1.0  0.95288  0.79654  0.15578  1.0000
  H   H1631     1.0  0.90852  0.75320  0.17036  1.0000
  S   S541      1.0  0.97494  0.77508  0.07761  1.0000
  C   C1634     1.0  0.90053  0.75349  0.21099  1.0000
  H   H1632     1.0  0.91296  0.83810  0.33781  1.0000
  H   H1633     1.0  0.94896  0.80140  0.13678  1.0000
  C   C1635     1.0  0.77203  0.90232  0.46345  1.0000
  H   H1634     1.0  0.78392  0.93140  0.47626  1.0000
  C   C1636     1.0  0.87127  0.82887  0.36719  1.0000
  S   S542      1.0  0.84748  0.75554  0.29926  1.0000
  H   H1635     1.0  0.80091  0.97726  0.15385  1.0000
  S   S543      1.0  0.92479  0.75170  0.11020  1.0000
  H   H1636     1.0  0.82797  0.88806  0.42142  1.0000
  S   S544      1.0  0.85318  0.76626  0.36333  1.0000
  H   H1637     1.0  0.91277  0.74679  0.36796  1.0000
  H   H1638     1.0  0.85804  0.83046  0.36362  1.0000
  C   C1637     1.0  0.71843  0.87452  0.44210  1.0000
  H   H1639     1.0  0.67109  0.81902  0.42109  1.0000
  C   C1638     1.0  0.91252  0.77613  0.47087  1.0000
  H   H1640     1.0  0.80280  0.85084  0.98841  1.0000
  C   C1639     1.0  0.90221  0.83338  0.35252  1.0000
  H   H1641     1.0  0.88244  0.84172  0.33038  1.0000
  C   C1640     1.0  0.88517  0.83550  0.34839  1.0000
  C   C1641     1.0  0.81874  0.95551  0.17023  1.0000
  C   C1642     1.0  0.95045  0.80854  0.01284  1.0000
  C   C1643     1.0  0.96628  0.78729  0.00769  1.0000
  H   H1642     1.0  0.91656  0.74840  0.40333  1.0000
  S   S545      1.0  0.65536  0.80128  0.15368  1.0000
  H   H1643     1.0  0.78318  0.83784  0.48241  1.0000
  H   H1644     1.0  0.80780  0.88221  0.00714  1.0000
  C   C1644     1.0  0.77679  0.91702  0.48235  1.0000
  H   H1645     1.0  0.97469  0.78006  0.01611  1.0000
  H   H1646     1.0  0.65599  0.81395  0.04692  1.0000
  H   H1647     1.0  0.77463  0.98210  0.17491  1.0000
  H   H1648     1.0  0.65341  0.80837  0.09537  1.0000
  Fe  Fe275     1.0  0.86123  0.78594  0.82328  1.0000
  S   S546      1.0  0.89197  0.79069  0.83036  1.0000
  S   S547      1.0  0.85022  0.80862  0.81335  1.0000
  H   H1649     1.0  0.68799  0.84878  0.95393  1.0000
  C   C1645     1.0  0.80984  0.87565  0.93179  1.0000
  Fe  Fe276     1.0  0.88063  0.76646  0.85853  1.0000
  H   H1650     1.0  0.83020  0.92182  0.98519  1.0000
  Fe  Fe277     1.0  0.88665  0.76903  0.79765  1.0000
  S   S548      1.0  0.90558  0.76565  0.76600  1.0000
  S   S549      1.0  0.85032  0.76311  0.85332  1.0000
  S   S550      1.0  0.85696  0.76583  0.78882  1.0000
  Fe  Fe278     1.0  0.94127  0.76637  0.58188  1.0000
  S   S551      1.0  0.92767  0.78739  0.57740  1.0000
  H   H1651     1.0  0.70486  0.84986  0.49843  1.0000
  C   C1646     1.0  0.66903  0.82587  0.65526  1.0000
  H   H1652     1.0  0.75206  0.86567  0.50456  1.0000
  Fe  Fe279     1.0  0.90667  0.76566  0.54954  1.0000
  S   S552      1.0  0.88890  0.76784  0.51376  1.0000
  Fe  Fe280     1.0  0.90941  0.77153  0.61036  1.0000
  S   S553      1.0  0.90108  0.78546  0.64466  1.0000
  S   S554      1.0  0.92379  0.75162  0.61619  1.0000
  H   H1653     1.0  0.92022  0.75556  0.71965  1.0000
  Fe  Fe281     1.0  0.73890  0.84801  0.87246  1.0000
  S   S555      1.0  0.74555  0.87864  0.86858  1.0000
  S   S556      1.0  0.70970  0.82687  0.88030  1.0000
  Fe  Fe282     1.0  0.78031  0.85352  0.87059  1.0000
  S   S557      1.0  0.78988  0.88503  0.86661  1.0000
  S   S558      1.0  0.79840  0.83724  0.88257  1.0000
  Fe  Fe283     1.0  0.76907  0.88302  0.89813  1.0000
  S   S559      1.0  0.77304  0.90447  0.93135  1.0000
  Fe  Fe284     1.0  0.76535  0.87785  0.83703  1.0000
  S   S560      1.0  0.76207  0.89462  0.80140  1.0000
  S   S561      1.0  0.76121  0.85237  0.90401  1.0000
  S   S562      1.0  0.75702  0.84642  0.83919  1.0000
  Fe  Fe285     1.0  0.76920  0.90933  0.64772  1.0000
  S   S563      1.0  0.75100  0.92517  0.65609  1.0000
  S   S564      1.0  0.78361  0.89878  0.68004  1.0000
  Fe  Fe286     1.0  0.75898  0.90629  0.58774  1.0000
  S   S565      1.0  0.73981  0.92184  0.59287  1.0000
  S   S566      1.0  0.75855  0.88876  0.55081  1.0000
  Fe  Fe287     1.0  0.76331  0.94175  0.61963  1.0000
  S   S567      1.0  0.77053  0.97365  0.62298  1.0000
  Fe  Fe288     1.0  0.72960  0.90396  0.62872  1.0000
  S   S568      1.0  0.69898  0.88930  0.64043  1.0000
  S   S569      1.0  0.78307  0.92693  0.61280  1.0000
  S   S570      1.0  0.74729  0.88744  0.62221  1.0000
  H   H1654     1.0  0.81044  0.87387  0.91059  1.0000
  H   H1655     1.0  0.80651  0.98312  0.59583  1.0000
  H   H1656     1.0  0.74822  0.86475  0.67331  1.0000
  C   C1647     1.0  0.68734  0.83309  0.64554  1.0000
  C   C1648     1.0  0.69671  0.85243  0.64098  1.0000
  C   C1649     1.0  0.68797  0.86486  0.64650  1.0000
  N   N138      1.0  0.80495  0.77297  0.80542  1.0000
  C   C1650     1.0  0.89811  0.77835  0.98147  1.0000
  H   H1657     1.0  0.69415  0.82358  0.64096  1.0000
  H   H1658     1.0  0.71056  0.85763  0.63284  1.0000
  C   C1651     1.0  0.68119  0.87236  0.94351  1.0000
  C   C1652     1.0  0.76893  0.89938  0.96530  1.0000
  C   C1653     1.0  0.79496  0.96856  0.71523  1.0000
  H   H1659     1.0  0.72693  0.85950  0.96273  1.0000
  C   C1654     1.0  0.76366  0.89471  0.51737  1.0000
  C   C1655     1.0  0.77249  0.91326  0.50918  1.0000
  C   C1656     1.0  0.68769  0.89012  0.93241  1.0000
  C   C1657     1.0  0.72385  0.86066  0.94140  1.0000
  C   C1658     1.0  0.81239  0.89316  0.94284  1.0000
  H   H1660     1.0  0.77630  0.92468  0.52357  1.0000
  H   H1661     1.0  0.67368  0.81132  0.90410  1.0000
  C   C1659     1.0  0.76877  0.89573  0.76799  1.0000
  C   C1660     1.0  0.77893  0.88562  0.75817  1.0000
  C   C1661     1.0  0.78348  0.88677  0.73123  1.0000
  C   C1662     1.0  0.77758  0.89767  0.71377  1.0000
  C   C1663     1.0  0.76735  0.90767  0.72359  1.0000
  C   C1664     1.0  0.76321  0.90690  0.75059  1.0000
  H   H1662     1.0  0.78339  0.87705  0.77135  1.0000
  H   H1663     1.0  0.79155  0.87910  0.72387  1.0000
  H   H1664     1.0  0.76277  0.91617  0.71048  1.0000
  H   H1665     1.0  0.75536  0.91477  0.75801  1.0000
  C   C1665     1.0  0.69178  0.83550  0.88323  1.0000
  C   C1666     1.0  0.67532  0.82485  0.89626  1.0000
  H   H1666     1.0  0.88946  0.79993  0.96648  1.0000
  C   C1667     1.0  0.96006  0.78444  0.98114  1.0000
  C   C1668     1.0  0.67960  0.85983  0.87638  1.0000
  C   C1669     1.0  0.69381  0.85295  0.87314  1.0000
  S   S571      1.0  0.97275  0.77242  0.58799  1.0000
  H   H1667     1.0  0.76685  0.87083  0.96228  1.0000
  H   H1668     1.0  0.68133  0.87341  0.86864  1.0000
  H   H1669     1.0  0.70618  0.86104  0.86248  1.0000
  C   C1670     1.0  0.83633  0.81683  0.83321  1.0000
  C   C1671     1.0  0.82833  0.82876  0.82200  1.0000
  C   C1672     1.0  0.81651  0.83501  0.83669  1.0000
  C   C1673     1.0  0.81283  0.82957  0.86291  1.0000
  C   C1674     1.0  0.82092  0.81772  0.87416  1.0000
  C   C1675     1.0  0.83253  0.81127  0.85937  1.0000
  H   H1670     1.0  0.83128  0.83321  0.80181  1.0000
  H   H1671     1.0  0.81048  0.84422  0.82786  1.0000
  H   H1672     1.0  0.81821  0.81352  0.89448  1.0000
  H   H1673     1.0  0.83861  0.80212  0.86823  1.0000
  C   C1676     1.0  0.90450  0.77170  0.73249  1.0000
  C   C1677     1.0  0.89518  0.78319  0.72434  1.0000
  C   C1678     1.0  0.89448  0.78747  0.69741  1.0000
  C   C1679     1.0  0.90279  0.78006  0.67836  1.0000
  C   C1680     1.0  0.91197  0.76844  0.68649  1.0000
  C   C1681     1.0  0.91300  0.76447  0.71347  1.0000
  H   H1674     1.0  0.88870  0.78894  0.73883  1.0000
  H   H1675     1.0  0.88740  0.79652  0.69132  1.0000
  H   H1676     1.0  0.91828  0.76248  0.67211  1.0000
  H   H1677     1.0  0.73783  0.85409  0.74296  1.0000
  C   C1682     1.0  0.89383  0.76542  0.92823  1.0000
  C   C1683     1.0  0.88998  0.78114  0.93497  1.0000
  H   H1678     1.0  0.80406  0.84663  0.93969  1.0000
  C   C1684     1.0  0.89220  0.78760  0.96148  1.0000
  H   H1679     1.0  0.65736  0.84279  0.82653  1.0000
  C   C1685     1.0  0.89953  0.75605  0.94828  1.0000
  H   H1680     1.0  0.88567  0.78853  0.91972  1.0000
  C   C1686     1.0  0.74158  0.85614  0.69057  1.0000
  N   N139      1.0  0.73256  0.86576  0.70698  1.0000
  C   C1687     1.0  0.72462  0.87699  0.69534  1.0000
  C   C1688     1.0  0.73138  0.86283  0.73363  1.0000
  C   C1689     1.0  0.71537  0.88580  0.71045  1.0000
  C   C1690     1.0  0.72241  0.87158  0.74943  1.0000
  C   C1691     1.0  0.71435  0.88313  0.73770  1.0000
  C   C1692     1.0  0.79198  0.99186  0.68469  1.0000
  H   H1681     1.0  0.98035  0.81162  0.57395  1.0000
  H   H1682     1.0  0.77081  0.92728  0.97521  1.0000
  H   H1683     1.0  0.70910  0.89465  0.70094  1.0000
  S   S572      1.0  0.65730  0.80121  0.65858  1.0000
  H   H1684     1.0  0.70751  0.89013  0.74976  1.0000
  H   H1685     1.0  0.85300  0.75232  0.71415  1.0000
  H   H1686     1.0  0.71154  0.91217  0.91595  1.0000
  C   C1693     1.0  0.75890  0.88007  0.49843  1.0000
  H   H1687     1.0  0.66658  0.86567  0.94899  1.0000
  H   H1688     1.0  0.73001  0.90941  0.48762  1.0000
  H   H1689     1.0  0.73742  0.86785  0.93160  1.0000
  C   C1694     1.0  0.71707  0.88005  0.49608  1.0000
  H   H1690     1.0  0.80585  0.89550  0.50931  1.0000
  C   C1695     1.0  0.95582  0.79972  0.64598  1.0000
  N   N140      1.0  0.71149  0.87094  0.93818  1.0000
  H   H1691     1.0  0.67091  0.85870  0.58756  1.0000
  C   C1696     1.0  0.94354  0.79075  0.94265  1.0000
  C   C1697     1.0  0.79421  0.86598  0.49903  1.0000
  C   C1698     1.0  0.71815  0.88856  0.92783  1.0000
  C   C1699     1.0  0.66980  0.85770  0.65669  1.0000
  H   H1692     1.0  0.82373  0.77972  0.77349  1.0000
  H   H1693     1.0  0.78925  0.86166  0.51875  1.0000
  C   C1700     1.0  0.81049  0.78106  0.77935  1.0000
  H   H1694     1.0  0.81365  0.79640  0.77969  1.0000
  C   C1701     1.0  0.80743  0.75692  0.81212  1.0000
  H   H1695     1.0  0.73262  0.89508  0.92175  1.0000
  C   C1702     1.0  0.66326  0.84931  0.88969  1.0000
  H   H1696     1.0  0.79464  0.79375  0.81721  1.0000
  C   C1703     1.0  0.95389  0.81648  0.63955  1.0000
  H   H1697     1.0  0.71710  0.84636  0.93227  1.0000
  C   C1704     1.0  0.66034  0.83831  0.66097  1.0000
  C   C1705     1.0  0.76922  0.91371  0.98284  1.0000
  C   C1706     1.0  0.80624  0.94504  0.70092  1.0000
  C   C1707     1.0  0.79668  0.78105  0.82249  1.0000
  C   C1708     1.0  0.81493  0.91395  0.98092  1.0000
  C   C1709     1.0  0.79142  0.77356  0.84748  1.0000
  H   H1698     1.0  0.73094  0.84242  0.68331  1.0000
  H   H1699     1.0  0.79911  0.77394  0.76436  1.0000
  H   H1700     1.0  0.97495  0.77988  0.67693  1.0000
  C   C1710     1.0  0.69331  0.86285  0.94610  1.0000
  H   H1701     1.0  0.95548  0.79928  0.93042  1.0000
  H   H1702     1.0  0.71717  0.88242  0.51729  1.0000
  H   H1703     1.0  0.81371  0.75029  0.79848  1.0000
  C   C1711     1.0  0.80297  0.96754  0.67042  1.0000
  C   C1712     1.0  0.80632  0.86032  0.94821  1.0000
  H   H1704     1.0  0.72221  0.86982  0.77072  1.0000
  H   H1705     1.0  0.81236  0.94549  0.65962  1.0000
  C   C1713     1.0  0.96997  0.83256  0.63546  1.0000
  H   H1706     1.0  0.80400  0.97286  0.65048  1.0000
  H   H1707     1.0  0.75309  0.85387  0.70184  1.0000
  S   S573      1.0  0.88716  0.75218  0.58246  1.0000
  H   H1708     1.0  0.94325  0.78734  0.64917  1.0000
  H   H1709     1.0  0.80987  0.93305  0.70503  1.0000
  C   C1714     1.0  0.70632  0.89836  0.92462  1.0000
  C   C1715     1.0  0.65840  0.84647  0.59191  1.0000
  C   C1716     1.0  0.79430  0.75745  0.85472  1.0000
  H   H1710     1.0  0.66292  0.86717  0.66113  1.0000
  H   H1711     1.0  0.72554  0.87932  0.67426  1.0000
  C   C1717     1.0  0.76692  0.88195  0.97546  1.0000
  H   H1712     1.0  0.96389  0.77498  0.96888  1.0000
  H   H1713     1.0  0.79796  0.94737  0.74064  1.0000
  H   H1714     1.0  0.67815  0.89728  0.92941  1.0000
  H   H1715     1.0  0.77707  0.98681  0.67736  1.0000
  S   S574      1.0  0.89318  0.75776  0.89501  1.0000
  C   C1718     1.0  0.66113  0.83178  0.89965  1.0000
  C   C1719     1.0  0.90165  0.76245  0.97478  1.0000
  S   S575      1.0  0.92136  0.74552  0.55195  1.0000
  C   C1720     1.0  0.79964  0.95316  0.72093  1.0000
  C   C1721     1.0  0.65898  0.82864  0.59187  1.0000
  C   C1722     1.0  0.80773  0.95210  0.67542  1.0000
  H   H1716     1.0  0.78967  0.97470  0.73084  1.0000
  N   N141      1.0  0.79703  0.97578  0.69035  1.0000
  H   H1717     1.0  0.81467  0.90490  0.92983  1.0000
  C   C1723     1.0  0.80564  0.86270  0.97548  1.0000
  N   N142      1.0  0.94926  0.79340  0.97078  1.0000
  H   H1718     1.0  0.93876  0.77572  0.93656  1.0000
  H   H1719     1.0  0.79051  0.75162  0.87417  1.0000
  H   H1720     1.0  0.93149  0.79495  0.93829  1.0000
  H   H1721     1.0  0.96314  0.76908  0.64595  1.0000
  C   C1724     1.0  0.97493  0.78128  0.65512  1.0000
  H   H1722     1.0  0.67191  0.82688  0.58750  1.0000
  H   H1723     1.0  0.80969  0.92214  0.96710  1.0000
  N   N143      1.0  0.81162  0.89536  0.96959  1.0000
  H   H1724     1.0  0.93996  0.81687  0.63770  1.0000
  H   H1725     1.0  0.86059  0.74865  0.66775  1.0000
  H   H1726     1.0  0.78552  0.78048  0.86127  1.0000
  C   C1725     1.0  0.80362  0.88500  0.49378  1.0000
  N   N144      1.0  0.97325  0.79895  0.64802  1.0000
  H   H1727     1.0  0.96867  0.84561  0.63022  1.0000
  C   C1726     1.0  0.80218  0.74894  0.83685  1.0000
  S   S576      1.0  0.87820  0.74549  0.82632  1.0000
  H   H1728     1.0  0.93565  0.81228  0.97827  1.0000
  C   C1727     1.0  0.94452  0.80542  0.98623  1.0000
  C   C1728     1.0  0.80853  0.88048  0.98593  1.0000
