data_image0
_chemical_formula_structural       FeS2FeS2FeSFeS3C2FeS2NHC2HC2S2FeS2FeSFeS3FeS2FeS2FeSCS3CHC6H2FeHC6H2C2H2CHCHFeC3SHCHC6H4C6H4CH5CHCHC2HCH2CHSCH2FeHC2HNHC2H3CFeC2H5CHCHC3HCH2CHCNH6C2FeCHCNC6H2SH5NC6H3CH3CNHC2H2SHSHC3HC2HCHCH2C3H3C2H3FeCH2NH4CHCH2CHC2FeS2FeS2FeSFeS3C2FeS2CHC5S2FeS2FeSFeS3FeS2H2Fe2H2CSHSC7H4C6H3C2NCH2CH7C7H4C6H5C4HCFeC3H2CHSCNC2H2CHCH2SNC4H3C5SCHC2HCH2NHCSH2C2H3NHSCNC6H8NC5HCHC2NHNH2SHC2H4C2H3CHC2HCSH2CFeH6CFeH2CH5CHCHFeS2C3FeHFeSCSHSCFeSH2FeSHSFeS2FeS2FeSFeS3FeS2FeS2FeSFeS3HC2HC6H2CH2C6H7CHCHC6H5NHSH2C2H2NCNC4NSH3C6H4CH2CH3C2H2S2HC4NH3CHCHC2H2C2NC2HCHCHC5HCH4CHCH2NC2H5C2FeCSHCH2NC6H9C4FeH3C2HCFeHCH4SC2H6CSH2CHFeS4CFeCFeS3H3FeSH2FeSHSFeS2FeS2FeSFeS3FeS2FeS2FeSFeS3CHC2H3C6H2C6H2FeHC2H5C6H5CHCHCFeC2H3C7H2C7H4CH2NC4HCH6C5HCHSFeH2C3H2C2NC6H9CH3CHC4NHNH2NHCH2C2HNHCSNC6H2S3NH2C2HC2HSH3CH2CHCHCH5CH2CFeSFeHC2FeSH2SFeCSFeS2FeSHS3FeC2FeS2CH3S2FeS2FeS2FeSFeS4HCHCSH6CH5C2HC3HCH2C6H4C6H4C2HCH2C4HC2HC6H4CHCH2CHNCH2CH4CSHC2H2CHNH2C2H2C2H2CHC2H5CFeCHC3NHNCHCH2CS2HSHC4NC2HC3HCHC2SH4CHCFeHCSCHNCHSC2H3CH2FeC2HC3SHCH2FeSC3NFeCFeHCFeNCFeS2FeSH2S2CHCFeS2FeSC2S2FeS2FeS2FeSFeS3CHCHCH2CHS2HC3H2NC6H4C6H2CHC6H4CHC2SH2CHCHCH2C6H4SCHC5H5C2SCSH2CH4CHSHFeHC5HNSNC2HC3H5C2FeC3H3SCSH3CNC6H7C2H2FeCHCHSCH2CHNCFeH3CH4NH5C4SH2C2HCHCSHNCHNHFeH7C2H4FeSHC3SFeSHSFeS2FeSHFeSFeS3FeS2FeS2FeCFeS3FeSFe2C2FeSC2S2H2C6H4C4HCH4C6H4CNHSFeCHCH2C6H4SH2C2H5CHSCFeC2H3C2NHCH2CH2C5HNS2CNHC2HCNCHCH6CHCH3CHNC6HS2HCH3CH3SC3H2CHCSH2C2SCH2C5HCHC2H3CFeHCHSHC2NC2HSHCH2CHFeHSFeS2FeSHCFeSCSFeS2FeSCFeSFeS3FeS2FeS2FeSFeS3FeSHFeC2FeSFeHS2CSC6H4C6H4C6H4C2H2C2H2CHC6H4C4H4SC4H3CHSCHCH3CH2C4HC2HSCH2CH4NCH6CHC2H2CHC3H3CHCH2CHC2SH2NCHCHC2H3NCHSHC2HC2H3CHNSH3NC6H2NH2C2HNH4NC2HC2H2SC3SCH2NHC2HCH3C3H2C2HCFeS2FeS2FeSFeHS2FeS2FeSCFeSFeS3CFe2S2HFeHCSFeS2FeS2FeSFeS3C6H5CH6C5H3C6H4C6H3C2HC5H5CH2SH2SC3H2NH3CHC4HC3SH3C3H4C2HSC2HSHNC6HC2HCH3NC6HSH2CH2CNC6H10NHCHCHCSCNH4C4H2CHNCH3SC2HFeH6CHC2HCHCH2C4H2CH3FeC2FeS2FeSHNS2FeS2FeSCFeSFeS3C2FeS2CFeHCSFeS2FeS2FeSFeS3C6H4SCH4SHC4NH2C7H4C6H4C7SH4FeH3CH2C3H5CHC5SC4H3CNHC2HSHCHCHCH3NC2H3FeHFeC2FeH3CHCHNC5H3NC2HCHCH2CHC2H3CNCHCHCHSH10CHCH2C2HCH2CHCH3SCNCHC2H2C2HCSCH5SCHC5HC2H2FeS2FeSCFeSFeS3H3FeS2CHFeS3FeS2CS2FeSFeS3FeCFeNSFeSCHS2FeC3HS2HCHFeHCHC4HC2HC8H4C6H4SH2C2HSHC6H4C2HC3HC2HCNHCH4CH4SH2FeH2C2HCHCNH3CH3CHC4H2CHCHC2HCSFeCNHNHC2H2C2HNC6HCHCHC2NC6H9CHC2H4NCSHSCH2C2HCNCHCHCHSHCH2C2HNCHC2H2SNFeS2FeSCFeHFeS3C2HFeS2CHFeS3FeS2H2CFeC2S2H2SFeS2FeSCHSC3HSH2C2HSH2CH3C3HC2H2C6H4C6H4C3HCH3C6H4C6H5C3HC2NH6FeHSNHNHCSC3FeCHC2HFeC2HNC6H10CHC2HSCNC2HCFeSNHCSCH5S2HCFeCH3SCHC3SH2CHFeCH2NH5CHC3HC2HS2HC2H2CFeS2FeS2FeSFeS3FeS2FeS2FeSFeS3FeS2FeSHFeSFeS2HFeS2FeCHFeH2SNCH2C5HCH2C2H2C7H4C6HCHC2HSH3C3SC2HCH3NC6H4NC4FeCHNC7SH5C2HC2HCH2SH2CH2C2HCH6CHNCH5C3H5NH2C2HC4H3CH2C3HC4HNHC3H2C2H3C3HC3H2C2SCH2SH3C2H2CH2C2SNH2FeS2FeS2FeSFeHS2FeS2FeS2FeSFeS3FeS4HFeSFeHSHFeS2CH2FeSHSHCHC2H2C2HCH3CH2C7H4C3SC2HCHC2NH3C7HCH4C6H4FeC4H4C7H5NC6H9C3NCH2CH2C3H2CHNCH2CH2C3HC2SCH2SNH2C3HCHSNC6H7C2H2CNHCHFeCH2CHFeC2H2CHCH3CNHSCHCHCHCNC3H5CHC3H2FeH2FeS2FeSH2S2FeS2NC2HNFeH2SFe3CSC2HSHFeS2FeS2FeCFeS3H2C2H3C6H4C6H5CH3C3HSHNC3H2C2HC5HC7NH2CSH4SC2HCNC2SH2CFeCH3CH3SCHCHCSHNHS2C3H3C2HC2NC6H12SH2C4HCH2C2SH4SHCH2CSC4H2CHC3H2CSH2C2H4FeCHFe2C2FeSHFeSHCS2FeS2C5FeS3NSFeS2FeHCH2FeS2FeS2FeHFeS3HC2H3C7H4C6H4CHFeCHC3HNC3H3C6SCHSC7FeH4CFeCHCHCHSCH2SHFeH3CH2SH2SHSHCNH2SHCHCHCNC6H8NH5C2HSH2CHCH3CHS2H3CNH2SCHC3HC2NCHCSC2H4SC2HCH2C2H3C3Fe
_chemical_formula_sum              "Fe256 S512 C1536 N128 H1536"
_cell_length_a       72.88
_cell_length_b       70.5873
_cell_length_c       34.5943
_cell_angle_alpha    90.1685
_cell_angle_beta     91.031
_cell_angle_gamma    88.0763

_space_group_name_H-M_alt    "P 1"
_space_group_IT_number       1

loop_
  _space_group_symop_operation_xyz
  'x, y, z'

loop_
  _atom_site_type_symbol
  _atom_site_label
  _atom_site_symmetry_multiplicity
  _atom_site_fract_x
  _atom_site_fract_y
  _atom_site_fract_z
  _atom_site_occupancy
  Fe  Fe1       1.0  0.32236  0.18967  0.29876  1.0000
  S   S1        1.0  0.29289  0.19317  0.31561  1.0000
  S   S2        1.0  0.33253  0.19902  0.24100  1.0000
  Fe  Fe2       1.0  0.33365  0.16627  0.37039  1.0000
  S   S3        1.0  0.30481  0.16761  0.39279  1.0000
  S   S4        1.0  0.35897  0.15604  0.40539  1.0000
  Fe  Fe3       1.0  0.29566  0.16256  0.33120  1.0000
  S   S5        1.0  0.27273  0.14272  0.31808  1.0000
  Fe  Fe4       1.0  0.30420  0.19816  0.37547  1.0000
  S   S6        1.0  0.28910  0.21906  0.41397  1.0000
  S   S7        1.0  0.32452  0.15830  0.31016  1.0000
  S   S8        1.0  0.33359  0.19761  0.35717  1.0000
  C   C1        1.0  0.34999  0.19631  0.49690  1.0000
  C   C2        1.0  0.07181  0.00280  0.28934  1.0000
  Fe  Fe5       1.0  0.41872  0.06017  0.45783  1.0000
  S   S9        1.0  0.42616  0.03284  0.42730  1.0000
  S   S10       1.0  0.39048  0.07186  0.43786  1.0000
  N   N1        1.0  0.02536  0.02273  0.18741  1.0000
  H   H1        1.0  0.36344  0.19178  0.48665  1.0000
  C   C3        1.0  0.20205  0.22402  0.41164  1.0000
  C   C4        1.0  0.42905  0.07193  0.34735  1.0000
  H   H2        1.0  0.03602  0.04946  0.20186  1.0000
  C   C5        1.0  0.12456  0.12318  0.01542  1.0000
  C   C6        1.0  0.07650  0.00938  0.32650  1.0000
  S   S11       1.0  0.16680  0.19313  0.08939  1.0000
  S   S12       1.0  0.20990  0.18922  0.44388  1.0000
  Fe  Fe6       1.0  0.20543  0.16095  0.13440  1.0000
  S   S13       1.0  0.17583  0.15837  0.15054  1.0000
  S   S14       1.0  0.22894  0.14264  0.15866  1.0000
  Fe  Fe7       1.0  0.16926  0.16125  0.08689  1.0000
  S   S15       1.0  0.14463  0.14932  0.05452  1.0000
  Fe  Fe8       1.0  0.17567  0.19017  0.15138  1.0000
  S   S16       1.0  0.16129  0.20547  0.19982  1.0000
  S   S17       1.0  0.19899  0.16088  0.07033  1.0000
  S   S18       1.0  0.20567  0.19249  0.13963  1.0000
  Fe  Fe9       1.0  0.05112  0.06359  0.40898  1.0000
  S   S19       1.0  0.05184  0.03441  0.43449  1.0000
  S   S20       1.0  0.02731  0.07598  0.37371  1.0000
  Fe  Fe10      1.0  0.08764  0.07403  0.44689  1.0000
  S   S21       1.0  0.09136  0.04560  0.47561  1.0000
  S   S22       1.0  0.10649  0.09913  0.44687  1.0000
  Fe  Fe11      1.0  0.08151  0.03359  0.41882  1.0000
  S   S23       1.0  0.09536  0.00679  0.39627  1.0000
  C   C7        1.0  0.16909  0.22921  0.45087  1.0000
  S   S24       1.0  0.05117  0.06381  0.05628  1.0000
  S   S25       1.0  0.08020  0.06174  0.38868  1.0000
  S   S26       1.0  0.05825  0.07809  0.46484  1.0000
  C   C8        1.0  0.26044  0.17634  0.48821  1.0000
  H   H3        1.0  0.31096  0.16721  0.22097  1.0000
  C   C9        1.0  0.01584  0.06057  0.34217  1.0000
  C   C10       1.0  0.02161  0.04157  0.33867  1.0000
  C   C11       1.0  0.01209  0.02947  0.31372  1.0000
  C   C12       1.0  0.99683  0.03630  0.29205  1.0000
  C   C13       1.0  0.99112  0.05533  0.29532  1.0000
  C   C14       1.0  0.00060  0.06742  0.32046  1.0000
  H   H4        1.0  0.03346  0.03622  0.35498  1.0000
  H   H5        1.0  0.01675  0.01484  0.31101  1.0000
  Fe  Fe12      1.0  0.45423  0.04431  0.42230  1.0000
  H   H6        1.0  0.99613  0.08214  0.32302  1.0000
  C   C15       1.0  0.02906  0.05545  0.06363  1.0000
  C   C16       1.0  0.01866  0.06260  0.09448  1.0000
  C   C17       1.0  0.00057  0.05691  0.09944  1.0000
  C   C18       1.0  0.99287  0.04406  0.07350  1.0000
  C   C19       1.0  0.00339  0.03663  0.04319  1.0000
  C   C20       1.0  0.02147  0.04224  0.03836  1.0000
  H   H7        1.0  0.02447  0.07287  0.11406  1.0000
  H   H8        1.0  0.99243  0.06285  0.12265  1.0000
  C   C21       1.0  0.26378  0.15678  0.48964  1.0000
  C   C22       1.0  0.20351  0.19929  0.25431  1.0000
  H   H9        1.0  0.07136  0.02311  0.33624  1.0000
  H   H10       1.0  0.41654  0.11976  0.05088  1.0000
  C   C23       1.0  0.25106  0.18382  0.38254  1.0000
  H   H11       1.0  0.97109  0.08563  0.47676  1.0000
  C   C24       1.0  0.18912  0.20041  0.28055  1.0000
  H   H12       1.0  0.98619  0.99448  0.32856  1.0000
  Fe  Fe13      1.0  0.45441  0.05759  0.50541  1.0000
  C   C25       1.0  0.42042  0.11015  0.35750  1.0000
  C   C26       1.0  0.45574  0.99563  0.05087  1.0000
  C   C27       1.0  0.03951  0.00958  0.18487  1.0000
  S   S27       1.0  0.44873  0.05807  0.00978  1.0000
  H   H13       1.0  0.13780  0.02624  0.38875  1.0000
  C   C28       1.0  0.14177  0.12702  0.03211  1.0000
  H   H14       1.0  0.43855  0.02077  0.05797  1.0000
  C   C29       1.0  0.25859  0.14457  0.27606  1.0000
  C   C30       1.0  0.25013  0.12818  0.26306  1.0000
  C   C31       1.0  0.24009  0.12819  0.22817  1.0000
  C   C32       1.0  0.23763  0.14478  0.20647  1.0000
  C   C33       1.0  0.24526  0.16160  0.22031  1.0000
  C   C34       1.0  0.25600  0.16142  0.25484  1.0000
  H   H15       1.0  0.25200  0.11512  0.27922  1.0000
  H   H16       1.0  0.23457  0.11509  0.21746  1.0000
  H   H17       1.0  0.24386  0.17438  0.20320  1.0000
  H   H18       1.0  0.26248  0.17417  0.26459  1.0000
  C   C35       1.0  0.36755  0.13249  0.41374  1.0000
  C   C36       1.0  0.38492  0.12968  0.43174  1.0000
  C   C37       1.0  0.39215  0.11126  0.43960  1.0000
  C   C38       1.0  0.38197  0.09544  0.42990  1.0000
  C   C39       1.0  0.36462  0.09825  0.41188  1.0000
  C   C40       1.0  0.35749  0.11665  0.40360  1.0000
  H   H19       1.0  0.39280  0.14184  0.43983  1.0000
  H   H20       1.0  0.40551  0.10933  0.45345  1.0000
  H   H21       1.0  0.35661  0.08611  0.40429  1.0000
  H   H22       1.0  0.34410  0.11857  0.38991  1.0000
  C   C41       1.0  0.40666  0.09702  0.35182  1.0000
  H   H23       1.0  0.26530  0.13088  0.45648  1.0000
  H   H24       1.0  0.28016  0.19303  0.12710  1.0000
  H   H25       1.0  0.02947  0.03638  0.01500  1.0000
  H   H26       1.0  0.45741  0.07967  0.35242  1.0000
  H   H27       1.0  0.22547  0.21433  0.22878  1.0000
  C   C42       1.0  0.21145  0.23110  0.27210  1.0000
  H   H28       1.0  0.39940  0.05182  0.36099  1.0000
  C   C43       1.0  0.00532  0.04298  0.48642  1.0000
  H   H29       1.0  0.01396  0.05020  0.42922  1.0000
  C   C44       1.0  0.19646  0.21007  0.43725  1.0000
  C   C45       1.0  0.15237  0.09512  0.01484  1.0000
  H   H30       1.0  0.14427  0.09948  0.38721  1.0000
  C   C46       1.0  0.16819  0.22870  0.20853  1.0000
  H   H31       1.0  0.16906  0.11573  0.04430  1.0000
  H   H32       1.0  0.21478  0.22199  0.39632  1.0000
  C   C47       1.0  0.00479  0.05373  0.45266  1.0000
  H   H33       1.0  0.44963  0.11389  0.36246  1.0000
  S   S28       1.0  0.98570  0.02082  0.26012  1.0000
  C   C48       1.0  0.44318  0.08471  0.35225  1.0000
  H   H34       1.0  0.18833  0.22866  0.16377  1.0000
  H   H35       1.0  0.44986  0.99514  0.26884  1.0000
  Fe  Fe14      1.0  0.19680  0.19248  0.07704  1.0000
  H   H36       1.0  0.17559  0.20204  0.47663  1.0000
  C   C49       1.0  0.21465  0.21480  0.24994  1.0000
  C   C50       1.0  0.32771  0.22232  0.22477  1.0000
  H   H37       1.0  0.15805  0.03884  0.45432  1.0000
  N   N2        1.0  0.14073  0.05363  0.41339  1.0000
  H   H38       1.0  0.34129  0.21745  0.17061  1.0000
  C   C51       1.0  0.32171  0.23337  0.44021  1.0000
  C   C52       1.0  0.19703  0.23166  0.29829  1.0000
  H   H39       1.0  0.97940  0.06073  0.27858  1.0000
  H   H40       1.0  0.17429  0.20941  0.35538  1.0000
  H   H41       1.0  0.07388  0.09660  0.07625  1.0000
  C   C53       1.0  0.31704  0.19417  0.49436  1.0000
  Fe  Fe15      1.0  0.06126  0.04866  0.48901  1.0000
  C   C54       1.0  0.27393  0.16412  0.14032  1.0000
  C   C55       1.0  0.28329  0.18090  0.14557  1.0000
  H   H42       1.0  0.17113  0.21541  0.02008  1.0000
  H   H43       1.0  0.03281  0.03387  0.24258  1.0000
  H   H44       1.0  0.14910  0.23322  0.25471  1.0000
  H   H45       1.0  0.99750  0.02654  0.02328  1.0000
  H   H46       1.0  0.33555  0.17767  0.45847  1.0000
  C   C56       1.0  0.12613  0.10278  0.47625  1.0000
  H   H47       1.0  0.29761  0.13829  0.24886  1.0000
  C   C57       1.0  0.33429  0.18833  0.48107  1.0000
  H   H48       1.0  0.08963  0.12541  0.09966  1.0000
  C   C58       1.0  0.44325  0.00742  0.07058  1.0000
  C   C59       1.0  0.15164  0.12301  0.49330  1.0000
  C   C60       1.0  0.31789  0.23551  0.24731  1.0000
  H   H49       1.0  0.99907  0.03207  0.16540  1.0000
  C   C61       1.0  0.16620  0.06755  0.44675  1.0000
  H   H50       1.0  0.42079  0.09610  0.03140  1.0000
  H   H51       1.0  0.12323  0.12365  0.11358  1.0000
  C   C62       1.0  0.12974  0.03703  0.40534  1.0000
  H   H52       1.0  0.12527  0.03050  0.43267  1.0000
  C   C63       1.0  0.18223  0.23653  0.18735  1.0000
  N   N3        1.0  0.41107  0.07813  0.34765  1.0000
  H   H53       1.0  0.30474  0.18825  0.48178  1.0000
  H   H54       1.0  0.23588  0.18532  0.37963  1.0000
  H   H55       1.0  0.14069  0.09344  0.10375  1.0000
  H   H56       1.0  0.25638  0.17552  0.35755  1.0000
  H   H57       1.0  0.25361  0.20020  0.45165  1.0000
  H   H58       1.0  0.13088  0.12977  0.44987  1.0000
  C   C64       1.0  0.26298  0.14614  0.45563  1.0000
  C   C65       1.0  0.29672  0.18198  0.17468  1.0000
  Fe  Fe16      1.0  0.20439  0.17544  0.50094  1.0000
  C   C66       1.0  0.16016  0.23912  0.23869  1.0000
  H   H59       1.0  0.25798  0.14685  0.39430  1.0000
  C   C67       1.0  0.99248  0.06919  0.44919  1.0000
  N   N4        1.0  0.11731  0.07839  0.08442  1.0000
  C   C68       1.0  0.09878  0.07917  0.07717  1.0000
  C   C69       1.0  0.12598  0.09399  0.09822  1.0000
  C   C70       1.0  0.08853  0.09605  0.08258  1.0000
  C   C71       1.0  0.11616  0.11111  0.10406  1.0000
  C   C72       1.0  0.09733  0.11213  0.09593  1.0000
  C   C73       1.0  0.12783  0.06055  0.07903  1.0000
  H   H60       1.0  0.09179  0.06675  0.06687  1.0000
  H   H61       1.0  0.38298  0.07042  0.35115  1.0000
  S   S29       1.0  0.44651  0.07246  0.44930  1.0000
  H   H62       1.0  0.28402  0.12359  0.21865  1.0000
  H   H63       1.0  0.17064  0.09687  0.43384  1.0000
  H   H64       1.0  0.14184  0.06325  0.06850  1.0000
  H   H65       1.0  0.12885  0.05257  0.10661  1.0000
  H   H66       1.0  0.12133  0.05157  0.05651  1.0000
  N   N5        1.0  0.29109  0.14996  0.19340  1.0000
  C   C74       1.0  0.27821  0.14862  0.16433  1.0000
  C   C75       1.0  0.30048  0.16626  0.19843  1.0000
  C   C76       1.0  0.16249  0.08461  0.42746  1.0000
  C   C77       1.0  0.14777  0.08606  0.40117  1.0000
  C   C78       1.0  0.17055  0.21741  0.32860  1.0000
  C   C79       1.0  0.29546  0.13363  0.21841  1.0000
  H   H67       1.0  0.17734  0.06647  0.46798  1.0000
  H   H68       1.0  0.15891  0.13590  0.48894  1.0000
  H   H69       1.0  0.25704  0.19808  0.38118  1.0000
  C   C80       1.0  0.13575  0.11949  0.47115  1.0000
  H   H70       1.0  0.40217  0.11039  0.01260  1.0000
  H   H71       1.0  0.39571  0.05991  0.31155  1.0000
  H   H72       1.0  0.30810  0.12605  0.20837  1.0000
  C   C81       1.0  0.02701  0.03874  0.21422  1.0000
  N   N6        1.0  0.25596  0.17452  0.41929  1.0000
  H   H73       1.0  0.27070  0.13571  0.16021  1.0000
  C   C82       1.0  0.41648  0.11097  0.02424  1.0000
  C   C83       1.0  0.01023  0.02156  0.16365  1.0000
  H   H74       1.0  0.32850  0.22340  0.42106  1.0000
  H   H75       1.0  0.42680  0.01082  0.12164  1.0000
  S   S30       1.0  0.21067  0.21111  0.03438  1.0000
  H   H76       1.0  0.31313  0.23146  0.27542  1.0000
  S   S31       1.0  0.97002  0.03736  0.07728  1.0000
  H   H77       1.0  0.41677  0.12502  0.36212  1.0000
  C   C84       1.0  0.19129  0.24072  0.40624  1.0000
  C   C85       1.0  0.18006  0.21279  0.45711  1.0000
  C   C86       1.0  0.30258  0.23401  0.44256  1.0000
  H   H78       1.0  0.16671  0.23228  0.33669  1.0000
  C   C87       1.0  0.00895  0.00688  0.13655  1.0000
  C   C88       1.0  0.39658  0.06441  0.34226  1.0000
  H   H79       1.0  0.20558  0.18670  0.23660  1.0000
  C   C89       1.0  0.25654  0.18503  0.45256  1.0000
  H   H80       1.0  0.01523  0.03126  0.48976  1.0000
  C   C90       1.0  0.13691  0.07036  0.39455  1.0000
  H   H81       1.0  0.05168  0.01068  0.20316  1.0000
  H   H82       1.0  0.06304  0.01156  0.27073  1.0000
  C   C91       1.0  0.98064  0.07358  0.47960  1.0000
  C   C92       1.0  0.15515  0.05207  0.43918  1.0000
  C   C93       1.0  0.25887  0.15527  0.42053  1.0000
  H   H83       1.0  0.39242  0.10202  0.35177  1.0000
  H   H84       1.0  0.15617  0.23097  0.46557  1.0000
  H   H85       1.0  0.26323  0.16313  0.11820  1.0000
  C   C94       1.0  0.33371  0.22761  0.18818  1.0000
  C   C95       1.0  0.43880  0.10391  0.35778  1.0000
  H   H86       1.0  0.18009  0.18856  0.28270  1.0000
  H   H87       1.0  0.99226  0.07773  0.42307  1.0000
  H   H88       1.0  0.12515  0.07184  0.37496  1.0000
  Fe  Fe17      1.0  0.43569  0.02148  0.48485  1.0000
  C   C96       1.0  0.08817  0.99837  0.35059  1.0000
  H   H89       1.0  0.11710  0.04070  0.38816  1.0000
  H   H90       1.0  0.30423  0.19490  0.17889  1.0000
  N   N7        1.0  0.18591  0.21654  0.30176  1.0000
  H   H91       1.0  0.43256  0.05698  0.34373  1.0000
  H   H92       1.0  0.01340  0.04567  0.22007  1.0000
  H   H93       1.0  0.11368  0.13399  0.01563  1.0000
  H   H94       1.0  0.99703  0.00627  0.11735  1.0000
  C   C97       1.0  0.13261  0.08950  0.50360  1.0000
  H   H95       1.0  0.15814  0.21129  0.31494  1.0000
  C   C98       1.0  0.15574  0.11295  0.03160  1.0000
  H   H96       1.0  0.16322  0.08427  0.01455  1.0000
  H   H97       1.0  0.45295  0.10917  0.02707  1.0000
  C   C99       1.0  0.43658  0.00175  0.10655  1.0000
  H   H98       1.0  0.46314  0.99808  0.40167  1.0000
  C   C100      1.0  0.03859  0.99455  0.15851  1.0000
  C   C101      1.0  0.02322  0.99325  0.13412  1.0000
  Fe  Fe18      1.0  0.33979  0.19079  0.76068  1.0000
  S   S32       1.0  0.31088  0.19316  0.78081  1.0000
  S   S33       1.0  0.34886  0.20735  0.70950  1.0000
  Fe  Fe19      1.0  0.35079  0.15930  0.81787  1.0000
  S   S34       1.0  0.32237  0.15904  0.84288  1.0000
  S   S35       1.0  0.37638  0.13992  0.82638  1.0000
  Fe  Fe20      1.0  0.31189  0.16160  0.78144  1.0000
  S   S36       1.0  0.28675  0.14631  0.76079  1.0000
  Fe  Fe21      1.0  0.32335  0.19090  0.84038  1.0000
  S   S37       1.0  0.30860  0.21076  0.88161  1.0000
  S   S38       1.0  0.33995  0.15918  0.75639  1.0000
  S   S39       1.0  0.35253  0.19122  0.82016  1.0000
  C   C102      1.0  0.02349  0.09106  0.93439  1.0000
  C   C103      1.0  0.31575  0.20799  0.52341  1.0000
  Fe  Fe22      1.0  0.43593  0.06618  0.95192  1.0000
  S   S40       1.0  0.44385  0.03793  0.92549  1.0000
  S   S41       1.0  0.40722  0.08017  0.95185  1.0000
  C   C104      1.0  0.01737  0.07988  0.96442  1.0000
  H   H99       1.0  0.14790  0.14333  0.65209  1.0000
  C   C105      1.0  0.26199  0.22303  0.84030  1.0000
  C   C106      1.0  0.19293  0.18480  0.93450  1.0000
  C   C107      1.0  0.34200  0.23826  0.97811  1.0000
  C   C108      1.0  0.15355  0.14599  0.62310  1.0000
  C   C109      1.0  0.25384  0.23365  0.81028  1.0000
  S   S42       1.0  0.17725  0.16854  0.52632  1.0000
  S   S43       1.0  0.09079  0.03621  0.00431  1.0000
  Fe  Fe23      1.0  0.22643  0.16346  0.57295  1.0000
  S   S44       1.0  0.20131  0.15519  0.60475  1.0000
  S   S45       1.0  0.25620  0.16603  0.59193  1.0000
  Fe  Fe24      1.0  0.19194  0.14219  0.54827  1.0000
  S   S46       1.0  0.17795  0.11388  0.54939  1.0000
  Fe  Fe25      1.0  0.18832  0.18191  0.58041  1.0000
  S   S47       1.0  0.16961  0.20087  0.61563  1.0000
  S   S48       1.0  0.21847  0.14797  0.51850  1.0000
  S   S49       1.0  0.21398  0.19128  0.55294  1.0000
  Fe  Fe26      1.0  0.06761  0.05991  0.91455  1.0000
  S   S50       1.0  0.05332  0.03898  0.95070  1.0000
  S   S51       1.0  0.05467  0.07248  0.86018  1.0000
  H   H100      1.0  0.09385  0.01789  0.76566  1.0000
  H   H101      1.0  0.99396  0.03945  0.54255  1.0000
  Fe  Fe27      1.0  0.45903  0.03131  0.98117  1.0000
  Fe  Fe28      1.0  0.08022  0.02258  0.94979  1.0000
  H   H102      1.0  0.10930  0.11396  0.55520  1.0000
  H   H103      1.0  0.14108  0.17404  0.57638  1.0000
  C   C110      1.0  0.19638  0.23866  0.93561  1.0000
  S   S52       1.0  0.09408  0.04278  0.91081  1.0000
  H   H104      1.0  0.15729  0.22699  0.67487  1.0000
  S   S53       1.0  0.98787  0.08734  0.62727  1.0000
  C   C111      1.0  0.42701  0.99733  0.57831  1.0000
  C   C112      1.0  0.03294  0.06506  0.84398  1.0000
  C   C113      1.0  0.02488  0.07326  0.81062  1.0000
  C   C114      1.0  0.00688  0.06896  0.79913  1.0000
  C   C115      1.0  0.99685  0.05648  0.82111  1.0000
  C   C116      1.0  0.00514  0.04774  0.85360  1.0000
  C   C117      1.0  0.02312  0.05199  0.86496  1.0000
  H   H105      1.0  0.03239  0.08334  0.79411  1.0000
  H   H106      1.0  0.00056  0.07577  0.77399  1.0000
  H   H107      1.0  0.99742  0.03807  0.87068  1.0000
  H   H108      1.0  0.02900  0.04565  0.89071  1.0000
  C   C118      1.0  0.03310  0.05189  0.56836  1.0000
  C   C119      1.0  0.02382  0.04442  0.59974  1.0000
  C   C120      1.0  0.00994  0.05518  0.61813  1.0000
  C   C121      1.0  0.00549  0.07361  0.60565  1.0000
  C   C122      1.0  0.01488  0.08115  0.57451  1.0000
  C   C123      1.0  0.02857  0.07029  0.55578  1.0000
  H   H109      1.0  0.02730  0.03030  0.60993  1.0000
  H   H110      1.0  0.00286  0.04929  0.64220  1.0000
  H   H111      1.0  0.01147  0.09540  0.56471  1.0000
  C   C124      1.0  0.15813  0.10980  0.52072  1.0000
  C   C125      1.0  0.04047  0.99298  0.59289  1.0000
  N   N8        1.0  0.98113  0.06286  0.51253  1.0000
  C   C126      1.0  0.00007  0.07190  0.96124  1.0000
  H   H112      1.0  0.32895  0.22289  0.59788  1.0000
  H   H113      1.0  0.13787  0.18621  0.89097  1.0000
  C   C127      1.0  0.17478  0.16711  0.97843  1.0000
  H   H114      1.0  0.13433  0.11598  0.60432  1.0000
  H   H115      1.0  0.34133  0.23973  0.56977  1.0000
  H   H116      1.0  0.26660  0.14985  0.51721  1.0000
  H   H117      1.0  0.11663  0.17231  0.52597  1.0000
  H   H118      1.0  0.26613  0.19840  0.71361  1.0000
  H   H119      1.0  0.13242  0.19848  0.93565  1.0000
  H   H120      1.0  0.22130  0.23022  0.96626  1.0000
  C   C128      1.0  0.06271  0.02137  0.83747  1.0000
  C   C129      1.0  0.27807  0.15228  0.71427  1.0000
  C   C130      1.0  0.28824  0.16302  0.68900  1.0000
  C   C131      1.0  0.28128  0.16722  0.65171  1.0000
  C   C132      1.0  0.26398  0.16104  0.63962  1.0000
  C   C133      1.0  0.25362  0.15064  0.66520  1.0000
  C   C134      1.0  0.26075  0.14610  0.70228  1.0000
  H   H121      1.0  0.30161  0.16788  0.69793  1.0000
  H   H122      1.0  0.28939  0.17526  0.63209  1.0000
  H   H123      1.0  0.24032  0.14570  0.65611  1.0000
  H   H124      1.0  0.25282  0.13774  0.72168  1.0000
  C   C135      1.0  0.38455  0.12356  0.86215  1.0000
  C   C136      1.0  0.40180  0.11443  0.85711  1.0000
  C   C137      1.0  0.40884  0.10100  0.88405  1.0000
  C   C138      1.0  0.39860  0.09639  0.91627  1.0000
  C   C139      1.0  0.38132  0.10550  0.92137  1.0000
  C   C140      1.0  0.37436  0.11911  0.89460  1.0000
  H   H125      1.0  0.40980  0.11775  0.83210  1.0000
  H   H126      1.0  0.42217  0.09416  0.87979  1.0000
  H   H127      1.0  0.37333  0.10210  0.94632  1.0000
  H   H128      1.0  0.36113  0.12609  0.89906  1.0000
  H   H129      1.0  0.30229  0.21254  0.53344  1.0000
  C   C141      1.0  0.18167  0.21533  0.64811  1.0000
  C   C142      1.0  0.20082  0.21569  0.64711  1.0000
  C   C143      1.0  0.26400  0.19596  0.79753  1.0000
  C   C144      1.0  0.11605  0.12726  0.56010  1.0000
  H   H130      1.0  0.20834  0.20634  0.62793  1.0000
  C   C145      1.0  0.99326  0.04771  0.51619  1.0000
  Fe  Fe29      1.0  0.10232  0.05823  0.96545  1.0000
  C   C146      1.0  0.35033  0.22450  0.95424  1.0000
  C   C147      1.0  0.32961  0.23807  0.73913  1.0000
  C   C148      1.0  0.16813  0.23044  0.96600  1.0000
  H   H131      1.0  0.36481  0.22095  0.95795  1.0000
  H   H132      1.0  0.15355  0.08270  0.54685  1.0000
  C   C149      1.0  0.19743  0.22159  0.99665  1.0000
  H   H133      1.0  0.12535  0.07655  0.50763  1.0000
  S   S54       1.0  0.97342  0.05315  0.81153  1.0000
  C   C150      1.0  0.25090  0.22510  0.77422  1.0000
  N   N9        1.0  0.05491  0.00411  0.83344  1.0000
  C   C151      1.0  0.34009  0.21563  0.92501  1.0000
  C   C152      1.0  0.32144  0.22036  0.91989  1.0000
  H   H134      1.0  0.32857  0.22993  0.76536  1.0000
  H   H135      1.0  0.36047  0.21627  0.53808  1.0000
  C   C153      1.0  0.17720  0.23865  0.93511  1.0000
  H   H136      1.0  0.34668  0.20526  0.90630  1.0000
  C   C154      1.0  0.20083  0.24013  0.69672  1.0000
  H   H137      1.0  0.24193  0.20511  0.71343  1.0000
  H   H138      1.0  0.05825  0.03108  0.85995  1.0000
  S   S55       1.0  0.13098  0.06821  0.98037  1.0000
  N   N10       1.0  0.25581  0.20643  0.76838  1.0000
  C   C155      1.0  0.26711  0.20406  0.83393  1.0000
  C   C156      1.0  0.96822  0.06749  0.54345  1.0000
  C   C157      1.0  0.25323  0.19780  0.73014  1.0000
  C   C158      1.0  0.32955  0.23008  0.56942  1.0000
  H   H139      1.0  0.20618  0.18915  0.92456  1.0000
  H   H140      1.0  0.97144  0.05232  0.94161  1.0000
  H   H141      1.0  0.16453  0.13511  0.61703  1.0000
  C   C159      1.0  0.97144  0.06593  0.92549  1.0000
  C   C160      1.0  0.45962  0.12379  0.97513  1.0000
  C   C161      1.0  0.45268  0.13296  0.94201  1.0000
  C   C162      1.0  0.99495  0.08628  0.89982  1.0000
  C   C163      1.0  0.17211  0.22723  0.67394  1.0000
  S   S56       1.0  0.07705  0.07721  0.96544  1.0000
  C   C164      1.0  0.42196  0.12817  0.96401  1.0000
  H   H142      1.0  0.15999  0.16006  0.62397  1.0000
  C   C165      1.0  0.14859  0.09301  0.52571  1.0000
  C   C166      1.0  0.14314  0.19591  0.91359  1.0000
  H   H143      1.0  0.40725  0.12993  0.95929  1.0000
  C   C167      1.0  0.33913  0.23041  0.70765  1.0000
  H   H144      1.0  0.26837  0.18130  0.79261  1.0000
  H   H145      1.0  0.27379  0.19577  0.85689  1.0000
  N   N11       1.0  0.15998  0.18769  0.93137  1.0000
  H   H146      1.0  0.42810  0.14212  0.91056  1.0000
  C   C168      1.0  0.15886  0.17503  0.96109  1.0000
  S   S57       1.0  0.42593  0.04756  0.51635  1.0000
  H   H147      1.0  0.26449  0.22951  0.86836  1.0000
  H   H148      1.0  0.10060  0.14203  0.51522  1.0000
  C   C169      1.0  0.08274  0.01414  0.78432  1.0000
  C   C170      1.0  0.13500  0.09115  0.99899  1.0000
  H   H149      1.0  0.02603  0.07726  0.98984  1.0000
  H   H150      1.0  0.10775  0.10251  0.98701  1.0000
  H   H151      1.0  0.24952  0.18272  0.73281  1.0000
  N   N12       1.0  0.42888  0.11868  0.99580  1.0000
  H   H152      1.0  0.42399  0.01196  0.57059  1.0000
  S   S58       1.0  0.97424  0.04521  0.69884  1.0000
  C   C171      1.0  0.01213  0.09453  0.90212  1.0000
  N   N13       1.0  0.34015  0.10926  0.78012  1.0000
  C   C172      1.0  0.35585  0.11038  0.75924  1.0000
  C   C173      1.0  0.32332  0.11240  0.76266  1.0000
  C   C174      1.0  0.35492  0.11426  0.71959  1.0000
  C   C175      1.0  0.32188  0.11628  0.72306  1.0000
  C   C176      1.0  0.33780  0.11718  0.70142  1.0000
  C   C177      1.0  0.34135  0.10593  0.82190  1.0000
  H   H153      1.0  0.36923  0.10871  0.77340  1.0000
  H   H154      1.0  0.31088  0.11234  0.77945  1.0000
  H   H155      1.0  0.36743  0.11547  0.70335  1.0000
  H   H156      1.0  0.30850  0.11915  0.70958  1.0000
  H   H157      1.0  0.33688  0.12060  0.67088  1.0000
  H   H158      1.0  0.34115  0.11973  0.83740  1.0000
  H   H159      1.0  0.32975  0.09748  0.83179  1.0000
  H   H160      1.0  0.35431  0.09806  0.83014  1.0000
  N   N14       1.0  0.13897  0.14514  0.59347  1.0000
  C   C178      1.0  0.13412  0.16082  0.57191  1.0000
  C   C179      1.0  0.13017  0.12851  0.58784  1.0000
  C   C180      1.0  0.12023  0.15998  0.54349  1.0000
  C   C181      1.0  0.20645  0.23017  0.96624  1.0000
  C   C182      1.0  0.11117  0.14307  0.53762  1.0000
  H   H161      1.0  0.01695  0.10286  0.87824  1.0000
  C   C183      1.0  0.44744  0.11663  0.00181  1.0000
  H   H162      1.0  0.08278  0.04043  0.81655  1.0000
  C   C184      1.0  0.17823  0.22184  0.99663  1.0000
  C   C185      1.0  0.19192  0.17227  0.96544  1.0000
  N   N15       1.0  0.33121  0.21594  0.53841  1.0000
  H   H163      1.0  0.03711  0.09684  0.93580  1.0000
  N   N16       1.0  0.98934  0.07475  0.92875  1.0000
  H   H164      1.0  0.20438  0.16673  0.97955  1.0000
  H   H165      1.0  0.17378  0.15716  0.00209  1.0000
  S   S59       1.0  0.04970  0.03763  0.54460  1.0000
  H   H166      1.0  0.42124  0.00158  0.63873  1.0000
  C   C186      1.0  0.07667  0.02669  0.81298  1.0000
  C   C187      1.0  0.07458  0.99663  0.78010  1.0000
  H   H167      1.0  0.99538  0.06326  0.98473  1.0000
  H   H168      1.0  0.21722  0.23264  0.57598  1.0000
  H   H169      1.0  0.96800  0.06253  0.89478  1.0000
  H   H170      1.0  0.22511  0.22885  0.66909  1.0000
  C   C188      1.0  0.04016  0.99910  0.85939  1.0000
  C   C189      1.0  0.02713  0.99383  0.56349  1.0000
  H   H171      1.0  0.14562  0.17111  0.97198  1.0000
  H   H172      1.0  0.29857  0.23748  0.94041  1.0000
  H   H173      1.0  0.17763  0.20223  0.89371  1.0000
  C   C190      1.0  0.43372  0.13522  0.93639  1.0000
  H   H174      1.0  0.34851  0.23543  0.65009  1.0000
  C   C191      1.0  0.31300  0.23380  0.94432  1.0000
  C   C192      1.0  0.17672  0.19222  0.91733  1.0000
  H   H175      1.0  0.10597  0.00084  0.88700  1.0000
  C   C193      1.0  0.21033  0.22832  0.67077  1.0000
  S   S60       1.0  0.46075  0.08083  0.93104  1.0000
  H   H176      1.0  0.02724  0.00697  0.85095  1.0000
  H   H177      1.0  0.96892  0.08274  0.55142  1.0000
  C   C194      1.0  0.34078  0.24118  0.67404  1.0000
  Fe  Fe30      1.0  0.96962  0.07358  0.67033  1.0000
  H   H178      1.0  0.24466  0.23352  0.75100  1.0000
  H   H179      1.0  0.05321  0.00034  0.58958  1.0000
  H   H180      1.0  0.97241  0.01413  0.54544  1.0000
  H   H181      1.0  0.15328  0.23053  0.96601  1.0000
  H   H182      1.0  0.14565  0.20991  0.90021  1.0000
  H   H183      1.0  0.03561  0.07622  0.53171  1.0000
  C   C195      1.0  0.18171  0.23948  0.69862  1.0000
  Fe  Fe31      1.0  0.06509  0.05446  0.00142  1.0000
  H   H184      1.0  0.31702  0.23932  0.56525  1.0000
  H   H185      1.0  0.02951  0.00180  0.53739  1.0000
  C   C196      1.0  0.12112  0.10530  0.99928  1.0000
  H   H186      1.0  0.98646  0.08850  0.87398  1.0000
  H   H187      1.0  0.18333  0.23592  0.57738  1.0000
  H   H188      1.0  0.97150  0.05931  0.57028  1.0000
  H   H189      1.0  0.26050  0.18461  0.51471  1.0000
  H   H190      1.0  0.04390  0.00271  0.88979  1.0000
  C   C197      1.0  0.34820  0.21013  0.52587  1.0000
  H   H191      1.0  0.46196  0.13813  0.92058  1.0000
  C   C198      1.0  0.20991  0.24178  0.55530  1.0000
  H   H192      1.0  0.46321  0.00541  0.72350  1.0000
  Fe  Fe32      1.0  0.35229  0.31324  0.07744  1.0000
  S   S61       1.0  0.32389  0.31899  0.09950  1.0000
  S   S62       1.0  0.37800  0.33048  0.08405  1.0000
  C   C199      1.0  0.20993  0.26336  0.50140  1.0000
  C   C200      1.0  0.98043  0.47151  0.10342  1.0000
  C   C201      1.0  0.29344  0.30035  0.43449  1.0000
  Fe  Fe33      1.0  0.34210  0.27458  0.04445  1.0000
  H   H193      1.0  0.27493  0.27017  0.36930  1.0000
  Fe  Fe34      1.0  0.32532  0.28863  0.11939  1.0000
  S   S63       1.0  0.31606  0.28261  0.18011  1.0000
  C   C202      1.0  0.32040  0.25929  0.19673  1.0000
  S   S64       1.0  0.35443  0.28365  0.10114  1.0000
  H   H194      1.0  0.16717  0.36289  0.45236  1.0000
  S   S65       1.0  0.44280  0.40463  0.16544  1.0000
  C   C203      1.0  0.06990  0.48079  0.11209  1.0000
  Fe  Fe35      1.0  0.43683  0.45482  0.21219  1.0000
  S   S66       1.0  0.43028  0.42833  0.24434  1.0000
  H   H195      1.0  0.33118  0.27702  0.40022  1.0000
  H   H196      1.0  0.00974  0.38212  0.06297  1.0000
  Fe  Fe36      1.0  0.41710  0.41847  0.18852  1.0000
  S   S67       1.0  0.38919  0.40502  0.18393  1.0000
  H   H197      1.0  0.09022  0.48225  0.06758  1.0000
  S   S68       1.0  0.42112  0.44630  0.15878  1.0000
  Fe  Fe37      1.0  0.07521  0.41763  0.21865  1.0000
  S   S69       1.0  0.06612  0.44480  0.24782  1.0000
  S   S70       1.0  0.10395  0.40404  0.21869  1.0000
  Fe  Fe38      1.0  0.03780  0.41214  0.18097  1.0000
  S   S71       1.0  0.02514  0.43826  0.20773  1.0000
  S   S72       1.0  0.02603  0.39274  0.13554  1.0000
  Fe  Fe39      1.0  0.05119  0.45222  0.19232  1.0000
  S   S73       1.0  0.35556  0.25028  0.01210  1.0000
  Fe  Fe40      1.0  0.04065  0.42935  0.26157  1.0000
  S   S74       1.0  0.02928  0.43588  0.32041  1.0000
  S   S75       1.0  0.06278  0.42676  0.16121  1.0000
  S   S76       1.0  0.05082  0.40150  0.23669  1.0000
  Fe  Fe41      1.0  0.19687  0.31817  0.37015  1.0000
  S   S77       1.0  0.17045  0.31698  0.40194  1.0000
  S   S78       1.0  0.22256  0.33161  0.39337  1.0000
  Fe  Fe42      1.0  0.18147  0.29762  0.30027  1.0000
  S   S79       1.0  0.15374  0.29461  0.32639  1.0000
  S   S80       1.0  0.19037  0.28622  0.24243  1.0000
  Fe  Fe43      1.0  0.15659  0.32488  0.34516  1.0000
  S   S81       1.0  0.13176  0.34524  0.34790  1.0000
  Fe  Fe44      1.0  0.16984  0.28699  0.38034  1.0000
  S   S82       1.0  0.16089  0.26401  0.42024  1.0000
  S   S83       1.0  0.18324  0.32860  0.31488  1.0000
  S   S84       1.0  0.19738  0.28760  0.35282  1.0000
  H   H198      1.0  0.02562  0.46061  0.11870  1.0000
  C   C204      1.0  0.18105  0.26459  0.22840  1.0000
  C   C205      1.0  0.41988  0.37913  0.04175  1.0000
  H   H199      1.0  0.16061  0.26472  0.27253  1.0000
  C   C206      1.0  0.30890  0.25752  0.35374  1.0000
  C   C207      1.0  0.38882  0.38981  0.05508  1.0000
  C   C208      1.0  0.98293  0.39602  0.05984  1.0000
  C   C209      1.0  0.99997  0.39136  0.07768  1.0000
  C   C210      1.0  0.00448  0.39872  0.11426  1.0000
  C   C211      1.0  0.99179  0.41061  0.13315  1.0000
  H   H200      1.0  0.19330  0.35887  0.41309  1.0000
  H   H201      1.0  0.16081  0.39325  0.30655  1.0000
  C   C212      1.0  0.03525  0.48279  0.31444  1.0000
  H   H202      1.0  0.99510  0.41625  0.16143  1.0000
  H   H203      1.0  0.18558  0.24405  0.07440  1.0000
  C   C213      1.0  0.01042  0.42253  0.33291  1.0000
  C   C214      1.0  0.00386  0.40864  0.30787  1.0000
  C   C215      1.0  0.98884  0.39800  0.31844  1.0000
  C   C216      1.0  0.98025  0.40133  0.35385  1.0000
  C   C217      1.0  0.98676  0.41530  0.37885  1.0000
  C   C218      1.0  0.00185  0.42589  0.36835  1.0000
  H   H204      1.0  0.01043  0.40600  0.28050  1.0000
  H   H205      1.0  0.98381  0.38721  0.29905  1.0000
  H   H206      1.0  0.98033  0.41778  0.40637  1.0000
  H   H207      1.0  0.00699  0.43656  0.38784  1.0000
  H   H208      1.0  0.38853  0.42829  0.11169  1.0000
  H   H209      1.0  0.44087  0.39822  0.06044  1.0000
  H   H210      1.0  0.37734  0.42998  0.06458  1.0000
  C   C219      1.0  0.18863  0.25448  0.19725  1.0000
  H   H211      1.0  0.07723  0.46961  0.12789  1.0000
  C   C220      1.0  0.97454  0.41478  0.11586  1.0000
  H   H212      1.0  0.27913  0.24753  0.46959  1.0000
  C   C221      1.0  0.11167  0.38800  0.25519  1.0000
  C   C222      1.0  0.10125  0.38477  0.28790  1.0000
  C   C223      1.0  0.10758  0.37155  0.31588  1.0000
  C   C224      1.0  0.12422  0.36122  0.31118  1.0000
  C   C225      1.0  0.13458  0.36431  0.27830  1.0000
  C   C226      1.0  0.12840  0.37778  0.25061  1.0000
  H   H213      1.0  0.08834  0.39252  0.29173  1.0000
  H   H214      1.0  0.09949  0.36928  0.34130  1.0000
  H   H215      1.0  0.14742  0.35643  0.27436  1.0000
  H   H216      1.0  0.13652  0.38016  0.22530  1.0000
  H   H217      1.0  0.19974  0.26038  0.18139  1.0000
  N   N17       1.0  0.30356  0.27207  0.38215  1.0000
  H   H218      1.0  0.15524  0.26281  0.50469  1.0000
  S   S85       1.0  0.04544  0.48226  0.17194  1.0000
  H   H219      1.0  0.42423  0.46294  0.29740  1.0000
  H   H220      1.0  0.38436  0.29728  0.16558  1.0000
  C   C227      1.0  0.31192  0.29523  0.42986  1.0000
  C   C228      1.0  0.97012  0.40761  0.07909  1.0000
  H   H221      1.0  0.23237  0.25704  0.05828  1.0000
  H   H222      1.0  0.32209  0.25016  0.36220  1.0000
  N   N18       1.0  0.04687  0.48464  0.34560  1.0000
  C   C229      1.0  0.02357  0.43531  0.06237  1.0000
  N   N19       1.0  0.20386  0.26175  0.04498  1.0000
  C   C230      1.0  0.25569  0.32567  0.48829  1.0000
  C   C231      1.0  0.24859  0.33060  0.45148  1.0000
  C   C232      1.0  0.23111  0.32489  0.43952  1.0000
  C   C233      1.0  0.22069  0.31433  0.46471  1.0000
  N   N20       1.0  0.16802  0.37206  0.39340  1.0000
  S   S86       1.0  0.45551  0.43772  0.07760  1.0000
  H   H223      1.0  0.25660  0.33899  0.43232  1.0000
  H   H224      1.0  0.20713  0.31005  0.45588  1.0000
  H   H225      1.0  0.44411  0.45696  0.00812  1.0000
  C   C234      1.0  0.38055  0.35060  0.11377  1.0000
  C   C235      1.0  0.39836  0.35649  0.12250  1.0000
  C   C236      1.0  0.40117  0.37298  0.14434  1.0000
  C   C237      1.0  0.38616  0.38377  0.15774  1.0000
  C   C238      1.0  0.36831  0.37770  0.14968  1.0000
  C   C239      1.0  0.36548  0.36117  0.12771  1.0000
  H   H226      1.0  0.41008  0.34834  0.11192  1.0000
  H   H227      1.0  0.41496  0.37733  0.15065  1.0000
  H   H228      1.0  0.35661  0.38596  0.16005  1.0000
  H   H229      1.0  0.35169  0.35676  0.12107  1.0000
  C   C240      1.0  0.22222  0.26307  0.03813  1.0000
  H   H230      1.0  0.32241  0.30183  0.44756  1.0000
  H   H231      1.0  0.41869  0.42192  0.08650  1.0000
  C   C241      1.0  0.28541  0.27717  0.38621  1.0000
  H   H232      1.0  0.35128  0.29857  0.18047  1.0000
  H   H233      1.0  0.32760  0.33971  0.22876  1.0000
  H   H234      1.0  0.19580  0.25153  0.38702  1.0000
  C   C242      1.0  0.38216  0.42008  0.08776  1.0000
  C   C243      1.0  0.17471  0.24327  0.42566  1.0000
  H   H235      1.0  0.30668  0.26420  0.25062  1.0000
  H   H236      1.0  0.03305  0.46703  0.38443  1.0000
  S   S87       1.0  0.34224  0.30371  0.01893  1.0000
  S   S88       1.0  0.31298  0.27682  0.06475  1.0000
  H   H237      1.0  0.01847  0.42389  0.04321  1.0000
  C   C244      1.0  0.40104  0.37618  0.03972  1.0000
  C   C245      1.0  0.04107  0.48679  0.27714  1.0000
  C   C246      1.0  0.19772  0.25279  0.08050  1.0000
  C   C247      1.0  0.33221  0.32652  0.21372  1.0000
  N   N21       1.0  0.39520  0.40587  0.07220  1.0000
  H   H238      1.0  0.32448  0.32570  0.18579  1.0000
  H   H239      1.0  0.32850  0.31419  0.23157  1.0000
  H   H240      1.0  0.03193  0.48489  0.25244  1.0000
  C   C248      1.0  0.16666  0.25697  0.24880  1.0000
  H   H241      1.0  0.31041  0.26407  0.32487  1.0000
  C   C249      1.0  0.16817  0.38610  0.33018  1.0000
  H   H242      1.0  0.37423  0.38717  0.05426  1.0000
  C   C250      1.0  0.33217  0.24569  0.46280  1.0000
  C   C251      1.0  0.97704  0.45886  0.07323  1.0000
  H   H243      1.0  0.03344  0.44380  0.04620  1.0000
  H   H244      1.0  0.34699  0.24523  0.46074  1.0000
  C   C252      1.0  0.99805  0.47225  0.11971  1.0000
  C   C253      1.0  0.28006  0.29136  0.41248  1.0000
  N   N22       1.0  0.35200  0.32588  0.20673  1.0000
  C   C254      1.0  0.38940  0.32436  0.19200  1.0000
  C   C255      1.0  0.19582  0.37124  0.35698  1.0000
  H   H245      1.0  0.33477  0.24995  0.14588  1.0000
  C   C256      1.0  0.04023  0.48070  0.38440  1.0000
  H   H246      1.0  0.21015  0.36676  0.35440  1.0000
  C   C257      1.0  0.37846  0.30937  0.18098  1.0000
  H   H247      1.0  0.40388  0.32402  0.18514  1.0000
  C   C258      1.0  0.42768  0.47679  0.30817  1.0000
  C   C259      1.0  0.35971  0.31030  0.18895  1.0000
  C   C260      1.0  0.01200  0.46011  0.10581  1.0000
  C   C261      1.0  0.36263  0.34071  0.21752  1.0000
  C   C262      1.0  0.32355  0.25867  0.48788  1.0000
  H   H248      1.0  0.38982  0.35205  0.21844  1.0000
  C   C263      1.0  0.18618  0.36679  0.39019  1.0000
  H   H249      1.0  0.35655  0.35326  0.23095  1.0000
  H   H250      1.0  0.02147  0.47788  0.31831  1.0000
  H   H251      1.0  0.18352  0.27487  0.48360  1.0000
  H   H252      1.0  0.03092  0.42822  0.08712  1.0000
  C   C264      1.0  0.19082  0.26539  0.50364  1.0000
  H   H253      1.0  0.97963  0.39042  0.03149  1.0000
  C   C265      1.0  0.15783  0.36674  0.42766  1.0000
  H   H254      1.0  0.14443  0.38511  0.36587  1.0000
  H   H255      1.0  0.96467  0.42379  0.13082  1.0000
  N   N23       1.0  0.00854  0.44767  0.07641  1.0000
  C   C266      1.0  0.31678  0.28108  0.40318  1.0000
  C   C267      1.0  0.42504  0.48140  0.34729  1.0000
  H   H256      1.0  0.14930  0.35436  0.42072  1.0000
  H   H257      1.0  0.29848  0.24638  0.35165  1.0000
  H   H258      1.0  0.28951  0.31119  0.45529  1.0000
  H   H259      1.0  0.14858  0.37864  0.43707  1.0000
  H   H260      1.0  0.19393  0.38401  0.30048  1.0000
  C   C268      1.0  0.07729  0.48802  0.07809  1.0000
  C   C269      1.0  0.99140  0.44714  0.05968  1.0000
  Fe  Fe45      1.0  0.44773  0.43298  0.13940  1.0000
  C   C270      1.0  0.31429  0.25399  0.23329  1.0000
  S   S89       1.0  0.43711  0.48524  0.23337  1.0000
  H   H261      1.0  0.41966  0.47097  0.36657  1.0000
  C   C271      1.0  0.30441  0.25922  0.49045  1.0000
  H   H262      1.0  0.39592  0.36311  0.02758  1.0000
  H   H263      1.0  0.19412  0.26378  0.10240  1.0000
  N   N24       1.0  0.07612  0.36366  0.18011  1.0000
  C   C272      1.0  0.09164  0.35710  0.19923  1.0000
  C   C273      1.0  0.05914  0.35917  0.19292  1.0000
  C   C274      1.0  0.09041  0.34632  0.23291  1.0000
  C   C275      1.0  0.05740  0.34860  0.22675  1.0000
  C   C276      1.0  0.07317  0.34225  0.24695  1.0000
  C   C277      1.0  0.07786  0.37502  0.14504  1.0000
  H   H264      1.0  0.10509  0.36068  0.18907  1.0000
  H   H265      1.0  0.04680  0.36413  0.17751  1.0000
  H   H266      1.0  0.10277  0.34157  0.24854  1.0000
  H   H267      1.0  0.04390  0.34557  0.23742  1.0000
  H   H268      1.0  0.07208  0.33428  0.27355  1.0000
  H   H269      1.0  0.08837  0.38594  0.14959  1.0000
  H   H270      1.0  0.08191  0.36574  0.12048  1.0000
  H   H271      1.0  0.06479  0.38274  0.13724  1.0000
  H   H272      1.0  0.21961  0.24351  0.26807  1.0000
  C   C278      1.0  0.22768  0.30972  0.50181  1.0000
  C   C279      1.0  0.41362  0.40908  0.07350  1.0000
  C   C280      1.0  0.18671  0.38088  0.32675  1.0000
  C   C281      1.0  0.15899  0.38154  0.36390  1.0000
  Fe  Fe46      1.0  0.31386  0.30670  0.04295  1.0000
  H   H273      1.0  0.26565  0.29534  0.41586  1.0000
  H   H274      1.0  0.00089  0.48217  0.14297  1.0000
  H   H275      1.0  0.17655  0.26820  0.02468  1.0000
  C   C282      1.0  0.38150  0.34010  0.21064  1.0000
  C   C283      1.0  0.05360  0.48877  0.12650  1.0000
  H   H276      1.0  0.26901  0.33043  0.49755  1.0000
  C   C284      1.0  0.19109  0.26936  0.01945  1.0000
  Fe  Fe47      1.0  0.45636  0.41662  0.21866  1.0000
  H   H277      1.0  0.45756  0.41182  0.34067  1.0000
  C   C285      1.0  0.42624  0.39572  0.05858  1.0000
  H   H278      1.0  0.21723  0.27100  0.47962  1.0000
  H   H279      1.0  0.37017  0.41319  0.10047  1.0000
  H   H280      1.0  0.45431  0.44652  0.33164  1.0000
  H   H281      1.0  0.96944  0.48073  0.11422  1.0000
  S   S90       1.0  0.07497  0.48385  0.48444  1.0000
  C   C286      1.0  0.29395  0.24691  0.46779  1.0000
  C   C287      1.0  0.33005  0.24602  0.17415  1.0000
  H   H282      1.0  0.20852  0.24295  0.09286  1.0000
  H   H283      1.0  0.96438  0.46663  0.38712  1.0000
  H   H284      1.0  0.98858  0.43728  0.03635  1.0000
  H   H285      1.0  0.19433  0.24459  0.31453  1.0000
  H   H286      1.0  0.05166  0.47946  0.40610  1.0000
  H   H287      1.0  0.42952  0.36850  0.03062  1.0000
  C   C288      1.0  0.43425  0.49030  0.28290  1.0000
  S   S91       1.0  0.29072  0.32105  0.00835  1.0000
  H   H288      1.0  0.43100  0.48772  0.00869  1.0000
  H   H289      1.0  0.96333  0.45790  0.06071  1.0000
  C   C289      1.0  0.06428  0.49083  0.34080  1.0000
  H   H290      1.0  0.11995  0.49229  0.47174  1.0000
  Fe  Fe48      1.0  0.31900  0.33384  0.58897  1.0000
  S   S92       1.0  0.29487  0.32670  0.62529  1.0000
  S   S93       1.0  0.32913  0.36387  0.59487  1.0000
  S   S94       1.0  0.30673  0.32072  0.53502  1.0000
  S   S95       1.0  0.29846  0.28362  0.58989  1.0000
  C   C290      1.0  0.43760  0.45383  0.89738  1.0000
  Fe  Fe49      1.0  0.28417  0.31116  0.57327  1.0000
  C   C291      1.0  0.96525  0.34220  0.55504  1.0000
  Fe  Fe50      1.0  0.31102  0.29994  0.63851  1.0000
  S   S96       1.0  0.31240  0.28968  0.69983  1.0000
  S   S97       1.0  0.16443  0.24774  0.89519  1.0000
  S   S98       1.0  0.33582  0.30790  0.60578  1.0000
  H   H291      1.0  0.21973  0.28608  0.95187  1.0000
  H   H292      1.0  0.11294  0.46425  0.50976  1.0000
  H   H293      1.0  0.04100  0.45715  0.61327  1.0000
  Fe  Fe51      1.0  0.41655  0.45081  0.71998  1.0000
  S   S99       1.0  0.41058  0.42346  0.74976  1.0000
  H   H294      1.0  0.07922  0.48977  0.62583  1.0000
  H   H295      1.0  0.31597  0.36967  0.72271  1.0000
  Fe  Fe52      1.0  0.41841  0.40962  0.69321  1.0000
  S   S100      1.0  0.40702  0.38180  0.67078  1.0000
  H   H296      1.0  0.99973  0.43225  0.54286  1.0000
  S   S101      1.0  0.42201  0.43731  0.66184  1.0000
  Fe  Fe53      1.0  0.07980  0.38317  0.70449  1.0000
  S   S102      1.0  0.07924  0.41211  0.73206  1.0000
  S   S103      1.0  0.09731  0.35631  0.71852  1.0000
  Fe  Fe54      1.0  0.04628  0.39341  0.65276  1.0000
  S   S104      1.0  0.04295  0.42286  0.67642  1.0000
  S   S105      1.0  0.02993  0.38244  0.60168  1.0000
  Fe  Fe55      1.0  0.07352  0.42366  0.67220  1.0000
  S   S106      1.0  0.08463  0.45186  0.65439  1.0000
  Fe  Fe56      1.0  0.04861  0.40947  0.73435  1.0000
  S   S107      1.0  0.03469  0.42217  0.78690  1.0000
  S   S108      1.0  0.07670  0.39504  0.64407  1.0000
  S   S109      1.0  0.04929  0.37967  0.71124  1.0000
  Fe  Fe57      1.0  0.21894  0.28200  0.85464  1.0000
  S   S110      1.0  0.19192  0.29260  0.87831  1.0000
  S   S111      1.0  0.24615  0.27395  0.88420  1.0000
  Fe  Fe58      1.0  0.20110  0.26883  0.77867  1.0000
  S   S112      1.0  0.17239  0.27737  0.79637  1.0000
  S   S113      1.0  0.21337  0.25611  0.72472  1.0000
  Fe  Fe59      1.0  0.18525  0.30397  0.81825  1.0000
  S   S114      1.0  0.17315  0.33379  0.80624  1.0000
  Fe  Fe60      1.0  0.18090  0.26551  0.85498  1.0000
  S   S115      1.0  0.33700  0.27428  0.51486  1.0000
  S   S116      1.0  0.21368  0.29601  0.79707  1.0000
  S   S117      1.0  0.20798  0.25434  0.83438  1.0000
  C   C292      1.0  0.96406  0.35728  0.58112  1.0000
  H   H297      1.0  0.29206  0.28109  0.98742  1.0000
  C   C293      1.0  0.02678  0.45650  0.60359  1.0000
  C   C294      1.0  0.32931  0.25875  0.87063  1.0000
  H   H298      1.0  0.08294  0.40581  0.86482  1.0000
  H   H299      1.0  0.31678  0.25342  0.99152  1.0000
  H   H300      1.0  0.97676  0.39273  0.51528  1.0000
  C   C295      1.0  0.00004  0.38805  0.55395  1.0000
  C   C296      1.0  0.00775  0.39165  0.59060  1.0000
  C   C297      1.0  0.99776  0.40257  0.61722  1.0000
  C   C298      1.0  0.98006  0.40969  0.60724  1.0000
  C   C299      1.0  0.32159  0.25640  0.73676  1.0000
  C   C300      1.0  0.07575  0.48754  0.56389  1.0000
  H   H301      1.0  0.00360  0.40536  0.64557  1.0000
  H   H302      1.0  0.97820  0.33437  0.55156  1.0000
  C   C301      1.0  0.01608  0.41108  0.80807  1.0000
  C   C302      1.0  0.01013  0.39357  0.79481  1.0000
  C   C303      1.0  0.99633  0.38433  0.81460  1.0000
  C   C304      1.0  0.98814  0.39273  0.84715  1.0000
  C   C305      1.0  0.99370  0.41054  0.85960  1.0000
  C   C306      1.0  0.00775  0.41960  0.84031  1.0000
  H   H303      1.0  0.01645  0.38693  0.76993  1.0000
  H   H304      1.0  0.99203  0.37056  0.80482  1.0000
  Fe  Fe61      1.0  0.44081  0.42229  0.76363  1.0000
  H   H305      1.0  0.01240  0.43309  0.85089  1.0000
  C   C307      1.0  0.07986  0.46054  0.60751  1.0000
  C   C308      1.0  0.07866  0.44824  0.57592  1.0000
  H   H306      1.0  0.01787  0.48000  0.63977  1.0000
  H   H307      1.0  0.04525  0.42481  0.58425  1.0000
  H   H308      1.0  0.08013  0.43309  0.58033  1.0000
  H   H309      1.0  0.38073  0.31951  0.72133  1.0000
  H   H310      1.0  0.33363  0.26752  0.64518  1.0000
  C   C309      1.0  0.11847  0.35063  0.74319  1.0000
  C   C310      1.0  0.12984  0.36446  0.75860  1.0000
  C   C311      1.0  0.14646  0.35907  0.77791  1.0000
  C   C312      1.0  0.15188  0.33983  0.78227  1.0000
  C   C313      1.0  0.14047  0.32603  0.76697  1.0000
  C   C314      1.0  0.12392  0.33141  0.74756  1.0000
  H   H311      1.0  0.12594  0.37930  0.75535  1.0000
  H   H312      1.0  0.15518  0.36989  0.78954  1.0000
  H   H313      1.0  0.14435  0.31119  0.77014  1.0000
  H   H314      1.0  0.11524  0.32058  0.73583  1.0000
  H   H315      1.0  0.21943  0.30200  0.52163  1.0000
  C   C315      1.0  0.40049  0.47437  0.80672  1.0000
  H   H316      1.0  0.97231  0.41803  0.62803  1.0000
  C   C316      1.0  0.43327  0.47063  0.91736  1.0000
  H   H317      1.0  0.40083  0.45933  0.80056  1.0000
  C   C317      1.0  0.21952  0.25156  0.52759  1.0000
  Fe  Fe62      1.0  0.45134  0.43492  0.68284  1.0000
  C   C318      1.0  0.29779  0.26251  0.84461  1.0000
  C   C319      1.0  0.32285  0.26696  0.70275  1.0000
  H   H318      1.0  0.38427  0.35439  0.72742  1.0000
  H   H319      1.0  0.98520  0.47836  0.61862  1.0000
  H   H320      1.0  0.31428  0.26232  0.76106  1.0000
  C   C320      1.0  0.32356  0.28911  0.92056  1.0000
  C   C321      1.0  0.26327  0.31653  0.95412  1.0000
  C   C322      1.0  0.25310  0.30631  0.92661  1.0000
  C   C323      1.0  0.25720  0.28706  0.92067  1.0000
  C   C324      1.0  0.27110  0.27798  0.94312  1.0000
  C   C325      1.0  0.28119  0.28816  0.97071  1.0000
  C   C326      1.0  0.98250  0.39545  0.54374  1.0000
  H   H321      1.0  0.24245  0.31345  0.90937  1.0000
  H   H322      1.0  0.27426  0.26305  0.93882  1.0000
  C   C327      1.0  0.43081  0.48936  0.97675  1.0000
  C   C328      1.0  0.35130  0.36897  0.61335  1.0000
  C   C329      1.0  0.35511  0.38764  0.62453  1.0000
  C   C330      1.0  0.37223  0.39199  0.64144  1.0000
  C   C331      1.0  0.38582  0.37771  0.64672  1.0000
  C   C332      1.0  0.38218  0.35917  0.63444  1.0000
  C   C333      1.0  0.36497  0.35477  0.61822  1.0000
  H   H323      1.0  0.34467  0.39877  0.62058  1.0000
  H   H324      1.0  0.37487  0.40633  0.65059  1.0000
  H   H325      1.0  0.39263  0.34805  0.63822  1.0000
  H   H326      1.0  0.36234  0.34040  0.60943  1.0000
  C   C334      1.0  0.39854  0.48084  0.84494  1.0000
  H   H327      1.0  0.32095  0.30081  0.94042  1.0000
  H   H328      1.0  0.98756  0.41706  0.88478  1.0000
  N   N25       1.0  0.02161  0.44314  0.57716  1.0000
  C   C335      1.0  0.98174  0.46694  0.79370  1.0000
  C   C336      1.0  0.07967  0.40423  0.83354  1.0000
  C   C337      1.0  0.40113  0.48737  0.77639  1.0000
  C   C338      1.0  0.05167  0.35315  0.81418  1.0000
  H   H329      1.0  0.09180  0.37360  0.79400  1.0000
  C   C339      1.0  0.22819  0.27194  0.00469  1.0000
  H   H330      1.0  0.44768  0.42492  0.90274  1.0000
  H   H331      1.0  0.04309  0.43702  0.53818  1.0000
  H   H332      1.0  0.07085  0.41654  0.82380  1.0000
  H   H333      1.0  0.31381  0.36101  0.67347  1.0000
  H   H334      1.0  0.32785  0.38058  0.68332  1.0000
  H   H335      1.0  0.04436  0.34025  0.80871  1.0000
  C   C340      1.0  0.07522  0.47524  0.53218  1.0000
  C   C341      1.0  0.07832  0.48019  0.60142  1.0000
  C   C342      1.0  0.97245  0.40624  0.57043  1.0000
  C   C343      1.0  0.07652  0.45559  0.53833  1.0000
  C   C344      1.0  0.12091  0.47031  0.53430  1.0000
  H   H336      1.0  0.07556  0.34399  0.78222  1.0000
  C   C345      1.0  0.07827  0.37211  0.80596  1.0000
  H   H337      1.0  0.35011  0.30693  0.70365  1.0000
  S   S118      1.0  0.44849  0.40640  0.70994  1.0000
  Fe  Fe63      1.0  0.32166  0.29406  0.55520  1.0000
  H   H338      1.0  0.26033  0.33154  0.95809  1.0000
  H   H339      1.0  0.39726  0.47071  0.86805  1.0000
  C   C346      1.0  0.99037  0.45510  0.57929  1.0000
  C   C347      1.0  0.00993  0.48142  0.81350  1.0000
  C   C348      1.0  0.27748  0.30755  0.97593  1.0000
  H   H340      1.0  0.02994  0.36644  0.84723  1.0000
  H   H341      1.0  0.35756  0.37609  0.71542  1.0000
  C   C349      1.0  0.99544  0.46855  0.60676  1.0000
  C   C350      1.0  0.03548  0.42994  0.56121  1.0000
  N   N26       1.0  0.21586  0.30493  0.67715  1.0000
  C   C351      1.0  0.22370  0.32218  0.68136  1.0000
  C   C352      1.0  0.19935  0.30161  0.69373  1.0000
  C   C353      1.0  0.21485  0.33675  0.70220  1.0000
  C   C354      1.0  0.19011  0.31588  0.71463  1.0000
  C   C355      1.0  0.19795  0.33354  0.71889  1.0000
  C   C356      1.0  0.22582  0.28970  0.65659  1.0000
  H   H342      1.0  0.23693  0.32469  0.66869  1.0000
  H   H343      1.0  0.19331  0.28781  0.69131  1.0000
  H   H344      1.0  0.22112  0.35038  0.70573  1.0000
  H   H345      1.0  0.17712  0.31321  0.72820  1.0000
  H   H346      1.0  0.19099  0.34460  0.73558  1.0000
  H   H347      1.0  0.23651  0.28314  0.67614  1.0000
  H   H348      1.0  0.21651  0.27838  0.64704  1.0000
  H   H349      1.0  0.23253  0.29525  0.63046  1.0000
  H   H350      1.0  0.45206  0.42700  0.97421  1.0000
  C   C357      1.0  0.44665  0.43915  0.95799  1.0000
  H   H351      1.0  0.97612  0.45418  0.56990  1.0000
  H   H352      1.0  0.29691  0.29170  0.89336  1.0000
  H   H353      1.0  0.07632  0.44602  0.51383  1.0000
  C   C358      1.0  0.06915  0.35524  0.79932  1.0000
  H   H354      1.0  0.29764  0.26936  0.50934  1.0000
  C   C359      1.0  0.05305  0.38454  0.84163  1.0000
  C   C360      1.0  0.01378  0.46940  0.61879  1.0000
  C   C361      1.0  0.00377  0.44261  0.56430  1.0000
  C   C362      1.0  0.44211  0.45615  0.97702  1.0000
  N   N27       1.0  0.43534  0.47153  0.95671  1.0000
  H   H355      1.0  0.00776  0.37964  0.53324  1.0000
  N   N28       1.0  0.18145  0.25535  0.53024  1.0000
  H   H356      1.0  0.23437  0.25009  0.52650  1.0000
  H   H357      1.0  0.04648  0.39609  0.85756  1.0000
  N   N29       1.0  0.31268  0.26836  0.87060  1.0000
  H   H358      1.0  0.11498  0.46473  0.56125  1.0000
  C   C363      1.0  0.97188  0.48253  0.80888  1.0000
  H   H359      1.0  0.15782  0.26808  0.55563  1.0000
  H   H360      1.0  0.43580  0.45302  0.86614  1.0000
  C   C364      1.0  0.33245  0.25935  0.67136  1.0000
  C   C365      1.0  0.04360  0.36782  0.83575  1.0000
  H   H361      1.0  0.00871  0.45446  0.78421  1.0000
  N   N30       1.0  0.07012  0.38655  0.82663  1.0000
  H   H362      1.0  0.09269  0.40466  0.81734  1.0000
  C   C366      1.0  0.34338  0.26393  0.89620  1.0000
  S   S119      1.0  0.25368  0.30894  0.56008  1.0000
  N   N31       1.0  0.33917  0.35390  0.70253  1.0000
  C   C367      1.0  0.33702  0.33476  0.69975  1.0000
  C   C368      1.0  0.35577  0.36091  0.71345  1.0000
  C   C369      1.0  0.35189  0.32210  0.70657  1.0000
  C   C370      1.0  0.37094  0.34866  0.72051  1.0000
  C   C371      1.0  0.36899  0.32914  0.71673  1.0000
  C   C372      1.0  0.32339  0.36694  0.69543  1.0000
  H   H363      1.0  0.32379  0.32916  0.69184  1.0000
  H   H364      1.0  0.18641  0.28379  0.96496  1.0000
  S   S120      1.0  0.44607  0.45050  0.73820  1.0000
  S   S121      1.0  0.45219  0.41559  0.82317  1.0000
  S   S122      1.0  0.40271  0.47960  0.72800  1.0000
  N   N32       1.0  0.11972  0.49109  0.53336  1.0000
  H   H365      1.0  0.29677  0.27203  0.81911  1.0000
  H   H366      1.0  0.35089  0.28253  0.94291  1.0000
  C   C373      1.0  0.30991  0.28373  0.89421  1.0000
  C   C374      1.0  0.00089  0.46644  0.79597  1.0000
  H   H367      1.0  0.97458  0.45532  0.78029  1.0000
  C   C375      1.0  0.34035  0.27900  0.92174  1.0000
  C   C376      1.0  0.16144  0.25771  0.53259  1.0000
  H   H368      1.0  0.02482  0.48116  0.81540  1.0000
  S   S123      1.0  0.97194  0.38010  0.87301  1.0000
  H   H369      1.0  0.15517  0.24395  0.53906  1.0000
  H   H370      1.0  0.02920  0.41710  0.54870  1.0000
  H   H371      1.0  0.42819  0.48295  0.90128  1.0000
  C   C377      1.0  0.19659  0.27827  0.98567  1.0000
  H   H372      1.0  0.35626  0.25577  0.89744  1.0000
  H   H373      1.0  0.97606  0.36129  0.59795  1.0000
  C   C378      1.0  0.21527  0.27948  0.97825  1.0000
  H   H374      1.0  0.20356  0.24516  0.91241  1.0000
  C   C379      1.0  0.44429  0.43801  0.91793  1.0000
  H   H375      1.0  0.28448  0.26315  0.85989  1.0000
  C   C380      1.0  0.24527  0.31519  0.51354  1.0000
  H   H376      1.0  0.13546  0.46529  0.53264  1.0000
  H   H377      1.0  0.17429  0.24862  0.71855  1.0000
  H   H378      1.0  0.46091  0.41647  0.60321  1.0000
  H   H379      1.0  0.24275  0.27283  0.99914  1.0000
  H   H380      1.0  0.30003  0.24762  0.83461  1.0000
  C   C381      1.0  0.32328  0.24281  0.97328  1.0000
  H   H381      1.0  0.33155  0.24655  0.85192  1.0000
  H   H382      1.0  0.24982  0.24843  0.81491  1.0000
  C   C382      1.0  0.19075  0.24374  0.55605  1.0000
  Fe  Fe64      1.0  0.43260  0.53320  0.43552  1.0000
  S   S124      1.0  0.43060  0.56138  0.40585  1.0000
  Fe  Fe65      1.0  0.30024  0.69806  0.03822  1.0000
  H   H383      1.0  0.17673  0.71500  0.40884  1.0000
  C   C383      1.0  0.05162  0.51050  0.07195  1.0000
  C   C384      1.0  0.20978  0.67361  0.12854  1.0000
  Fe  Fe66      1.0  0.41916  0.57299  0.46163  1.0000
  S   S125      1.0  0.39689  0.59636  0.45617  1.0000
  H   H384      1.0  0.34597  0.63738  0.50101  1.0000
  H   H385      1.0  0.99637  0.55626  0.19261  1.0000
  S   S126      1.0  0.42494  0.50481  0.41042  1.0000
  Fe  Fe67      1.0  0.31584  0.66042  0.06957  1.0000
  C   C385      1.0  0.43594  0.51290  0.33637  1.0000
  S   S127      1.0  0.07858  0.51308  0.01784  1.0000
  Fe  Fe68      1.0  0.32215  0.69688  0.11369  1.0000
  S   S128      1.0  0.29473  0.70958  0.09719  1.0000
  S   S129      1.0  0.34157  0.71218  0.15365  1.0000
  Fe  Fe69      1.0  0.28365  0.68121  0.11049  1.0000
  S   S130      1.0  0.25578  0.68559  0.13777  1.0000
  H   H386      1.0  0.99123  0.58135  0.49206  1.0000
  S   S131      1.0  0.46113  0.53692  0.45889  1.0000
  S   S132      1.0  0.31088  0.66902  0.13173  1.0000
  S   S133      1.0  0.32901  0.68759  0.05300  1.0000
  Fe  Fe70      1.0  0.06915  0.51500  0.47289  1.0000
  C   C386      1.0  0.00836  0.54786  0.20440  1.0000
  C   C387      1.0  0.35366  0.62420  0.50583  1.0000
  Fe  Fe71      1.0  0.05404  0.53847  0.40559  1.0000
  S   S134      1.0  0.05810  0.56631  0.43582  1.0000
  S   S135      1.0  0.04300  0.53365  0.34529  1.0000
  C   C388      1.0  0.08926  0.63150  0.41996  1.0000
  H   H387      1.0  0.06545  0.52604  0.16570  1.0000
  H   H388      1.0  0.39843  0.53367  0.31557  1.0000
  H   H389      1.0  0.15139  0.64743  0.41971  1.0000
  S   S136      1.0  0.08230  0.52686  0.42047  1.0000
  S   S137      1.0  0.04060  0.52469  0.45538  1.0000
  Fe  Fe72      1.0  0.20196  0.65652  0.31245  1.0000
  S   S138      1.0  0.17457  0.65742  0.28182  1.0000
  S   S139      1.0  0.22802  0.64413  0.28664  1.0000
  Fe  Fe73      1.0  0.18694  0.67546  0.38434  1.0000
  S   S140      1.0  0.15832  0.67849  0.35948  1.0000
  S   S141      1.0  0.19622  0.68295  0.44501  1.0000
  Fe  Fe74      1.0  0.16287  0.64850  0.33859  1.0000
  S   S142      1.0  0.13860  0.62888  0.33742  1.0000
  Fe  Fe75      1.0  0.17212  0.68709  0.30488  1.0000
  S   S143      1.0  0.15986  0.71014  0.26631  1.0000
  S   S144      1.0  0.19064  0.64483  0.36727  1.0000
  S   S145      1.0  0.20034  0.68687  0.33179  1.0000
  S   S146      1.0  0.28738  0.67038  0.05000  1.0000
  H   H390      1.0  0.38922  0.51466  0.44428  1.0000
  C   C389      1.0  0.19117  0.70621  0.46097  1.0000
  H   H391      1.0  0.96680  0.55872  0.13954  1.0000
  C   C390      1.0  0.97705  0.55371  0.11941  1.0000
  S   S147      1.0  0.46089  0.52747  0.01327  1.0000
  H   H392      1.0  0.97570  0.57227  0.45535  1.0000
  H   H393      1.0  0.01349  0.57193  0.14604  1.0000
  H   H394      1.0  0.34500  0.73705  0.48751  1.0000
  H   H395      1.0  0.07330  0.49282  0.36560  1.0000
  H   H396      1.0  0.46209  0.56788  0.02742  1.0000
  H   H397      1.0  0.23891  0.67468  0.33605  1.0000
  C   C391      1.0  0.17467  0.72310  0.23751  1.0000
  H   H398      1.0  0.21945  0.71291  0.12388  1.0000
  H   H399      1.0  0.03153  0.50936  0.11670  1.0000
  H   H400      1.0  0.21282  0.64514  0.15108  1.0000
  H   H401      1.0  0.19961  0.71019  0.26084  1.0000
  H   H402      1.0  0.07618  0.62520  0.41340  1.0000
  C   C392      1.0  0.99829  0.56015  0.06790  1.0000
  C   C393      1.0  0.98504  0.56652  0.09425  1.0000
  H   H403      1.0  0.12016  0.52738  0.46952  1.0000
  C   C394      1.0  0.98223  0.53447  0.11809  1.0000
  C   C395      1.0  0.99542  0.52812  0.09167  1.0000
  C   C396      1.0  0.00347  0.54093  0.06670  1.0000
  H   H404      1.0  0.46157  0.54728  0.13355  1.0000
  C   C397      1.0  0.05883  0.49297  0.27192  1.0000
  H   H405      1.0  0.99944  0.51324  0.09041  1.0000
  H   H406      1.0  0.31455  0.72172  0.25604  1.0000
  C   C398      1.0  0.01922  0.53825  0.34092  1.0000
  C   C399      1.0  0.00988  0.53335  0.30674  1.0000
  C   C400      1.0  0.99094  0.53743  0.30245  1.0000
  C   C401      1.0  0.98131  0.54633  0.33248  1.0000
  C   C402      1.0  0.99063  0.55094  0.36684  1.0000
  C   C403      1.0  0.00954  0.54690  0.37111  1.0000
  H   H407      1.0  0.01733  0.52648  0.28356  1.0000
  H   H408      1.0  0.98382  0.53384  0.27590  1.0000
  H   H409      1.0  0.98322  0.55786  0.39000  1.0000
  H   H410      1.0  0.01669  0.55079  0.39749  1.0000
  C   C404      1.0  0.12037  0.58416  0.42416  1.0000
  C   C405      1.0  0.13742  0.59269  0.42941  1.0000
  C   C406      1.0  0.14354  0.60600  0.40258  1.0000
  C   C407      1.0  0.13258  0.61095  0.37029  1.0000
  C   C408      1.0  0.11577  0.60204  0.36459  1.0000
  C   C409      1.0  0.10966  0.58874  0.39137  1.0000
  H   H411      1.0  0.14588  0.58910  0.45451  1.0000
  H   H412      1.0  0.15665  0.61248  0.40697  1.0000
  H   H413      1.0  0.10726  0.60569  0.33958  1.0000
  H   H414      1.0  0.09656  0.58225  0.38687  1.0000
  C   C410      1.0  0.14193  0.65366  0.44155  1.0000
  C   C411      1.0  0.36653  0.59690  0.00824  1.0000
  H   H415      1.0  0.03837  0.52541  0.20779  1.0000
  C   C412      1.0  0.06834  0.50313  0.05837  1.0000
  H   H416      1.0  0.43917  0.52684  0.34708  1.0000
  H   H417      1.0  0.36496  0.51916  0.43464  1.0000
  C   C413      1.0  0.02478  0.56173  0.15038  1.0000
  C   C414      1.0  0.37833  0.52591  0.43979  1.0000
  C   C415      1.0  0.30273  0.72524  0.42343  1.0000
  C   C416      1.0  0.43839  0.50836  0.29713  1.0000
  H   H418      1.0  0.12503  0.62783  0.48369  1.0000
  C   C417      1.0  0.39095  0.56010  0.34364  1.0000
  C   C418      1.0  0.33310  0.73392  0.46979  1.0000
  H   H419      1.0  0.44346  0.51890  0.27775  1.0000
  C   C419      1.0  0.25002  0.67500  0.18181  1.0000
  C   C420      1.0  0.25869  0.65817  0.19478  1.0000
  C   C421      1.0  0.25211  0.64896  0.22756  1.0000
  C   C422      1.0  0.23689  0.65654  0.24738  1.0000
  C   C423      1.0  0.22871  0.67373  0.23520  1.0000
  C   C424      1.0  0.23533  0.68296  0.20265  1.0000
  H   H420      1.0  0.27000  0.65189  0.17882  1.0000
  H   H421      1.0  0.25851  0.63566  0.23693  1.0000
  H   H422      1.0  0.21700  0.67969  0.25028  1.0000
  H   H423      1.0  0.22862  0.69601  0.19286  1.0000
  C   C425      1.0  0.42910  0.49946  0.36148  1.0000
  H   H424      1.0  0.29113  0.72172  0.40516  1.0000
  C   C426      1.0  0.18131  0.71916  0.43746  1.0000
  H   H425      1.0  0.18806  0.64998  0.19897  1.0000
  H   H426      1.0  0.18009  0.70733  0.16015  1.0000
  C   C427      1.0  0.03877  0.53597  0.18510  1.0000
  H   H427      1.0  0.37194  0.62839  0.45847  1.0000
  N   N33       1.0  0.25040  0.67523  0.43129  1.0000
  C   C428      1.0  0.20518  0.72994  0.21542  1.0000
  H   H428      1.0  0.14757  0.65005  0.47075  1.0000
  H   H429      1.0  0.96915  0.58847  0.01463  1.0000
  C   C429      1.0  0.12003  0.52007  0.49710  1.0000
  H   H430      1.0  0.04464  0.52210  0.05684  1.0000
  H   H431      1.0  0.25552  0.68481  0.48901  1.0000
  H   H432      1.0  0.22108  0.67159  0.10878  1.0000
  H   H433      1.0  0.37763  0.53426  0.46707  1.0000
  C   C430      1.0  0.26140  0.65862  0.36208  1.0000
  S   S148      1.0  0.41858  0.54418  0.48903  1.0000
  H   H434      1.0  0.09467  0.61441  0.47071  1.0000
  C   C431      1.0  0.33392  0.73346  0.17571  1.0000
  C   C432      1.0  0.27099  0.65436  0.39641  1.0000
  H   H435      1.0  0.35896  0.65013  0.03517  1.0000
  H   H436      1.0  0.29865  0.70271  0.25941  1.0000
  C   C433      1.0  0.05448  0.54928  0.13118  1.0000
  H   H437      1.0  0.14174  0.66936  0.43881  1.0000
  N   N34       1.0  0.28840  0.72661  0.22782  1.0000
  H   H438      1.0  0.06599  0.54914  0.11165  1.0000
  H   H439      1.0  0.11912  0.66223  0.38307  1.0000
  C   C434      1.0  0.17717  0.73755  0.45115  1.0000
  C   C435      1.0  0.03971  0.56212  0.12556  1.0000
  H   H440      1.0  0.17157  0.68143  0.20331  1.0000
  H   H441      1.0  0.03065  0.49238  0.39350  1.0000
  C   C436      1.0  0.32168  0.71930  0.48056  1.0000
  C   C437      1.0  0.09620  0.64501  0.39528  1.0000
  H   H442      1.0  0.33934  0.59349  0.03055  1.0000
  H   H443      1.0  0.28279  0.64458  0.39631  1.0000
  C   C438      1.0  0.05418  0.53633  0.16155  1.0000
  H   H444      1.0  0.03966  0.57216  0.10180  1.0000
  C   C439      1.0  0.20721  0.70696  0.10919  1.0000
  C   C440      1.0  0.34701  0.62268  0.03458  1.0000
  H   H445      1.0  0.21101  0.70246  0.07955  1.0000
  H   H446      1.0  0.27791  0.70640  0.18810  1.0000
  H   H447      1.0  0.15245  0.73848  0.20838  1.0000
  H   H448      1.0  0.23371  0.67374  0.48053  1.0000
  H   H449      1.0  0.22887  0.68891  0.39815  1.0000
  C   C441      1.0  0.09959  0.62551  0.45227  1.0000
  Fe  Fe76      1.0  0.08544  0.55359  0.45499  1.0000
  C   C442      1.0  0.18216  0.67895  0.18196  1.0000
  H   H450      1.0  0.98100  0.58141  0.09534  1.0000
  C   C443      1.0  0.20517  0.65857  0.15240  1.0000
  C   C444      1.0  0.35002  0.60340  0.02529  1.0000
  C   C445      1.0  0.36097  0.63532  0.02784  1.0000
  N   N35       1.0  0.20087  0.69091  0.13158  1.0000
  H   H451      1.0  0.35359  0.73094  0.22285  1.0000
  N   N36       1.0  0.12347  0.64647  0.43514  1.0000
  C   C446      1.0  0.11344  0.65238  0.40334  1.0000
  H   H452      1.0  0.27280  0.65950  0.45754  1.0000
  C   C447      1.0  0.24395  0.68318  0.46802  1.0000
  H   H453      1.0  0.31036  0.70713  0.21478  1.0000
  H   H454      1.0  0.06356  0.49597  0.24309  1.0000
  C   C448      1.0  0.38433  0.56851  0.37741  1.0000
  S   S149      1.0  0.32506  0.63051  0.05110  1.0000
  S   S150      1.0  0.00805  0.57650  0.03686  1.0000
  H   H455      1.0  0.20452  0.69631  0.00792  1.0000
  S   S151      1.0  0.44686  0.57966  0.48682  1.0000
  H   H456      1.0  0.39463  0.56886  0.31944  1.0000
  C   C449      1.0  0.26522  0.66280  0.43099  1.0000
  C   C450      1.0  0.36842  0.61907  0.48181  1.0000
  C   C451      1.0  0.38019  0.55708  0.40885  1.0000
  C   C452      1.0  0.11680  0.63315  0.45941  1.0000
  N   N37       1.0  0.38266  0.53781  0.40672  1.0000
  C   C453      1.0  0.45234  0.51216  0.15223  1.0000
  C   C454      1.0  0.98306  0.56899  0.48304  1.0000
  H   H457      1.0  0.37533  0.56382  0.43517  1.0000
  C   C455      1.0  0.24638  0.67134  0.36268  1.0000
  C   C456      1.0  0.31399  0.74009  0.41299  1.0000
  C   C457      1.0  0.38865  0.52941  0.37334  1.0000
  H   H458      1.0  0.23729  0.69743  0.46369  1.0000
  C   C458      1.0  0.19135  0.66134  0.17944  1.0000
  H   H459      1.0  0.08863  0.64925  0.36927  1.0000
  C   C459      1.0  0.27612  0.72042  0.20064  1.0000
  C   C460      1.0  0.18710  0.69363  0.15757  1.0000
  S   S152      1.0  0.11256  0.56867  0.46016  1.0000
  H   H460      1.0  0.38287  0.58384  0.37976  1.0000
  H   H461      1.0  0.39045  0.51411  0.37154  1.0000
  H   H462      1.0  0.00382  0.53305  0.20738  1.0000
  H   H463      1.0  0.01194  0.55363  0.23338  1.0000
  C   C461      1.0  0.37866  0.60207  0.48778  1.0000
  H   H464      1.0  0.19648  0.71850  0.10658  1.0000
  C   C462      1.0  0.24088  0.67940  0.39778  1.0000
  Fe  Fe77      1.0  0.04700  0.55139  0.48750  1.0000
  H   H465      1.0  0.45235  0.51530  0.12072  1.0000
  C   C463      1.0  0.30660  0.71479  0.45717  1.0000
  S   S153      1.0  0.06020  0.56634  0.01905  1.0000
  C   C464      1.0  0.19371  0.72011  0.24003  1.0000
  H   H466      1.0  0.26543  0.65197  0.33501  1.0000
  N   N38       1.0  0.02426  0.54846  0.17908  1.0000
  C   C465      1.0  0.39309  0.54041  0.34147  1.0000
  H   H467      1.0  0.01366  0.53590  0.04652  1.0000
  S   S154      1.0  0.29243  0.69622  0.46985  1.0000
  C   C466      1.0  0.19707  0.71178  0.49800  1.0000
  C   C467      1.0  0.04423  0.50326  0.10582  1.0000
  H   H468      1.0  0.19572  0.73018  0.02032  1.0000
  H   H469      1.0  0.21989  0.72757  0.21760  1.0000
  H   H470      1.0  0.08426  0.50012  0.30024  1.0000
  C   C468      1.0  0.16718  0.73611  0.21043  1.0000
  H   H471      1.0  0.25146  0.72707  0.16696  1.0000
  H   H472      1.0  0.31306  0.74021  0.13276  1.0000
  Fe  Fe78      1.0  0.45821  0.56602  0.43310  1.0000
  C   C469      1.0  0.30371  0.71393  0.24028  1.0000
  C   C470      1.0  0.37743  0.62884  0.01065  1.0000
  H   H473      1.0  0.99319  0.55711  0.47816  1.0000
  C   C471      1.0  0.34232  0.73937  0.21034  1.0000
  C   C472      1.0  0.11999  0.50027  0.49859  1.0000
  C   C473      1.0  0.26119  0.73205  0.18854  1.0000
  S   S155      1.0  0.97249  0.51802  0.14890  1.0000
  H   H474      1.0  0.43814  0.51409  0.16315  1.0000
  C   C474      1.0  0.07053  0.49507  0.30391  1.0000
  H   H475      1.0  0.27257  0.73791  0.47276  1.0000
  H   H476      1.0  0.45659  0.49697  0.15587  1.0000
  Fe  Fe79      1.0  0.41017  0.53463  0.91822  1.0000
  S   S156      1.0  0.40829  0.56380  0.89230  1.0000
  C   C475      1.0  0.38457  0.66770  0.55570  1.0000
  C   C476      1.0  0.21647  0.73326  0.90499  1.0000
  C   C477      1.0  0.35588  0.64162  0.92885  1.0000
  N   N39       1.0  0.44462  0.52433  0.75681  1.0000
  Fe  Fe80      1.0  0.41229  0.57443  0.95347  1.0000
  C   C478      1.0  0.09485  0.58927  0.81024  1.0000
  Fe  Fe81      1.0  0.43908  0.56114  0.89124  1.0000
  H   H477      1.0  0.31906  0.65383  0.98139  1.0000
  C   C479      1.0  0.25400  0.72460  0.64214  1.0000
  Fe  Fe82      1.0  0.31665  0.64757  0.56825  1.0000
  N   N40       1.0  0.26740  0.72713  0.67366  1.0000
  C   C480      1.0  0.35895  0.59507  0.54154  1.0000
  Fe  Fe83      1.0  0.32124  0.68666  0.60288  1.0000
  S   S157      1.0  0.29397  0.69758  0.58052  1.0000
  S   S158      1.0  0.34014  0.70277  0.64220  1.0000
  Fe  Fe84      1.0  0.28325  0.66993  0.60009  1.0000
  S   S159      1.0  0.25543  0.67474  0.62713  1.0000
  H   H478      1.0  0.30224  0.73344  0.75790  1.0000
  H   H479      1.0  0.25057  0.72955  0.99135  1.0000
  S   S160      1.0  0.31012  0.66001  0.62679  1.0000
  S   S161      1.0  0.32976  0.67367  0.54627  1.0000
  C   C481      1.0  0.19297  0.73019  0.51164  1.0000
  H   H480      1.0  0.33250  0.59346  0.93213  1.0000
  C   C482      1.0  0.39942  0.51332  0.82311  1.0000
  Fe  Fe85      1.0  0.04110  0.55029  0.91930  1.0000
  S   S162      1.0  0.03613  0.57970  0.94214  1.0000
  S   S163      1.0  0.03255  0.54063  0.85967  1.0000
  Fe  Fe86      1.0  0.06592  0.57821  0.96025  1.0000
  S   S164      1.0  0.08190  0.60494  0.95131  1.0000
  C   C483      1.0  0.35657  0.60806  0.91524  1.0000
  C   C484      1.0  0.33851  0.73324  0.69153  1.0000
  S   S165      1.0  0.07132  0.54969  0.93332  1.0000
  S   S166      1.0  0.03314  0.53597  0.97400  1.0000
  Fe  Fe87      1.0  0.20578  0.64644  0.80862  1.0000
  S   S167      1.0  0.17820  0.64569  0.77899  1.0000
  S   S168      1.0  0.23168  0.63511  0.78064  1.0000
  Fe  Fe88      1.0  0.18978  0.66330  0.88228  1.0000
  S   S169      1.0  0.16090  0.66450  0.85839  1.0000
  S   S170      1.0  0.19751  0.67188  0.94300  1.0000
  Fe  Fe89      1.0  0.16761  0.63532  0.83566  1.0000
  S   S171      1.0  0.15020  0.60932  0.84059  1.0000
  Fe  Fe90      1.0  0.17407  0.67486  0.80414  1.0000
  S   S172      1.0  0.16162  0.69823  0.76653  1.0000
  S   S173      1.0  0.19577  0.63344  0.86312  1.0000
  S   S174      1.0  0.20239  0.67623  0.83054  1.0000
  C   C485      1.0  0.15387  0.64941  0.96759  1.0000
  H   H481      1.0  0.15601  0.73041  0.71616  1.0000
  C   C486      1.0  0.19023  0.69528  0.95296  1.0000
  H   H482      1.0  0.43611  0.53347  0.81230  1.0000
  C   C487      1.0  0.44022  0.50894  0.73479  1.0000
  H   H483      1.0  0.32288  0.66584  0.93624  1.0000
  H   H484      1.0  0.23054  0.63872  0.62571  1.0000
  C   C488      1.0  0.17932  0.70541  0.92603  1.0000
  H   H485      1.0  0.31692  0.62235  0.95798  1.0000
  S   S175      1.0  0.44333  0.57367  0.95019  1.0000
  S   S176      1.0  0.28847  0.65515  0.54350  1.0000
  H   H486      1.0  0.17494  0.69874  0.89942  1.0000
  C   C489      1.0  0.17721  0.71272  0.74320  1.0000
  C   C490      1.0  0.19612  0.70919  0.74715  1.0000
  C   C491      1.0  0.33026  0.62343  0.94485  1.0000
  H   H487      1.0  0.19722  0.73424  0.54047  1.0000
  H   H488      1.0  0.20131  0.69753  0.76446  1.0000
  N   N41       1.0  0.15767  0.61615  0.95357  1.0000
  C   C492      1.0  0.01402  0.55324  0.55722  1.0000
  C   C493      1.0  0.00214  0.56227  0.58346  1.0000
  C   C494      1.0  0.99097  0.55157  0.60721  1.0000
  C   C495      1.0  0.99158  0.53179  0.60462  1.0000
  C   C496      1.0  0.00358  0.52277  0.57859  1.0000
  C   C497      1.0  0.01480  0.53345  0.55500  1.0000
  H   H489      1.0  0.00152  0.57758  0.58536  1.0000
  H   H490      1.0  0.98181  0.55865  0.62723  1.0000
  H   H491      1.0  0.00410  0.50748  0.57636  1.0000
  H   H492      1.0  0.11860  0.52900  0.59355  1.0000
  C   C498      1.0  0.01122  0.54944  0.84185  1.0000
  C   C499      1.0  0.00570  0.54484  0.80406  1.0000
  C   C500      1.0  0.98841  0.55101  0.78961  1.0000
  C   C501      1.0  0.97659  0.56187  0.81290  1.0000
  C   C502      1.0  0.98221  0.56667  0.85056  1.0000
  C   C503      1.0  0.99948  0.56041  0.86510  1.0000
  H   H493      1.0  0.01479  0.53646  0.78587  1.0000
  H   H494      1.0  0.98430  0.54751  0.76034  1.0000
  C   C504      1.0  0.19106  0.72325  0.99420  1.0000
  H   H495      1.0  0.00361  0.56392  0.89437  1.0000
  C   C505      1.0  0.10070  0.60584  0.92005  1.0000
  C   C506      1.0  0.10726  0.62358  0.90971  1.0000
  C   C507      1.0  0.12255  0.62489  0.88569  1.0000
  C   C508      1.0  0.13125  0.60841  0.87150  1.0000
  C   C509      1.0  0.12460  0.59068  0.88160  1.0000
  C   C510      1.0  0.10940  0.58937  0.90585  1.0000
  H   H496      1.0  0.10059  0.63639  0.92061  1.0000
  H   H497      1.0  0.12750  0.63862  0.87797  1.0000
  H   H498      1.0  0.13125  0.57787  0.87063  1.0000
  H   H499      1.0  0.10447  0.57563  0.91366  1.0000
  C   C511      1.0  0.36384  0.62808  0.63464  1.0000
  H   H500      1.0  0.17693  0.63685  0.93830  1.0000
  C   C512      1.0  0.20844  0.72079  0.72862  1.0000
  C   C513      1.0  0.30370  0.72632  0.95745  1.0000
  S   S177      1.0  0.28847  0.71577  0.98901  1.0000
  H   H501      1.0  0.45990  0.52575  0.80948  1.0000
  H   H502      1.0  0.36986  0.68883  0.58951  1.0000
  C   C514      1.0  0.38908  0.64842  0.55180  1.0000
  H   H503      1.0  0.36369  0.61356  0.62207  1.0000
  C   C515      1.0  0.33145  0.72503  0.65766  1.0000
  H   H504      1.0  0.37902  0.62621  0.90410  1.0000
  C   C516      1.0  0.31747  0.73462  0.63667  1.0000
  H   H505      1.0  0.33959  0.66640  0.97566  1.0000
  H   H506      1.0  0.12916  0.65784  0.99734  1.0000
  C   C517      1.0  0.25134  0.66549  0.67328  1.0000
  C   C518      1.0  0.26059  0.64903  0.68646  1.0000
  C   C519      1.0  0.25489  0.64015  0.72033  1.0000
  C   C520      1.0  0.23998  0.64772  0.74114  1.0000
  C   C521      1.0  0.23135  0.66469  0.72893  1.0000
  C   C522      1.0  0.23706  0.67359  0.69516  1.0000
  H   H507      1.0  0.27159  0.64265  0.66972  1.0000
  H   H508      1.0  0.26166  0.62704  0.72980  1.0000
  H   H509      1.0  0.21994  0.67064  0.74496  1.0000
  H   H510      1.0  0.22990  0.68640  0.68529  1.0000
  S   S178      1.0  0.39570  0.50798  0.90157  1.0000
  C   C523      1.0  0.32262  0.72239  0.95983  1.0000
  H   H511      1.0  0.09665  0.55938  0.79715  1.0000
  C   C524      1.0  0.44166  0.52770  0.67681  1.0000
  C   C525      1.0  0.16401  0.63415  0.95195  1.0000
  C   C526      1.0  0.08447  0.60372  0.82814  1.0000
  C   C527      1.0  0.17424  0.72439  0.93318  1.0000
  C   C528      1.0  0.39814  0.50031  0.85330  1.0000
  H   H512      1.0  0.35525  0.58567  0.56458  1.0000
  H   H513      1.0  0.15968  0.58849  0.92830  1.0000
  H   H514      1.0  0.20464  0.70177  0.51634  1.0000
  H   H515      1.0  0.40078  0.51699  0.76130  1.0000
  H   H516      1.0  0.07478  0.50270  0.55943  1.0000
  C   C529      1.0  0.11919  0.52101  0.56674  1.0000
  C   C530      1.0  0.27957  0.71263  0.68316  1.0000
  S   S179      1.0  0.33066  0.61831  0.56730  1.0000
  C   C531      1.0  0.43847  0.51043  0.69458  1.0000
  S   S180      1.0  0.45602  0.54023  0.57021  1.0000
  H   H517      1.0  0.23731  0.68452  0.94861  1.0000
  H   H518      1.0  0.39889  0.52836  0.82926  1.0000
  C   C532      1.0  0.11967  0.53047  0.53143  1.0000
  H   H519      1.0  0.24202  0.71705  0.65311  1.0000
  H   H520      1.0  0.37232  0.62784  0.66160  1.0000
  H   H521      1.0  0.22307  0.71805  0.73237  1.0000
  H   H522      1.0  0.44927  0.55665  0.68575  1.0000
  C   C533      1.0  0.33900  0.60702  0.93030  1.0000
  H   H523      1.0  0.05053  0.60982  0.89024  1.0000
  S   S181      1.0  0.07461  0.54063  0.50932  1.0000
  H   H524      1.0  0.39753  0.64337  0.52810  1.0000
  Fe  Fe91      1.0  0.44193  0.54382  0.97193  1.0000
  H   H525      1.0  0.34913  0.72873  0.93708  1.0000
  C   C534      1.0  0.40048  0.50686  0.78467  1.0000
  C   C535      1.0  0.17066  0.72770  0.71959  1.0000
  C   C536      1.0  0.20193  0.73582  0.70535  1.0000
  C   C537      1.0  0.24097  0.73051  0.96708  1.0000
  C   C538      1.0  0.14166  0.61270  0.97201  1.0000
  H   H526      1.0  0.36392  0.59531  0.90561  1.0000
  N   N42       1.0  0.23721  0.71473  0.94563  1.0000
  S   S182      1.0  0.40011  0.60304  0.97368  1.0000
  N   N43       1.0  0.37098  0.64168  0.60722  1.0000
  C   C539      1.0  0.38230  0.63556  0.57827  1.0000
  C   C540      1.0  0.36681  0.66059  0.61174  1.0000
  H   H527      1.0  0.16589  0.73222  0.91208  1.0000
  C   C541      1.0  0.18024  0.73340  0.96700  1.0000
  C   C542      1.0  0.44659  0.54321  0.69939  1.0000
  C   C543      1.0  0.37352  0.67388  0.58610  1.0000
  H   H528      1.0  0.26014  0.71621  0.61815  1.0000
  H   H529      1.0  0.30230  0.70335  0.72015  1.0000
  H   H530      1.0  0.35803  0.66549  0.63499  1.0000
  H   H531      1.0  0.22239  0.70348  0.89751  1.0000
  H   H532      1.0  0.06673  0.62642  0.87553  1.0000
  C   C544      1.0  0.29226  0.71464  0.71359  1.0000
  C   C545      1.0  0.44791  0.54129  0.73965  1.0000
  Fe  Fe92      1.0  0.30118  0.68231  0.52603  1.0000
  C   C546      1.0  0.22542  0.71600  0.91446  1.0000
  C   C547      1.0  0.99964  0.49673  0.82861  1.0000
  C   C548      1.0  0.32960  0.65748  0.96000  1.0000
  H   H533      1.0  0.34938  0.72592  0.70783  1.0000
  H   H534      1.0  0.06692  0.55275  0.82792  1.0000
  H   H535      1.0  0.17919  0.59523  0.95797  1.0000
  S   S183      1.0  0.44055  0.53133  0.91243  1.0000
  C   C549      1.0  0.29218  0.73148  0.73482  1.0000
  S   S184      1.0  0.97687  0.51792  0.63178  1.0000
  H   H536      1.0  0.13659  0.59844  0.97335  1.0000
  H   H537      1.0  0.34932  0.63189  0.64156  1.0000
  H   H538      1.0  0.10789  0.59234  0.79730  1.0000
  C   C550      1.0  0.08861  0.57079  0.81038  1.0000
  N   N44       1.0  0.20666  0.65367  0.64636  1.0000
  C   C551      1.0  0.20799  0.66817  0.62044  1.0000
  C   C552      1.0  0.19474  0.65528  0.67640  1.0000
  C   C553      1.0  0.19762  0.68506  0.62497  1.0000
  C   C554      1.0  0.18411  0.67192  0.68167  1.0000
  C   C555      1.0  0.18564  0.68691  0.65587  1.0000
  C   C556      1.0  0.21770  0.63610  0.64149  1.0000
  H   H539      1.0  0.21752  0.66695  0.59676  1.0000
  H   H540      1.0  0.19378  0.64384  0.69709  1.0000
  H   H541      1.0  0.19902  0.69671  0.60495  1.0000
  H   H542      1.0  0.17492  0.67331  0.70595  1.0000
  H   H543      1.0  0.17763  0.69998  0.66000  1.0000
  H   H544      1.0  0.20965  0.62550  0.62535  1.0000
  H   H545      1.0  0.22206  0.63013  0.67010  1.0000
  C   C557      1.0  0.24644  0.69651  0.95506  1.0000
  C   C558      1.0  0.37392  0.59009  0.51787  1.0000
  H   H546      1.0  0.24341  0.73736  0.50908  1.0000
  H   H547      1.0  0.97190  0.56440  0.99991  1.0000
  Fe  Fe93      1.0  0.03085  0.56542  0.99861  1.0000
  C   C559      1.0  0.33448  0.73168  0.93509  1.0000
  H   H548      1.0  0.36277  0.65499  0.92893  1.0000
  C   C560      1.0  0.16852  0.60039  0.93688  1.0000
  H   H549      1.0  0.17527  0.60490  0.90998  1.0000
  S   S185      1.0  0.45389  0.56871  0.83712  1.0000
  C   C561      1.0  0.13119  0.62762  0.98811  1.0000
  H   H550      1.0  0.31226  0.72869  0.61009  1.0000
  H   H551      1.0  0.27968  0.69947  0.66693  1.0000
  C   C562      1.0  0.11938  0.50118  0.56720  1.0000
  H   H552      1.0  0.04740  0.62133  0.84374  1.0000
  N   N45       1.0  0.06843  0.59982  0.84602  1.0000
  C   C563      1.0  0.06195  0.58185  0.84529  1.0000
  Fe  Fe94      1.0  0.06295  0.53780  0.99044  1.0000
  H   H553      1.0  0.11945  0.54586  0.53049  1.0000
  H   H554      1.0  0.25023  0.69565  0.98631  1.0000
  H   H555      1.0  0.44032  0.52907  0.64558  1.0000
  C   C564      1.0  0.05770  0.61514  0.86454  1.0000
  H   H556      1.0  0.04898  0.57880  0.85851  1.0000
  H   H557      1.0  0.38578  0.62060  0.57481  1.0000
  H   H558      1.0  0.45146  0.55347  0.75719  1.0000
  H   H559      1.0  0.36846  0.58213  0.00039  1.0000
  N   N46       1.0  0.33882  0.64039  0.94443  1.0000
  H   H560      1.0  0.44198  0.50867  0.80947  1.0000
  H   H561      1.0  0.08961  0.61797  0.82857  1.0000
  H   H562      1.0  0.02397  0.52638  0.53497  1.0000
  H   H563      1.0  0.38166  0.57694  0.52269  1.0000
  H   H564      1.0  0.38955  0.67782  0.53514  1.0000
  C   C565      1.0  0.29666  0.73941  0.93020  1.0000
  C   C566      1.0  0.13729  0.64610  0.98556  1.0000
  C   C567      1.0  0.36506  0.62546  0.91432  1.0000
  C   C568      1.0  0.07200  0.56705  0.82777  1.0000
  S   S186      1.0  0.41140  0.54522  0.97974  1.0000
  H   H565      1.0  0.32814  0.71233  0.98083  1.0000
  H   H566      1.0  0.25921  0.69477  0.93818  1.0000
  C   C569      1.0  0.38020  0.60968  0.00015  1.0000
  C   C570      1.0  0.19598  0.70413  0.98722  1.0000
  H   H567      1.0  0.97310  0.57509  0.86861  1.0000
  C   C571      1.0  0.34881  0.61219  0.53576  1.0000
  H   H568      1.0  0.43763  0.49545  0.74825  1.0000
  C   C572      1.0  0.44576  0.52288  0.79906  1.0000
  S   S187      1.0  0.02695  0.56704  0.52611  1.0000
  H   H569      1.0  0.00684  0.50827  0.84226  1.0000
  N   N47       1.0  0.96992  0.56439  0.51291  1.0000
  C   C573      1.0  0.97009  0.51321  0.84187  1.0000
  H   H570      1.0  0.11814  0.62486  0.00139  1.0000
  N   N48       1.0  0.98085  0.49710  0.82626  1.0000
  H   H571      1.0  0.20651  0.73402  0.88129  1.0000
  Fe  Fe95      1.0  0.44722  0.54999  0.51028  1.0000
  H   H572      1.0  0.44092  0.50011  0.96946  1.0000
  H   H573      1.0  0.97520  0.53453  0.50885  1.0000
  H   H574      1.0  0.11899  0.49390  0.59477  1.0000
  H   H575      1.0  0.15886  0.66370  0.96555  1.0000
  H   H576      1.0  0.24902  0.73844  0.62998  1.0000
  H   H577      1.0  0.43435  0.49828  0.67752  1.0000
  H   H578      1.0  0.97879  0.52307  0.85863  1.0000
  C   C574      1.0  0.18301  0.73919  0.70044  1.0000
  C   C575      1.0  0.96716  0.54588  0.52224  1.0000
  H   H579      1.0  0.41686  0.49479  0.96790  1.0000
  H   H580      1.0  0.38798  0.63881  0.00475  1.0000
  H   H581      1.0  0.96332  0.52142  0.81790  1.0000
  H   H582      1.0  0.32471  0.71138  0.50671  1.0000
  Fe  Fe96      1.0  0.44073  0.94742  0.18772  1.0000
  S   S188      1.0  0.43530  0.92026  0.15643  1.0000
  H   H583      1.0  0.35175  0.75922  0.01428  1.0000
  C   C576      1.0  0.26134  0.74789  0.46572  1.0000
  C   C577      1.0  0.33194  0.79578  0.50234  1.0000
  C   C578      1.0  0.25893  0.75017  0.20436  1.0000
  S   S189      1.0  0.18892  0.80337  0.01871  1.0000
  Fe  Fe97      1.0  0.42550  0.90914  0.21332  1.0000
  S   S190      1.0  0.39890  0.89296  0.21169  1.0000
  H   H584      1.0  0.30200  0.76952  0.16562  1.0000
  S   S191      1.0  0.42842  0.93730  0.24260  1.0000
  Fe  Fe98      1.0  0.34518  0.82122  0.34320  1.0000
  S   S192      1.0  0.31778  0.82559  0.31319  1.0000
  S   S193      1.0  0.37021  0.83973  0.34430  1.0000
  Fe  Fe99      1.0  0.33409  0.78359  0.37843  1.0000
  S   S194      1.0  0.30621  0.78449  0.34990  1.0000
  H   H585      1.0  0.43176  0.97880  0.26411  1.0000
  Fe  Fe100     1.0  0.32090  0.79467  0.29771  1.0000
  S   S195      1.0  0.31216  0.78696  0.23683  1.0000
  Fe  Fe101     1.0  0.30539  0.81496  0.36796  1.0000
  S   S196      1.0  0.27930  0.82666  0.39468  1.0000
  S   S197      1.0  0.34908  0.79082  0.32444  1.0000
  S   S198      1.0  0.33243  0.81358  0.39965  1.0000
  Fe  Fe102     1.0  0.06165  0.90807  0.22710  1.0000
  S   S199      1.0  0.04980  0.93390  0.19732  1.0000
  S   S200      1.0  0.04793  0.89164  0.27369  1.0000
  Fe  Fe103     1.0  0.09868  0.91037  0.18851  1.0000
  S   S201      1.0  0.09006  0.93706  0.15638  1.0000
  S   S202      1.0  0.12743  0.89644  0.18875  1.0000
  Fe  Fe104     1.0  0.07675  0.94684  0.21146  1.0000
  C   C579      1.0  0.32133  0.76674  0.21330  1.0000
  Fe  Fe105     1.0  0.06369  0.92234  0.14466  1.0000
  S   S203      1.0  0.05044  0.92697  0.08581  1.0000
  S   S204      1.0  0.08779  0.92172  0.24509  1.0000
  S   S205      1.0  0.07314  0.89489  0.17287  1.0000
  Fe  Fe106     1.0  0.20075  0.77261  0.10823  1.0000
  S   S206      1.0  0.17201  0.77484  0.08326  1.0000
  Fe  Fe107     1.0  0.97182  0.92626  0.41255  1.0000
  Fe  Fe108     1.0  0.21622  0.79848  0.04811  1.0000
  C   C580      1.0  0.24884  0.77444  0.42877  1.0000
  C   C581      1.0  0.25711  0.82294  0.45724  1.0000
  Fe  Fe109     1.0  0.17701  0.80614  0.07819  1.0000
  S   S207      1.0  0.15218  0.82675  0.08176  1.0000
  C   C582      1.0  0.31328  0.76112  0.17816  1.0000
  C   C583      1.0  0.27147  0.75634  0.23225  1.0000
  S   S208      1.0  0.20496  0.80413  0.10750  1.0000
  S   S209      1.0  0.21390  0.76707  0.05089  1.0000
  H   H586      1.0  0.13256  0.83041  0.18582  1.0000
  H   H587      1.0  0.27611  0.76205  0.42138  1.0000
  C   C584      1.0  0.02865  0.90286  0.29498  1.0000
  C   C585      1.0  0.02393  0.89813  0.33283  1.0000
  C   C586      1.0  0.00855  0.90691  0.35024  1.0000
  C   C587      1.0  0.99765  0.92016  0.32949  1.0000
  C   C588      1.0  0.00226  0.92472  0.29154  1.0000
  C   C589      1.0  0.01779  0.91621  0.27443  1.0000
  H   H588      1.0  0.03226  0.88776  0.34880  1.0000
  H   H589      1.0  0.00507  0.90336  0.37956  1.0000
  H   H590      1.0  0.99383  0.93493  0.27538  1.0000
  H   H591      1.0  0.02108  0.91965  0.24504  1.0000
  C   C590      1.0  0.02980  0.91522  0.07829  1.0000
  C   C591      1.0  0.02436  0.90139  0.10412  1.0000
  C   C592      1.0  0.00817  0.89164  0.09681  1.0000
  C   C593      1.0  0.99729  0.89582  0.06390  1.0000
  H   H592      1.0  0.27461  0.78077  0.03091  1.0000
  C   C594      1.0  0.01883  0.91953  0.04555  1.0000
  H   H593      1.0  0.03275  0.89799  0.12943  1.0000
  H   H594      1.0  0.00414  0.88076  0.11661  1.0000
  H   H595      1.0  0.20925  0.85738  0.09325  1.0000
  H   H596      1.0  0.29947  0.74817  0.06291  1.0000
  C   C595      1.0  0.13428  0.87731  0.15834  1.0000
  C   C596      1.0  0.12262  0.87042  0.12943  1.0000
  C   C597      1.0  0.12843  0.85499  0.10624  1.0000
  C   C598      1.0  0.14579  0.84605  0.11212  1.0000
  C   C599      1.0  0.15743  0.85283  0.14123  1.0000
  C   C600      1.0  0.15173  0.86848  0.16402  1.0000
  H   H597      1.0  0.10917  0.87706  0.12474  1.0000
  H   H598      1.0  0.11934  0.84988  0.08372  1.0000
  H   H599      1.0  0.17082  0.84608  0.14612  1.0000
  H   H600      1.0  0.16084  0.87373  0.18635  1.0000
  C   C601      1.0  0.27331  0.81669  0.43914  1.0000
  N   N49       1.0  0.23281  0.77389  0.44873  1.0000
  H   H601      1.0  0.34645  0.81881  0.24908  1.0000
  S   S210      1.0  0.24330  0.80941  0.02816  1.0000
  Fe  Fe110     1.0  0.18572  0.77219  0.02589  1.0000
  C   C602      1.0  0.43372  0.96624  0.33637  1.0000
  H   H602      1.0  0.29676  0.79735  0.44254  1.0000
  C   C603      1.0  0.11959  0.85469  0.23535  1.0000
  H   H603      1.0  0.33328  0.74367  0.06433  1.0000
  H   H604      1.0  0.24850  0.83395  0.44384  1.0000
  C   C604      1.0  0.37696  0.85616  0.30900  1.0000
  C   C605      1.0  0.36612  0.86042  0.27620  1.0000
  C   C606      1.0  0.37273  0.87239  0.24740  1.0000
  C   C607      1.0  0.39024  0.88011  0.25098  1.0000
  C   C608      1.0  0.40084  0.87629  0.28431  1.0000
  C   C609      1.0  0.39419  0.86440  0.31318  1.0000
  H   H605      1.0  0.35275  0.85436  0.27285  1.0000
  H   H606      1.0  0.36439  0.87539  0.22182  1.0000
  H   H607      1.0  0.41431  0.88214  0.28745  1.0000
  H   H608      1.0  0.40263  0.86124  0.33854  1.0000
  S   S211      1.0  0.45341  0.89802  0.23291  1.0000
  H   H609      1.0  0.32226  0.82392  0.48643  1.0000
  H   H610      1.0  0.17675  0.85886  0.07164  1.0000
  C   C610      1.0  0.44402  0.97544  0.40014  1.0000
  C   C611      1.0  0.01645  0.96081  0.34928  1.0000
  H   H611      1.0  0.99443  0.91303  0.01275  1.0000
  H   H612      1.0  0.08153  0.94254  0.03756  1.0000
  H   H613      1.0  0.09507  0.96021  0.29087  1.0000
  H   H614      1.0  0.44399  0.97369  0.43127  1.0000
  H   H615      1.0  0.24750  0.75940  0.19497  1.0000
  C   C612      1.0  0.96789  0.84634  0.44879  1.0000
  H   H616      1.0  0.41153  0.82206  0.28627  1.0000
  S   S212      1.0  0.34408  0.76240  0.42330  1.0000
  C   C613      1.0  0.44541  0.98098  0.27805  1.0000
  Fe  Fe111     1.0  0.98070  0.90928  0.49182  1.0000
  C   C614      1.0  0.96645  0.85578  0.48429  1.0000
  C   C615      1.0  0.21937  0.85071  0.03648  1.0000
  H   H617      1.0  0.98500  0.97675  0.36565  1.0000
  H   H618      1.0  0.17276  0.75565  0.16444  1.0000
  H   H619      1.0  0.03508  0.97208  0.24860  1.0000
  C   C616      1.0  0.43523  0.93347  0.05287  1.0000
  C   C617      1.0  0.08168  0.85738  0.24026  1.0000
  N   N50       1.0  0.29892  0.76607  0.01336  1.0000
  H   H620      1.0  0.39884  0.84949  0.17798  1.0000
  C   C618      1.0  0.08976  0.97384  0.30074  1.0000
  H   H621      1.0  0.34213  0.76005  0.25659  1.0000
  H   H622      1.0  0.10370  0.97197  0.35625  1.0000
  C   C619      1.0  0.21794  0.78799  0.44134  1.0000
  H   H623      1.0  0.25074  0.78530  0.40716  1.0000
  H   H624      1.0  0.42042  0.84337  0.23302  1.0000
  C   C620      1.0  0.02995  0.96891  0.27700  1.0000
  C   C621      1.0  0.33695  0.76148  0.01458  1.0000
  C   C622      1.0  0.45476  0.97254  0.10300  1.0000
  C   C623      1.0  0.27951  0.79488  0.49230  1.0000
  C   C624      1.0  0.03378  0.95355  0.33890  1.0000
  H   H625      1.0  0.04984  0.98408  0.15687  1.0000
  N   N51       1.0  0.10899  0.84286  0.21371  1.0000
  S   S213      1.0  0.98955  0.93558  0.46217  1.0000
  S   S214      1.0  0.07295  0.97769  0.22883  1.0000
  C   C625      1.0  0.09026  0.84405  0.21595  1.0000
  N   N52       1.0  0.00618  0.97191  0.32409  1.0000
  H   H626      1.0  0.00438  0.98445  0.26814  1.0000
  C   C626      1.0  0.24500  0.74756  0.48610  1.0000
  C   C627      1.0  0.00262  0.90983  0.03834  1.0000
  H   H627      1.0  0.05392  0.95204  0.29395  1.0000
  C   C628      1.0  0.01265  0.97587  0.28824  1.0000
  N   N53       1.0  0.44444  0.97956  0.32024  1.0000
  C   C629      1.0  0.30747  0.75522  0.04150  1.0000
  H   H628      1.0  0.05982  0.95226  0.01981  1.0000
  C   C630      1.0  0.33588  0.75585  0.22942  1.0000
  H   H629      1.0  0.08183  0.83475  0.19869  1.0000
  H   H630      1.0  0.42521  0.95307  0.38909  1.0000
  H   H631      1.0  0.34876  0.81111  0.19970  1.0000
  H   H632      1.0  0.04173  0.94444  0.35858  1.0000
  H   H633      1.0  0.11988  0.87823  0.27538  1.0000
  H   H634      1.0  0.11556  0.81408  0.20035  1.0000
  C   C631      1.0  0.32659  0.75266  0.04246  1.0000
  H   H635      1.0  0.21932  0.79499  0.41285  1.0000
  C   C632      1.0  0.45063  0.92118  0.05230  1.0000
  H   H636      1.0  0.27011  0.77054  0.24426  1.0000
  H   H637      1.0  0.42195  0.95825  0.02724  1.0000
  H   H638      1.0  0.08590  0.88023  0.28059  1.0000
  C   C633      1.0  0.20568  0.85501  0.06308  1.0000
  H   H639      1.0  0.35641  0.79569  0.23792  1.0000
  N   N54       1.0  0.37370  0.81898  0.22877  1.0000
  C   C634      1.0  0.38548  0.81570  0.25945  1.0000
  C   C635      1.0  0.37841  0.83080  0.19951  1.0000
  C   C636      1.0  0.40260  0.82408  0.26108  1.0000
  C   C637      1.0  0.39544  0.83943  0.20022  1.0000
  C   C638      1.0  0.40757  0.83604  0.23126  1.0000
  C   C639      1.0  0.35547  0.81078  0.22880  1.0000
  H   H640      1.0  0.38140  0.80717  0.28367  1.0000
  S   S215      1.0  0.17758  0.76636  0.50427  1.0000
  S   S216      1.0  0.97689  0.88362  0.05610  1.0000
  H   H641      1.0  0.42474  0.93174  0.07434  1.0000
  C   C640      1.0  0.07853  0.98509  0.27624  1.0000
  H   H642      1.0  0.23367  0.84961  0.04583  1.0000
  H   H643      1.0  0.97478  0.90226  0.13779  1.0000
  H   H644      1.0  0.01102  0.95702  0.37712  1.0000
  C   C641      1.0  0.28439  0.80246  0.45655  1.0000
  H   H645      1.0  0.13442  0.85407  0.23318  1.0000
  H   H646      1.0  0.11147  0.82940  0.15891  1.0000
  H   H647      1.0  0.98130  0.84284  0.43706  1.0000
  S   S217      1.0  0.97855  0.93184  0.35027  1.0000
  C   C642      1.0  0.25219  0.81529  0.49295  1.0000
  C   C643      1.0  0.11757  0.82846  0.18858  1.0000
  C   C644      1.0  0.11146  0.86833  0.25959  1.0000
  H   H648      1.0  0.06681  0.85849  0.24175  1.0000
  H   H649      1.0  0.21822  0.76058  0.49329  1.0000
  C   C645      1.0  0.45510  0.99072  0.34324  1.0000
  H   H650      1.0  0.29579  0.74922  0.26564  1.0000
  C   C646      1.0  0.09239  0.86961  0.26211  1.0000
  S   S218      1.0  0.43354  0.97726  0.16747  1.0000
  H   H651      1.0  0.45530  0.97000  0.26708  1.0000
  H   H652      1.0  0.33997  0.79360  0.47647  1.0000
  C   C647      1.0  0.04056  0.95769  0.30254  1.0000
  C   C648      1.0  0.09468  0.98055  0.33771  1.0000
  S   S219      1.0  0.21249  0.75363  0.15582  1.0000
  C   C649      1.0  0.45488  0.98900  0.38351  1.0000
  H   H653      1.0  0.45913  0.95904  0.11526  1.0000
  H   H654      1.0  0.36880  0.83412  0.17605  1.0000
  C   C650      1.0  0.07428  0.94883  0.01188  1.0000
  C   C651      1.0  0.43360  0.94828  0.02628  1.0000
  C   C652      1.0  0.44218  0.98420  0.12264  1.0000
  C   C653      1.0  0.18730  0.85577  0.05068  1.0000
  C   C654      1.0  0.23082  0.76075  0.47716  1.0000
  H   H655      1.0  0.02285  0.93038  0.02570  1.0000
  C   C655      1.0  0.19768  0.74265  0.18785  1.0000
  H   H656      1.0  0.20435  0.78122  0.44151  1.0000
  C   C656      1.0  0.98779  0.97903  0.33454  1.0000
  C   C657      1.0  0.43338  0.96395  0.37650  1.0000
  H   H657      1.0  0.21809  0.79904  0.46428  1.0000
  H   H658      1.0  0.42585  0.95684  0.31819  1.0000
  H   H659      1.0  0.16941  0.74749  0.43293  1.0000
  C   C658      1.0  0.26328  0.76135  0.43674  1.0000
  Fe  Fe112     1.0  0.45717  0.92714  0.25801  1.0000
  H   H660      1.0  0.15426  0.85949  0.02175  1.0000
  C   C659      1.0  0.46162  0.97834  0.06744  1.0000
  H   H661      1.0  0.45230  0.90985  0.07343  1.0000
  S   S220      1.0  0.96533  0.89842  0.43962  1.0000
  H   H662      1.0  0.97891  0.85931  0.49991  1.0000
  C   C660      1.0  0.31942  0.74444  0.15964  1.0000
  C   C661      1.0  0.32928  0.74437  0.43605  1.0000
  N   N55       1.0  0.18268  0.85231  0.01285  1.0000
  C   C662      1.0  0.17865  0.74581  0.18551  1.0000
  C   C663      1.0  0.18294  0.74312  0.48825  1.0000
  H   H663      1.0  0.31116  0.74784  0.38661  1.0000
  S   S221      1.0  0.43278  0.99071  0.50072  1.0000
  H   H664      1.0  0.97726  0.97139  0.31752  1.0000
  C   C664      1.0  0.28606  0.74421  0.24412  1.0000
  H   H665      1.0  0.27239  0.75551  0.02376  1.0000
  H   H666      1.0  0.02247  0.98178  0.11324  1.0000
  C   C665      1.0  0.27886  0.76842  0.01273  1.0000
  H   H667      1.0  0.28814  0.78388  0.50561  1.0000
  Fe  Fe113     1.0  0.96360  0.94906  0.48535  1.0000
  H   H668      1.0  0.96331  0.92194  0.06524  1.0000
  S   S222      1.0  0.96746  0.97922  0.50591  1.0000
  Fe  Fe114     1.0  0.43515  0.93573  0.69332  1.0000
  S   S223      1.0  0.43690  0.91003  0.65505  1.0000
  S   S224      1.0  0.42574  0.96526  0.67509  1.0000
  Fe  Fe115     1.0  0.45009  0.91401  0.76366  1.0000
  S   S225      1.0  0.45277  0.88664  0.73116  1.0000
  H   H669      1.0  0.39609  0.94357  0.55724  1.0000
  C   C666      1.0  0.08920  0.92402  0.92126  1.0000
  Fe  Fe116     1.0  0.42506  0.89471  0.70566  1.0000
  S   S226      1.0  0.40357  0.87258  0.69488  1.0000
  C   C667      1.0  0.44753  0.95070  0.99957  1.0000
  S   S227      1.0  0.42135  0.92091  0.74196  1.0000
  Fe  Fe117     1.0  0.32987  0.82036  0.81412  1.0000
  S   S228      1.0  0.30306  0.81867  0.78113  1.0000
  S   S229      1.0  0.34676  0.84683  0.82040  1.0000
  Fe  Fe118     1.0  0.32850  0.77954  0.84113  1.0000
  S   S230      1.0  0.30224  0.77423  0.80897  1.0000
  C   C668      1.0  0.21456  0.84719  0.99797  1.0000
  Fe  Fe119     1.0  0.31437  0.79046  0.76081  1.0000
  S   S231      1.0  0.30815  0.78233  0.69895  1.0000
  Fe  Fe120     1.0  0.29288  0.80256  0.83210  1.0000
  S   S232      1.0  0.26313  0.80341  0.85053  1.0000
  S   S233      1.0  0.34189  0.79309  0.79042  1.0000
  S   S234      1.0  0.31852  0.80691  0.86754  1.0000
  Fe  Fe121     1.0  0.06161  0.89907  0.78593  1.0000
  S   S235      1.0  0.05980  0.92920  0.76561  1.0000
  S   S236      1.0  0.04774  0.88881  0.83957  1.0000
  Fe  Fe122     1.0  0.09054  0.88701  0.72642  1.0000
  S   S237      1.0  0.09156  0.91655  0.70263  1.0000
  S   S238      1.0  0.10282  0.86006  0.69897  1.0000
  Fe  Fe123     1.0  0.09043  0.92651  0.76451  1.0000
  S   S239      1.0  0.10625  0.95137  0.78699  1.0000
  Fe  Fe124     1.0  0.06084  0.91696  0.70562  1.0000
  S   S240      1.0  0.04568  0.93194  0.65638  1.0000
  S   S241      1.0  0.09243  0.89691  0.78836  1.0000
  S   S242      1.0  0.05953  0.88689  0.72595  1.0000
  Fe  Fe125     1.0  0.20859  0.77086  0.63756  1.0000
  S   S243      1.0  0.18070  0.78201  0.61752  1.0000
  H   H670      1.0  0.38328  0.81174  0.77902  1.0000
  Fe  Fe126     1.0  0.22930  0.79294  0.57736  1.0000
  C   C669      1.0  0.99065  0.96422  0.60502  1.0000
  C   C670      1.0  0.00225  0.85627  0.82805  1.0000
  Fe  Fe127     1.0  0.19416  0.81023  0.61435  1.0000
  S   S244      1.0  0.18309  0.83856  0.63824  1.0000
  Fe  Fe128     1.0  0.19197  0.77740  0.55761  1.0000
  H   H671      1.0  0.13850  0.89892  0.60560  1.0000
  S   S245      1.0  0.22143  0.79921  0.63858  1.0000
  S   S246      1.0  0.21838  0.76376  0.57830  1.0000
  C   C671      1.0  0.26350  0.80138  0.51074  1.0000
  S   S247      1.0  0.07691  0.99116  0.93962  1.0000
  C   C672      1.0  0.02542  0.89758  0.84928  1.0000
  C   C673      1.0  0.01703  0.89223  0.88359  1.0000
  C   C674      1.0  0.99851  0.89719  0.89008  1.0000
  C   C675      1.0  0.98825  0.90727  0.86195  1.0000
  C   C676      1.0  0.99685  0.91328  0.82838  1.0000
  C   C677      1.0  0.01543  0.90854  0.82211  1.0000
  H   H672      1.0  0.02471  0.88374  0.90470  1.0000
  H   H673      1.0  0.99200  0.89261  0.91616  1.0000
  H   H674      1.0  0.98895  0.92116  0.80664  1.0000
  H   H675      1.0  0.02181  0.91273  0.79562  1.0000
  C   C678      1.0  0.03337  0.91937  0.62091  1.0000
  C   C679      1.0  0.02960  0.90019  0.62517  1.0000
  C   C680      1.0  0.01901  0.89098  0.59678  1.0000
  C   C681      1.0  0.01189  0.90103  0.56455  1.0000
  C   C682      1.0  0.01585  0.92012  0.56026  1.0000
  C   C683      1.0  0.02683  0.92912  0.58796  1.0000
  H   H676      1.0  0.03463  0.89253  0.65043  1.0000
  H   H677      1.0  0.01605  0.87617  0.60011  1.0000
  H   H678      1.0  0.21242  0.76260  0.92128  1.0000
  H   H679      1.0  0.03040  0.94364  0.58351  1.0000
  C   C684      1.0  0.12560  0.85408  0.68484  1.0000
  C   C685      1.0  0.13970  0.86703  0.68693  1.0000
  C   C686      1.0  0.15726  0.86197  0.67287  1.0000
  C   C687      1.0  0.16093  0.84394  0.65669  1.0000
  C   C688      1.0  0.14691  0.83090  0.65519  1.0000
  C   C689      1.0  0.12938  0.83595  0.66925  1.0000
  H   H680      1.0  0.13702  0.88101  0.69889  1.0000
  H   H681      1.0  0.16803  0.87215  0.67429  1.0000
  H   H682      1.0  0.14951  0.81699  0.64283  1.0000
  H   H683      1.0  0.11857  0.82582  0.66757  1.0000
  C   C690      1.0  0.25809  0.80430  0.90023  1.0000
  C   C691      1.0  0.27116  0.80979  0.92776  1.0000
  H   H684      1.0  0.30369  0.82836  0.54515  1.0000
  H   H685      1.0  0.37598  0.81778  0.82643  1.0000
  C   C692      1.0  0.23580  0.80115  0.95154  1.0000
  C   C693      1.0  0.24041  0.79996  0.91226  1.0000
  H   H686      1.0  0.28472  0.81342  0.91870  1.0000
  H   H687      1.0  0.23137  0.82020  0.74397  1.0000
  C   C694      1.0  0.08466  0.98100  0.89602  1.0000
  H   H688      1.0  0.23021  0.79578  0.89107  1.0000
  C   C695      1.0  0.36109  0.85489  0.78345  1.0000
  C   C696      1.0  0.36324  0.84492  0.74875  1.0000
  C   C697      1.0  0.37599  0.85080  0.72149  1.0000
  C   C698      1.0  0.38673  0.86664  0.72868  1.0000
  C   C699      1.0  0.38425  0.87692  0.76292  1.0000
  C   C700      1.0  0.37143  0.87108  0.79010  1.0000
  H   H689      1.0  0.35526  0.83252  0.74314  1.0000
  H   H690      1.0  0.37773  0.84284  0.69494  1.0000
  H   H691      1.0  0.39236  0.88919  0.76875  1.0000
  H   H692      1.0  0.36977  0.87894  0.81678  1.0000
  C   C701      1.0  0.00640  0.87103  0.76613  1.0000
  C   C702      1.0  0.07634  0.96469  0.88186  1.0000
  C   C703      1.0  0.08292  0.95547  0.84857  1.0000
  C   C704      1.0  0.09787  0.96255  0.82910  1.0000
  H   H693      1.0  0.24023  0.77066  0.75805  1.0000
  H   H694      1.0  0.29250  0.79079  0.60961  1.0000
  H   H695      1.0  0.06485  0.95902  0.89689  1.0000
  H   H696      1.0  0.07656  0.94275  0.83829  1.0000
  S   S248      1.0  0.17479  0.75759  0.97303  1.0000
  C   C705      1.0  0.43570  0.96521  0.56003  1.0000
  C   C706      1.0  0.43449  0.95938  0.59867  1.0000
  C   C707      1.0  0.42907  0.97241  0.62708  1.0000
  C   C708      1.0  0.20318  0.81942  0.72505  1.0000
  H   H697      1.0  0.99280  0.95123  0.62286  1.0000
  H   H698      1.0  0.43742  0.94473  0.60623  1.0000
  H   H699      1.0  0.09814  0.94799  0.95413  1.0000
  C   C709      1.0  0.30901  0.77520  0.98660  1.0000
  H   H700      1.0  0.98086  0.85891  0.88894  1.0000
  S   S249      1.0  0.45932  0.91637  0.82587  1.0000
  C   C710      1.0  0.98813  0.87761  0.76659  1.0000
  H   H701      1.0  0.43961  0.95499  0.53803  1.0000
  C   C711      1.0  0.07714  0.88612  0.61886  1.0000
  H   H702      1.0  0.01839  0.96556  0.65625  1.0000
  H   H703      1.0  0.10647  0.90811  0.62174  1.0000
  H   H704      1.0  0.23498  0.76042  0.97586  1.0000
  C   C712      1.0  0.38452  0.96699  0.61325  1.0000
  H   H705      1.0  0.27971  0.75941  0.74090  1.0000
  H   H706      1.0  0.41192  0.82402  0.75421  1.0000
  C   C713      1.0  0.32211  0.81283  0.50809  1.0000
  C   C714      1.0  0.21980  0.74930  0.92740  1.0000
  C   C715      1.0  0.21938  0.81154  0.74150  1.0000
  C   C716      1.0  0.12772  0.88879  0.60221  1.0000
  H   H707      1.0  0.32052  0.77326  0.58446  1.0000
  C   C717      1.0  0.30852  0.74891  0.90598  1.0000
  C   C718      1.0  0.41186  0.85899  0.84006  1.0000
  H   H708      1.0  0.44655  0.96275  0.98010  1.0000
  S   S250      1.0  0.34258  0.75756  0.87950  1.0000
  C   C719      1.0  0.97726  0.87341  0.79819  1.0000
  H   H709      1.0  0.12142  0.84272  0.57850  1.0000
  H   H710      1.0  0.98522  0.95951  0.57641  1.0000
  C   C720      1.0  0.31163  0.81524  0.54137  1.0000
  H   H711      1.0  0.07512  0.90163  0.62380  1.0000
  H   H712      1.0  0.27349  0.77073  0.98277  1.0000
  H   H713      1.0  0.17665  0.78092  0.73164  1.0000
  H   H714      1.0  0.43259  0.85102  0.75404  1.0000
  N   N56       1.0  0.98443  0.86302  0.82855  1.0000
  C   C721      1.0  0.26645  0.81134  0.96692  1.0000
  H   H715      1.0  0.08958  0.85231  0.59566  1.0000
  H   H716      1.0  0.30920  0.80699  0.62819  1.0000
  H   H717      1.0  0.30299  0.75939  0.88592  1.0000
  H   H718      1.0  0.22513  0.84329  0.97742  1.0000
  H   H719      1.0  0.41142  0.86905  0.86382  1.0000
  H   H720      1.0  0.98017  0.97374  0.61869  1.0000
  C   C722      1.0  0.07624  0.90998  0.91792  1.0000
  H   H721      1.0  0.33691  0.75710  0.73079  1.0000
  C   C723      1.0  0.06268  0.92124  0.97723  1.0000
  C   C724      1.0  0.97284  0.85856  0.86131  1.0000
  H   H722      1.0  0.01519  0.87469  0.74246  1.0000
  H   H723      1.0  0.27650  0.81605  0.98793  1.0000
  C   C725      1.0  0.20492  0.78230  0.75104  1.0000
  H   H724      1.0  0.25754  0.75516  0.68696  1.0000
  C   C726      1.0  0.23711  0.78484  0.77089  1.0000
  C   C727      1.0  0.33131  0.78145  0.52989  1.0000
  C   C728      1.0  0.40020  0.84361  0.83928  1.0000
  H   H725      1.0  0.39216  0.97331  0.58919  1.0000
  H   H726      1.0  0.29938  0.75931  0.63360  1.0000
  H   H727      1.0  0.23565  0.78340  0.80266  1.0000
  C   C729      1.0  0.33146  0.75086  0.70457  1.0000
  H   H728      1.0  0.17789  0.75075  0.68240  1.0000
  C   C730      1.0  0.01076  0.98434  0.56802  1.0000
  H   H729      1.0  0.39066  0.84194  0.86266  1.0000
  H   H730      1.0  0.17518  0.81426  0.70826  1.0000
  C   C731      1.0  0.31746  0.76039  0.68347  1.0000
  H   H731      1.0  0.28948  0.81534  0.59950  1.0000
  C   C732      1.0  0.06294  0.90848  0.94615  1.0000
  C   C733      1.0  0.27951  0.74606  0.72534  1.0000
  S   S251      1.0  0.99823  0.88956  0.52970  1.0000
  H   H732      1.0  0.11760  0.98461  0.82800  1.0000
  H   H733      1.0  0.40067  0.90868  0.56092  1.0000
  N   N57       1.0  0.09605  0.88092  0.60831  1.0000
  C   C734      1.0  0.10958  0.89385  0.61149  1.0000
  H   H734      1.0  0.05442  0.97812  0.80168  1.0000
  C   C735      1.0  0.11811  0.85725  0.58683  1.0000
  H   H735      1.0  0.03772  0.98364  0.85873  1.0000
  C   C736      1.0  0.10015  0.86276  0.59658  1.0000
  C   C737      1.0  0.38838  0.81491  0.80874  1.0000
  H   H736      1.0  0.01075  0.92788  0.53520  1.0000
  H   H737      1.0  0.07646  0.90031  0.89343  1.0000
  H   H738      1.0  0.07365  0.87867  0.64586  1.0000
  N   N58       1.0  0.46260  0.93860  0.99926  1.0000
  C   C738      1.0  0.08836  0.93674  0.95238  1.0000
  H   H739      1.0  0.05285  0.89755  0.94384  1.0000
  S   S252      1.0  0.20341  0.80647  0.55267  1.0000
  H   H740      1.0  0.98258  0.88640  0.74322  1.0000
  C   C739      1.0  0.41202  0.83361  0.77875  1.0000
  C   C740      1.0  0.01352  0.86024  0.79697  1.0000
  H   H741      1.0  0.16108  0.85880  0.97210  1.0000
  C   C741      1.0  0.13196  0.87036  0.58974  1.0000
  C   C742      1.0  0.30009  0.80376  0.60307  1.0000
  H   H742      1.0  0.09952  0.92540  0.89928  1.0000
  H   H743      1.0  0.04761  0.98185  0.64941  1.0000
  H   H744      1.0  0.43260  0.87369  0.80933  1.0000
  C   C743      1.0  0.03725  0.98285  0.62653  1.0000
  H   H745      1.0  0.06736  0.88211  0.59547  1.0000
  N   N59       1.0  0.31094  0.80102  0.56810  1.0000
  S   S253      1.0  0.21795  0.75056  0.68456  1.0000
  H   H746      1.0  0.96704  0.84433  0.85738  1.0000
  H   H747      1.0  0.39597  0.80225  0.82054  1.0000
  H   H748      1.0  0.30225  0.78382  0.96427  1.0000
  N   N60       1.0  0.38844  0.94653  0.61629  1.0000
  C   C744      1.0  0.39372  0.93640  0.58432  1.0000
  C   C745      1.0  0.38568  0.93750  0.65056  1.0000
  C   C746      1.0  0.39628  0.91668  0.58615  1.0000
  C   C747      1.0  0.38795  0.91778  0.65331  1.0000
  C   C748      1.0  0.39319  0.90733  0.62080  1.0000
  C   C749      1.0  0.10604  0.97904  0.84295  1.0000
  H   H749      1.0  0.20552  0.76768  0.76078  1.0000
  H   H750      1.0  0.38179  0.94556  0.67606  1.0000
  N   N61       1.0  0.40031  0.83125  0.80872  1.0000
  H   H751      1.0  0.38583  0.91061  0.68053  1.0000
  H   H752      1.0  0.39518  0.89204  0.62272  1.0000
  C   C750      1.0  0.32746  0.74507  0.90832  1.0000
  C   C751      1.0  0.42373  0.86161  0.80946  1.0000
  H   H753      1.0  0.22212  0.79786  0.96049  1.0000
  N   N62       1.0  0.00782  0.97419  0.60085  1.0000
  H   H754      1.0  0.33603  0.77943  0.96412  1.0000
  H   H755      1.0  0.24911  0.79381  0.76590  1.0000
  H   H756      1.0  0.38888  0.97437  0.64019  1.0000
  H   H757      1.0  0.36959  0.96976  0.60819  1.0000
  N   N63       1.0  0.22013  0.79310  0.75377  1.0000
  C   C752      1.0  0.42383  0.84884  0.77858  1.0000
  C   C753      1.0  0.19603  0.84798  0.98660  1.0000
  H   H758      1.0  0.00803  0.84827  0.85233  1.0000
  C   C754      1.0  0.18855  0.78970  0.73458  1.0000
  C   C755      1.0  0.42543  0.99142  0.61684  1.0000
  H   H759      1.0  0.00053  0.98498  0.54492  1.0000
  H   H760      1.0  0.08055  0.96248  0.00444  1.0000
  S   S254      1.0  0.96432  0.91055  0.86579  1.0000
  C   C756      1.0  0.18773  0.80837  0.72146  1.0000
  C   C757      1.0  0.31044  0.75219  0.64963  1.0000
  C   C758      1.0  0.32082  0.78440  0.56300  1.0000
  S   S255      1.0  0.25859  0.79244  0.55673  1.0000
  C   C759      1.0  0.24878  0.80702  0.97891  1.0000
  H   H761      1.0  0.20266  0.83390  0.71443  1.0000
  H   H762      1.0  0.14608  0.86606  0.58363  1.0000
  N   N64       1.0  0.07499  0.93544  0.97944  1.0000
  H   H763      1.0  0.02789  0.85562  0.79754  1.0000
  C   C760      1.0  0.32815  0.77291  0.98657  1.0000
  C   C761      1.0  0.43190  0.98417  0.54971  1.0000
  H   H764      1.0  0.33887  0.76813  0.52540  1.0000
  C   C762      1.0  0.02065  0.97368  0.63025  1.0000
  H   H765      1.0  0.07952  0.98652  0.75859  1.0000
  H   H766      1.0  0.15893  0.83701  0.99907  1.0000
  H   H767      1.0  0.19236  0.84464  0.95689  1.0000
  C   C763      1.0  0.23229  0.74800  0.95838  1.0000
  C   C764      1.0  0.09938  0.98833  0.87618  1.0000
  C   C765      1.0  0.26716  0.74364  0.69448  1.0000
  H   H768      1.0  0.05252  0.91980  0.99947  1.0000
  H   H769      1.0  0.28204  0.74251  0.92825  1.0000
  C   C766      1.0  0.16331  0.85195  0.00072  1.0000
  C   C767      1.0  0.06047  0.99188  0.80484  1.0000
  H   H770      1.0  0.23993  0.82053  0.50718  1.0000
  C   C768      1.0  0.68400  0.21814  0.46156  1.0000
  Fe  Fe129     1.0  0.71783  0.16958  0.07505  1.0000
  S   S256      1.0  0.69128  0.16366  0.04404  1.0000
  S   S257      1.0  0.74685  0.16912  0.05201  1.0000
  Fe  Fe130     1.0  0.69834  0.18204  0.14882  1.0000
  S   S258      1.0  0.67016  0.17770  0.12373  1.0000
  S   S259      1.0  0.70508  0.19227  0.20912  1.0000
  Fe  Fe131     1.0  0.68237  0.15056  0.10001  1.0000
  S   S260      1.0  0.66674  0.12309  0.09897  1.0000
  Fe  Fe132     1.0  0.68122  0.19105  0.07035  1.0000
  H   H771      1.0  0.56654  0.08846  0.13021  1.0000
  S   S261      1.0  0.71007  0.15395  0.12870  1.0000
  S   S262      1.0  0.70821  0.19795  0.09784  1.0000
  Fe  Fe133     1.0  0.56284  0.05643  0.18524  1.0000
  S   S263      1.0  0.56329  0.08497  0.21433  1.0000
  S   S264      1.0  0.55463  0.04932  0.12368  1.0000
  Fe  Fe134     1.0  0.58170  0.03614  0.25329  1.0000
  S   S265      1.0  0.58437  0.06293  0.28729  1.0000
  C   C769      1.0  0.50891  0.01073  0.06767  1.0000
  Fe  Fe135     1.0  0.55531  0.06918  0.26760  1.0000
  S   S266      1.0  0.53701  0.08143  0.31387  1.0000
  Fe  Fe136     1.0  0.59230  0.07657  0.23147  1.0000
  S   S267      1.0  0.61403  0.09898  0.23374  1.0000
  S   S268      1.0  0.55210  0.04140  0.23692  1.0000
  S   S269      1.0  0.59249  0.04901  0.19910  1.0000
  C   C770      1.0  0.48410  0.03326  0.08472  1.0000
  Fe  Fe137     1.0  0.96236  0.03193  0.22162  1.0000
  Fe  Fe138     1.0  0.92978  0.05671  0.19380  1.0000
  S   S270      1.0  0.93196  0.03106  0.23274  1.0000
  S   S271      1.0  0.91002  0.08256  0.19598  1.0000
  H   H772      1.0  0.46389  0.00100  0.33051  1.0000
  Fe  Fe139     1.0  0.93056  0.01412  0.17758  1.0000
  H   H773      1.0  0.89181  0.00467  0.22651  1.0000
  C   C771      1.0  0.52807  0.01585  0.36702  1.0000
  S   S272      1.0  0.92606  0.03937  0.13946  1.0000
  Fe  Fe140     1.0  0.81056  0.16984  0.27578  1.0000
  S   S273      1.0  0.83951  0.16827  0.29967  1.0000
  S   S274      1.0  0.79857  0.18336  0.22141  1.0000
  Fe  Fe141     1.0  0.79434  0.15229  0.34791  1.0000
  S   S275      1.0  0.82191  0.14890  0.37734  1.0000
  S   S276      1.0  0.76549  0.14927  0.37000  1.0000
  Fe  Fe142     1.0  0.82670  0.17817  0.35537  1.0000
  S   S277      1.0  0.83815  0.20096  0.39406  1.0000
  Fe  Fe143     1.0  0.83250  0.13893  0.31922  1.0000
  S   S278      1.0  0.85150  0.11238  0.31959  1.0000
  S   S279      1.0  0.79863  0.18212  0.32954  1.0000
  S   S280      1.0  0.80415  0.13994  0.29156  1.0000
  C   C772      1.0  0.89482  0.09138  0.23200  1.0000
  C   C773      1.0  0.89386  0.08308  0.26855  1.0000
  C   C774      1.0  0.88066  0.08984  0.29512  1.0000
  C   C775      1.0  0.86848  0.10513  0.28575  1.0000
  C   C776      1.0  0.86968  0.11362  0.24945  1.0000
  C   C777      1.0  0.88274  0.10674  0.22276  1.0000
  H   H774      1.0  0.90311  0.07133  0.27619  1.0000
  H   H775      1.0  0.87992  0.08324  0.32320  1.0000
  H   H776      1.0  0.86043  0.12538  0.24180  1.0000
  H   H777      1.0  0.88342  0.11334  0.19465  1.0000
  H   H778      1.0  0.77940  0.17354  0.00766  1.0000
  C   C778      1.0  0.63654  0.03727  0.23741  1.0000
  H   H779      1.0  0.92004  0.00303  0.09468  1.0000
  H   H780      1.0  0.62116  0.08257  0.31259  1.0000
  H   H781      1.0  0.78655  0.16823  0.08896  1.0000
  H   H782      1.0  0.58875  0.02888  0.34394  1.0000
  H   H783      1.0  0.78511  0.22851  0.01852  1.0000
  H   H784      1.0  0.79662  0.17239  0.43285  1.0000
  C   C779      1.0  0.77246  0.13954  0.44682  1.0000
  C   C780      1.0  0.76009  0.14753  0.41951  1.0000
  C   C781      1.0  0.74260  0.15379  0.43145  1.0000
  C   C782      1.0  0.73747  0.15216  0.47025  1.0000
  C   C783      1.0  0.53914  0.01413  0.33464  1.0000
  H   H785      1.0  0.78582  0.13428  0.43776  1.0000
  H   H786      1.0  0.73288  0.15985  0.41055  1.0000
  H   H787      1.0  0.47038  0.03312  0.09814  1.0000
  C   C784      1.0  0.65314  0.11589  0.13785  1.0000
  C   C785      1.0  0.65113  0.12696  0.17117  1.0000
  C   C786      1.0  0.63931  0.12138  0.20050  1.0000
  C   C787      1.0  0.62916  0.10488  0.19654  1.0000
  C   C788      1.0  0.63134  0.09364  0.16349  1.0000
  C   C789      1.0  0.64343  0.09905  0.13446  1.0000
  H   H788      1.0  0.65855  0.13992  0.17418  1.0000
  H   H789      1.0  0.63780  0.13010  0.22610  1.0000
  H   H790      1.0  0.62369  0.08084  0.16020  1.0000
  H   H791      1.0  0.64505  0.09032  0.10890  1.0000
  C   C790      1.0  0.48688  0.04946  0.35179  1.0000
  C   C791      1.0  0.49540  0.04470  0.31689  1.0000
  C   C792      1.0  0.51095  0.05425  0.30521  1.0000
  C   C793      1.0  0.51795  0.06871  0.32827  1.0000
  C   C794      1.0  0.50945  0.07340  0.36326  1.0000
  C   C795      1.0  0.49402  0.06370  0.37518  1.0000
  H   H792      1.0  0.48986  0.03373  0.29862  1.0000
  H   H793      1.0  0.51724  0.05074  0.27795  1.0000
  H   H794      1.0  0.51483  0.08460  0.38117  1.0000
  C   C796      1.0  0.82996  0.23084  0.44199  1.0000
  C   C797      1.0  0.50701  0.07833  0.05616  1.0000
  H   H795      1.0  0.62733  0.01228  0.31810  1.0000
  C   C798      1.0  0.53168  0.05447  0.06141  1.0000
  C   C799      1.0  0.53610  0.06070  0.09882  1.0000
  C   C800      1.0  0.52600  0.07586  0.11495  1.0000
  C   C801      1.0  0.51157  0.08477  0.09346  1.0000
  C   C802      1.0  0.54440  0.99607  0.32119  1.0000
  H   H796      1.0  0.60781  0.08574  0.04322  1.0000
  H   H797      1.0  0.52933  0.08076  0.14381  1.0000
  H   H798      1.0  0.50383  0.09656  0.10589  1.0000
  H   H799      1.0  0.80659  0.15915  0.47322  1.0000
  H   H800      1.0  0.57939  0.11831  0.15494  1.0000
  C   C803      1.0  0.82291  0.21707  0.41703  1.0000
  H   H801      1.0  0.48755  0.06742  0.40221  1.0000
  H   H802      1.0  0.54365  0.02672  0.32010  1.0000
  S   S281      1.0  0.46709  0.03763  0.36478  1.0000
  H   H803      1.0  0.79826  0.20602  0.39183  1.0000
  H   H804      1.0  0.70291  0.22062  0.03077  1.0000
  S   S282      1.0  0.46446  0.03068  0.47718  1.0000
  C   C804      1.0  0.79803  0.21752  0.18418  1.0000
  C   C805      1.0  0.80839  0.20457  0.20705  1.0000
  C   C806      1.0  0.82666  0.20823  0.21636  1.0000
  H   H805      1.0  0.62138  0.13933  0.11655  1.0000
  H   H806      1.0  0.51367  0.00076  0.41056  1.0000
  N   N65       1.0  0.79796  0.18740  0.48619  1.0000
  H   H807      1.0  0.83479  0.19823  0.23371  1.0000
  H   H808      1.0  0.64300  0.22770  0.44440  1.0000
  H   H809      1.0  0.64208  0.07628  0.33944  1.0000
  C   C807      1.0  0.68862  0.23853  0.27026  1.0000
  H   H810      1.0  0.47878  0.00737  0.13955  1.0000
  C   C808      1.0  0.51710  0.06313  0.04027  1.0000
  C   C809      1.0  0.63296  0.02172  0.26054  1.0000
  C   C810      1.0  0.81982  0.21779  0.08241  1.0000
  C   C811      1.0  0.80394  0.21666  0.41036  1.0000
  H   H811      1.0  0.81593  0.23931  0.03867  1.0000
  C   C812      1.0  0.69799  0.22189  0.25827  1.0000
  C   C813      1.0  0.69272  0.21272  0.22406  1.0000
  C   C814      1.0  0.67796  0.22020  0.20194  1.0000
  S   S283      1.0  0.66421  0.21189  0.03460  1.0000
  H   H812      1.0  0.86299  0.05017  0.28539  1.0000
  H   H813      1.0  0.70939  0.21619  0.27550  1.0000
  H   H814      1.0  0.67373  0.21313  0.17563  1.0000
  C   C815      1.0  0.74967  0.14391  0.49750  1.0000
  C   C816      1.0  0.77959  0.18766  0.49369  1.0000
  C   C817      1.0  0.64395  0.22841  0.41316  1.0000
  H   H815      1.0  0.83319  0.22261  0.09185  1.0000
  H   H816      1.0  0.58093  0.07178  0.07501  1.0000
  H   H817      1.0  0.59040  0.01910  0.41300  1.0000
  H   H818      1.0  0.77754  0.23000  0.42171  1.0000
  C   C818      1.0  0.78525  0.20589  0.06062  1.0000
  C   C819      1.0  0.64750  0.21163  0.39253  1.0000
  H   H819      1.0  0.53968  0.04296  0.04859  1.0000
  S   S284      1.0  0.58992  0.00647  0.27280  1.0000
  C   C820      1.0  0.58939  0.01401  0.35138  1.0000
  C   C821      1.0  0.81009  0.22726  0.05280  1.0000
  H   H820      1.0  0.65279  0.19956  0.33635  1.0000
  S   S285      1.0  0.67969  0.19393  0.46503  1.0000
  H   H821      1.0  0.63152  0.00776  0.24776  1.0000
  N   N66       1.0  0.87559  0.04692  0.19187  1.0000
  C   C822      1.0  0.86772  0.05418  0.22460  1.0000
  C   C823      1.0  0.88381  0.02920  0.19217  1.0000
  C   C824      1.0  0.86870  0.04400  0.25924  1.0000
  C   C825      1.0  0.88494  0.01857  0.22627  1.0000
  C   C826      1.0  0.87748  0.02613  0.26007  1.0000
  C   C827      1.0  0.87455  0.05783  0.15586  1.0000
  H   H822      1.0  0.86115  0.06822  0.22445  1.0000
  C   C828      1.0  0.66848  0.23675  0.21414  1.0000
  C   C829      1.0  0.59030  0.00845  0.39045  1.0000
  H   H823      1.0  0.77229  0.18424  0.11695  1.0000
  C   C830      1.0  0.82456  0.23716  0.17800  1.0000
  H   H824      1.0  0.86295  0.05310  0.13742  1.0000
  H   H825      1.0  0.87277  0.07329  0.16174  1.0000
  H   H826      1.0  0.88758  0.05613  0.13983  1.0000
  N   N67       1.0  0.60029  0.11893  0.11256  1.0000
  C   C831      1.0  0.60809  0.11008  0.08132  1.0000
  C   C832      1.0  0.58557  0.11133  0.13014  1.0000
  C   C833      1.0  0.60138  0.09292  0.06749  1.0000
  C   C834      1.0  0.57833  0.09440  0.11658  1.0000
  C   C835      1.0  0.58637  0.08508  0.08529  1.0000
  C   C836      1.0  0.60715  0.13708  0.12636  1.0000
  H   H827      1.0  0.83699  0.23568  0.28457  1.0000
  S   S286      1.0  0.96078  0.01297  0.16987  1.0000
  H   H828      1.0  0.83766  0.23322  0.33614  1.0000
  H   H829      1.0  0.60762  0.13748  0.15851  1.0000
  C   C837      1.0  0.76722  0.13766  0.48567  1.0000
  H   H830      1.0  0.52384  0.02981  0.37759  1.0000
  H   H831      1.0  0.55292  0.99490  0.29583  1.0000
  C   C838      1.0  0.64971  0.21241  0.35260  1.0000
  N   N68       1.0  0.74055  0.16405  0.27414  1.0000
  C   C839      1.0  0.72627  0.15560  0.25552  1.0000
  C   C840      1.0  0.75805  0.16169  0.26083  1.0000
  C   C841      1.0  0.72930  0.14451  0.22253  1.0000
  C   C842      1.0  0.76156  0.15080  0.22778  1.0000
  C   C843      1.0  0.74706  0.14220  0.20848  1.0000
  C   C844      1.0  0.73683  0.17564  0.30852  1.0000
  H   H832      1.0  0.71236  0.15778  0.26564  1.0000
  H   H833      1.0  0.76941  0.16832  0.27556  1.0000
  H   H834      1.0  0.71787  0.13803  0.20768  1.0000
  H   H835      1.0  0.77547  0.14917  0.21721  1.0000
  H   H836      1.0  0.74956  0.13388  0.18256  1.0000
  H   H837      1.0  0.73146  0.16662  0.33177  1.0000
  H   H838      1.0  0.74947  0.18214  0.32024  1.0000
  H   H839      1.0  0.72661  0.18717  0.30133  1.0000
  H   H840      1.0  0.64915  0.19822  0.40772  1.0000
  H   H841      1.0  0.51215  0.01986  0.04377  1.0000
  N   N69       1.0  0.63512  0.05763  0.29318  1.0000
  H   H842      1.0  0.84907  0.22689  0.20799  1.0000
  C   C845      1.0  0.63052  0.02428  0.30012  1.0000
  H   H843      1.0  0.64007  0.06731  0.23599  1.0000
  C   C846      1.0  0.80606  0.23387  0.16993  1.0000
  H   H844      1.0  0.78386  0.21476  0.17700  1.0000
  C   C847      1.0  0.63139  0.04247  0.31598  1.0000
  S   S287      1.0  0.96057  0.05873  0.18633  1.0000
  C   C848      1.0  0.49036  0.00386  0.12126  1.0000
  N   N70       1.0  0.49450  0.01537  0.09108  1.0000
  H   H845      1.0  0.61985  0.11603  0.06749  1.0000
  H   H846      1.0  0.77171  0.20131  0.05191  1.0000
  H   H847      1.0  0.72390  0.15698  0.47887  1.0000
  H   H848      1.0  0.65002  0.23068  0.30276  1.0000
  C   C849      1.0  0.78669  0.18062  0.10888  1.0000
  C   C850      1.0  0.83474  0.22442  0.20165  1.0000
  C   C851      1.0  0.63756  0.05525  0.25430  1.0000
  C   C852      1.0  0.79273  0.22125  0.04164  1.0000
  H   H849      1.0  0.68918  0.24060  0.13498  1.0000
  H   H850      1.0  0.88976  0.02322  0.16610  1.0000
  C   C853      1.0  0.68757  0.22591  0.42538  1.0000
  H   H851      1.0  0.64320  0.08650  0.29218  1.0000
  N   N71       1.0  0.79485  0.19674  0.08978  1.0000
  C   C854      1.0  0.58980  0.00026  0.32216  1.0000
  H   H852      1.0  0.68865  0.21679  0.40028  1.0000
  H   H853      1.0  0.79429  0.17649  0.13590  1.0000
  H   H854      1.0  0.51405  0.05841  0.01123  1.0000
  S   S288      1.0  0.48882  0.08951  0.02969  1.0000
  C   C855      1.0  0.68268  0.22997  0.49394  1.0000
  C   C856      1.0  0.81205  0.20231  0.10039  1.0000
  H   H855      1.0  0.62883  0.04440  0.34656  1.0000
  Fe  Fe144     1.0  0.95669  0.03939  0.13541  1.0000
  H   H856      1.0  0.87859  0.01818  0.28685  1.0000
  H   H857      1.0  0.77068  0.17777  0.47926  1.0000
  H   H858      1.0  0.48173  0.03579  0.05330  1.0000
  H   H859      1.0  0.59810  0.14892  0.11547  1.0000
  H   H860      1.0  0.63811  0.03548  0.20647  1.0000
  H   H861      1.0  0.84463  0.23123  0.44740  1.0000
  C   C857      1.0  0.63544  0.07664  0.31030  1.0000
  H   H862      1.0  0.81969  0.19512  0.12359  1.0000
  C   C858      1.0  0.67585  0.22980  0.01117  1.0000
  C   C859      1.0  0.52239  0.99957  0.38551  1.0000
  H   H863      1.0  0.71872  0.22957  0.17240  1.0000
  C   C860      1.0  0.80555  0.17329  0.45919  1.0000
  H   H864      1.0  0.73121  0.22511  0.49928  1.0000
  C   C861      1.0  0.64825  0.22986  0.33379  1.0000
  H   H865      1.0  0.82335  0.21813  0.30762  1.0000
  H   H866      1.0  0.82386  0.19951  0.49886  1.0000
  C   C862      1.0  0.82849  0.23275  0.31010  1.0000
  C   C863      1.0  0.79217  0.23024  0.42756  1.0000
  C   C864      1.0  0.69496  0.23095  0.01411  1.0000
  C   C865      1.0  0.80927  0.19973  0.50473  1.0000
  H   H867      1.0  0.49183  0.04521  0.09717  1.0000
  H   H868      1.0  0.81944  0.17698  0.44940  1.0000
  C   C866      1.0  0.51963  0.99418  0.07419  1.0000
  H   H869      1.0  0.62511  0.11205  0.50587  1.0000
  H   H870      1.0  0.65692  0.24236  0.19720  1.0000
  H   H871      1.0  0.90159  0.17205  0.75152  1.0000
  Fe  Fe145     1.0  0.71563  0.15526  0.56013  1.0000
  C   C867      1.0  0.63344  0.13139  0.72659  1.0000
  C   C868      1.0  0.46547  0.00732  0.69284  1.0000
  Fe  Fe146     1.0  0.70095  0.18934  0.60544  1.0000
  S   S289      1.0  0.67265  0.18744  0.57943  1.0000
  S   S290      1.0  0.71238  0.21339  0.64100  1.0000
  Fe  Fe147     1.0  0.67614  0.15583  0.58964  1.0000
  S   S291      1.0  0.64940  0.14281  0.60910  1.0000
  H   H872      1.0  0.87162  0.19700  0.84562  1.0000
  N   N72       1.0  0.62150  0.11680  0.74121  1.0000
  S   S292      1.0  0.70381  0.15833  0.61992  1.0000
  S   S293      1.0  0.71466  0.18626  0.54826  1.0000
  Fe  Fe148     1.0  0.56447  0.04413  0.64704  1.0000
  S   S294      1.0  0.57489  0.07060  0.67517  1.0000
  S   S295      1.0  0.55284  0.04201  0.58626  1.0000
  Fe  Fe149     1.0  0.57842  0.01830  0.71259  1.0000
  S   S296      1.0  0.59062  0.04235  0.74552  1.0000
  C   C869      1.0  0.88574  0.03357  0.74357  1.0000
  Fe  Fe150     1.0  0.56422  0.05810  0.73003  1.0000
  S   S297      1.0  0.55189  0.07579  0.77819  1.0000
  Fe  Fe151     1.0  0.60040  0.05302  0.68835  1.0000
  S   S298      1.0  0.62948  0.06303  0.68007  1.0000
  S   S299      1.0  0.55138  0.03333  0.70040  1.0000
  S   S300      1.0  0.59075  0.02722  0.65673  1.0000
  C   C870      1.0  0.89453  0.05311  0.64526  1.0000
  C   C871      1.0  0.73968  0.17356  0.76076  1.0000
  Fe  Fe152     1.0  0.93184  0.08076  0.70614  1.0000
  S   S301      1.0  0.93337  0.05296  0.73735  1.0000
  S   S302      1.0  0.90696  0.10107  0.70099  1.0000
  C   C872      1.0  0.82182  0.23526  0.66190  1.0000
  Fe  Fe153     1.0  0.94481  0.04061  0.68254  1.0000
  H   H873      1.0  0.67973  0.22405  0.52190  1.0000
  C   C873      1.0  0.89549  0.17091  0.77978  1.0000
  S   S303      1.0  0.94100  0.06778  0.64990  1.0000
  Fe  Fe154     1.0  0.80705  0.17565  0.77349  1.0000
  S   S304      1.0  0.83606  0.17532  0.79661  1.0000
  S   S305      1.0  0.79677  0.18275  0.71324  1.0000
  Fe  Fe155     1.0  0.79100  0.16405  0.84984  1.0000
  S   S306      1.0  0.81862  0.16226  0.87981  1.0000
  S   S307      1.0  0.76253  0.15930  0.87258  1.0000
  Fe  Fe156     1.0  0.82376  0.18939  0.84896  1.0000
  S   S308      1.0  0.83932  0.21218  0.87972  1.0000
  Fe  Fe157     1.0  0.82908  0.14817  0.82546  1.0000
  S   S309      1.0  0.85002  0.12370  0.83208  1.0000
  S   S310      1.0  0.79542  0.19237  0.82291  1.0000
  S   S311      1.0  0.80084  0.14728  0.79828  1.0000
  C   C874      1.0  0.89159  0.10737  0.73825  1.0000
  C   C875      1.0  0.89312  0.09932  0.77512  1.0000
  C   C876      1.0  0.88009  0.10420  0.80337  1.0000
  C   C877      1.0  0.86561  0.11735  0.79522  1.0000
  C   C878      1.0  0.86421  0.12552  0.75849  1.0000
  C   C879      1.0  0.87709  0.12045  0.73010  1.0000
  H   H874      1.0  0.90421  0.08919  0.78167  1.0000
  H   H875      1.0  0.88129  0.09785  0.83178  1.0000
  H   H876      1.0  0.85317  0.13570  0.75189  1.0000
  H   H877      1.0  0.87580  0.12672  0.70163  1.0000
  S   S312      1.0  0.96034  0.08886  0.72418  1.0000
  C   C880      1.0  0.88663  0.18662  0.79666  1.0000
  H   H878      1.0  0.55926  0.99354  0.89591  1.0000
  H   H879      1.0  0.69687  0.23174  0.86415  1.0000
  H   H880      1.0  0.48743  0.01753  0.56679  1.0000
  H   H881      1.0  0.64160  0.07935  0.56889  1.0000
  S   S313      1.0  0.93389  0.01296  0.66041  1.0000
  H   H882      1.0  0.66211  0.21428  0.86737  1.0000
  C   C881      1.0  0.77223  0.16751  0.94835  1.0000
  C   C882      1.0  0.75845  0.16186  0.92258  1.0000
  C   C883      1.0  0.74095  0.15830  0.93673  1.0000
  C   C884      1.0  0.73723  0.16040  0.97635  1.0000
  N   N73       1.0  0.53259  0.00620  0.88547  1.0000
  H   H883      1.0  0.78577  0.17022  0.93780  1.0000
  H   H884      1.0  0.73027  0.15373  0.91703  1.0000
  C   C885      1.0  0.70554  0.23750  0.70154  1.0000
  C   C886      1.0  0.64441  0.12044  0.62861  1.0000
  C   C887      1.0  0.65806  0.10664  0.63729  1.0000
  C   C888      1.0  0.65327  0.08914  0.65314  1.0000
  C   C889      1.0  0.63483  0.08520  0.66011  1.0000
  C   C890      1.0  0.62118  0.09898  0.65131  1.0000
  C   C891      1.0  0.62597  0.11650  0.63570  1.0000
  H   H885      1.0  0.67230  0.10948  0.63198  1.0000
  H   H886      1.0  0.66392  0.07855  0.65991  1.0000
  H   H887      1.0  0.60695  0.09617  0.65659  1.0000
  H   H888      1.0  0.61531  0.12710  0.62912  1.0000
  C   C892      1.0  0.49967  0.05314  0.83046  1.0000
  C   C893      1.0  0.50521  0.04725  0.79367  1.0000
  C   C894      1.0  0.52121  0.05412  0.77765  1.0000
  C   C895      1.0  0.53180  0.06699  0.79823  1.0000
  C   C896      1.0  0.52624  0.07297  0.83511  1.0000
  C   C897      1.0  0.51024  0.06596  0.85136  1.0000
  H   H889      1.0  0.49702  0.03743  0.77731  1.0000
  H   H890      1.0  0.52503  0.04983  0.74892  1.0000
  H   H891      1.0  0.53432  0.08301  0.85112  1.0000
  H   H892      1.0  0.50601  0.07060  0.87977  1.0000
  C   C898      1.0  0.49284  0.06124  0.56511  1.0000
  C   C899      1.0  0.50298  0.05258  0.53558  1.0000
  C   C900      1.0  0.52136  0.04669  0.54240  1.0000
  C   C901      1.0  0.52967  0.04925  0.57887  1.0000
  C   C902      1.0  0.51950  0.05773  0.60854  1.0000
  C   C903      1.0  0.50117  0.06383  0.60156  1.0000
  C   C904      1.0  0.62625  0.11104  0.53784  1.0000
  S   S314      1.0  0.47966  0.04376  0.84926  1.0000
  H   H893      1.0  0.52581  0.05985  0.63670  1.0000
  H   H894      1.0  0.49346  0.07066  0.62445  1.0000
  H   H895      1.0  0.76787  0.21365  0.73820  1.0000
  H   H896      1.0  0.76732  0.14119  0.65413  1.0000
  Fe  Fe158     1.0  0.68675  0.18156  0.52348  1.0000
  H   H897      1.0  0.49518  0.99978  0.94013  1.0000
  H   H898      1.0  0.46844  0.00241  0.55542  1.0000
  H   H899      1.0  0.72144  0.19168  0.72634  1.0000
  C   C905      1.0  0.66570  0.22145  0.89501  1.0000
  H   H900      1.0  0.88953  0.02107  0.76047  1.0000
  H   H901      1.0  0.62621  0.14018  0.70403  1.0000
  C   C906      1.0  0.80004  0.21000  0.65802  1.0000
  C   C907      1.0  0.80703  0.20244  0.69292  1.0000
  C   C908      1.0  0.82154  0.21118  0.71205  1.0000
  H   H902      1.0  0.77766  0.22394  0.55845  1.0000
  H   H903      1.0  0.59752  0.13502  0.73949  1.0000
  H   H904      1.0  0.78881  0.20327  0.64313  1.0000
  H   H905      1.0  0.82698  0.20547  0.73900  1.0000
  H   H906      1.0  0.67531  0.19782  0.95314  1.0000
  C   C909      1.0  0.59185  0.10768  0.76260  1.0000
  H   H907      1.0  0.75265  0.15798  0.62912  1.0000
  C   C910      1.0  0.94337  0.00357  0.61764  1.0000
  C   C911      1.0  0.96291  0.00616  0.56196  1.0000
  C   C912      1.0  0.71976  0.20404  0.93038  1.0000
  C   C913      1.0  0.76905  0.22697  0.72298  1.0000
  C   C914      1.0  0.71695  0.21653  0.89947  1.0000
  S   S315      1.0  0.48533  0.04363  0.96218  1.0000
  C   C915      1.0  0.76854  0.16949  0.98797  1.0000
  C   C916      1.0  0.70061  0.22071  0.68277  1.0000
  C   C917      1.0  0.68710  0.20962  0.69856  1.0000
  C   C918      1.0  0.70467  0.19724  0.94960  1.0000
  H   H908      1.0  0.95401  0.06433  0.53399  1.0000
  H   H909      1.0  0.88060  0.16579  0.91229  1.0000
  H   H910      1.0  0.68322  0.19666  0.68425  1.0000
  C   C919      1.0  0.87488  0.04817  0.75948  1.0000
  N   N74       1.0  0.87893  0.16757  0.85115  1.0000
  H   H911      1.0  0.46512  0.03787  0.69616  1.0000
  C   C920      1.0  0.88802  0.15225  0.83529  1.0000
  C   C921      1.0  0.51492  0.00817  0.89800  1.0000
  H   H912      1.0  0.84953  0.24060  0.93513  1.0000
  S   S316      1.0  0.74325  0.14154  0.54634  1.0000
  H   H913      1.0  0.85974  0.17718  0.89372  1.0000
  C   C922      1.0  0.87024  0.06417  0.73736  1.0000
  H   H914      1.0  0.88839  0.13867  0.84997  1.0000
  C   C923      1.0  0.59810  0.09399  0.54877  1.0000
  H   H915      1.0  0.81108  0.22319  0.54475  1.0000
  C   C924      1.0  0.59878  0.06257  0.57610  1.0000
  H   H916      1.0  0.59038  0.00801  0.79683  1.0000
  H   H917      1.0  0.88583  0.20013  0.78172  1.0000
  H   H918      1.0  0.86273  0.15206  0.88975  1.0000
  N   N75       1.0  0.88783  0.05133  0.68473  1.0000
  C   C925      1.0  0.89196  0.03530  0.70576  1.0000
  C   C926      1.0  0.87689  0.06553  0.69982  1.0000
  H   H919      1.0  0.89909  0.06778  0.64014  1.0000
  H   H920      1.0  0.73360  0.19960  0.93940  1.0000
  H   H921      1.0  0.52739  0.01676  0.82855  1.0000
  Fe  Fe159     1.0  0.47408  0.07084  0.98702  1.0000
  H   H922      1.0  0.64107  0.11062  0.54627  1.0000
  Fe  Fe160     1.0  0.96270  0.05991  0.75123  1.0000
  C   C927      1.0  0.75666  0.23199  0.69323  1.0000
  C   C928      1.0  0.46882  0.02772  0.63772  1.0000
  Fe  Fe161     1.0  0.46964  0.05209  0.90841  1.0000
  H   H923      1.0  0.74554  0.22279  0.68554  1.0000
  H   H924      1.0  0.96058  0.07565  0.93712  1.0000
  H   H925      1.0  0.65534  0.21824  0.91705  1.0000
  C   C929      1.0  0.87855  0.18474  0.83279  1.0000
  H   H926      1.0  0.66828  0.20659  0.74543  1.0000
  C   C930      1.0  0.95586  0.01376  0.59644  1.0000
  H   H927      1.0  0.80194  0.23220  0.61588  1.0000
  N   N76       1.0  0.75439  0.16193  0.69056  1.0000
  C   C931      1.0  0.75417  0.16018  0.75998  1.0000
  C   C932      1.0  0.61787  0.06302  0.57887  1.0000
  C   C933      1.0  0.62876  0.09926  0.75077  1.0000
  C   C934      1.0  0.61770  0.08550  0.76637  1.0000
  C   C935      1.0  0.59919  0.08985  0.77262  1.0000
  H   H928      1.0  0.64309  0.09562  0.74557  1.0000
  H   H929      1.0  0.62339  0.07143  0.77284  1.0000
  H   H930      1.0  0.59048  0.07937  0.78501  1.0000
  N   N77       1.0  0.68432  0.21552  0.90765  1.0000
  C   C936      1.0  0.68693  0.20304  0.93762  1.0000
  C   C937      1.0  0.69902  0.22211  0.88834  1.0000
  H   H931      1.0  0.80015  0.21603  0.89152  1.0000
  C   C938      1.0  0.62676  0.07904  0.56605  1.0000
  H   H932      1.0  0.57388  0.07780  0.55910  1.0000
  C   C939      1.0  0.76265  0.15634  0.65370  1.0000
  H   H933      1.0  0.52920  0.04035  0.51919  1.0000
  H   H934      1.0  0.70667  0.18773  0.97400  1.0000
  C   C940      1.0  0.74032  0.17525  0.69109  1.0000
  H   H935      1.0  0.59169  0.05022  0.58574  1.0000
  C   C941      1.0  0.76149  0.15457  0.72443  1.0000
  C   C942      1.0  0.68356  0.23205  0.75192  1.0000
  H   H936      1.0  0.73490  0.18133  0.66432  1.0000
  H   H937      1.0  0.62017  0.12417  0.55097  1.0000
  H   H938      1.0  0.57733  0.11093  0.76688  1.0000
  C   C943      1.0  0.89637  0.15366  0.79936  1.0000
  N   N78       1.0  0.61686  0.09431  0.55146  1.0000
  C   C944      1.0  0.60330  0.12113  0.74699  1.0000
  H   H939      1.0  0.75980  0.15432  0.78684  1.0000
  C   C945      1.0  0.55314  0.99664  0.52326  1.0000
  H   H940      1.0  0.59558  0.99825  0.86509  1.0000
  C   C946      1.0  0.87013  0.16559  0.88863  1.0000
  H   H941      1.0  0.63789  0.14072  0.75064  1.0000
  S   S317      1.0  0.68839  0.15000  0.53114  1.0000
  H   H942      1.0  0.59024  0.10606  0.53718  1.0000
  H   H943      1.0  0.77468  0.16516  0.64824  1.0000
  H   H944      1.0  0.72858  0.22184  0.88422  1.0000
  H   H945      1.0  0.50506  0.01745  0.88284  1.0000
  H   H946      1.0  0.84032  0.23413  0.71117  1.0000
  H   H947      1.0  0.88349  0.04976  0.62407  1.0000
  H   H948      1.0  0.64585  0.12498  0.71276  1.0000
  H   H949      1.0  0.87369  0.07828  0.68320  1.0000
  H   H950      1.0  0.73398  0.17801  0.78825  1.0000
  H   H951      1.0  0.55100  0.01082  0.83895  1.0000
  C   C947      1.0  0.80734  0.22647  0.64269  1.0000
  H   H952      1.0  0.86193  0.07571  0.74949  1.0000
  C   C948      1.0  0.80212  0.21313  0.53082  1.0000
  H   H953      1.0  0.90656  0.04336  0.64007  1.0000
  H   H954      1.0  0.90040  0.02389  0.69366  1.0000
  C   C949      1.0  0.80693  0.22608  0.90999  1.0000
  C   C950      1.0  0.82905  0.22743  0.69632  1.0000
  H   H955      1.0  0.66485  0.23699  0.89010  1.0000
  C   C951      1.0  0.82606  0.22693  0.91029  1.0000
  H   H956      1.0  0.95995  0.02755  0.60650  1.0000
  H   H957      1.0  0.90312  0.14131  0.78639  1.0000
  C   C952      1.0  0.73269  0.18121  0.72613  1.0000
  H   H958      1.0  0.77316  0.14461  0.72413  1.0000
  C   C953      1.0  0.67869  0.21523  0.73322  1.0000
  H   H959      1.0  0.87015  0.04716  0.78894  1.0000
  H   H960      1.0  0.71584  0.22717  0.56298  1.0000
  H   H961      1.0  0.62570  0.05120  0.59168  1.0000
  S   S318      1.0  0.46975  0.06880  0.55756  1.0000
  C   C954      1.0  0.58878  0.07812  0.56105  1.0000
  N   N79       1.0  0.47024  0.01221  0.61400  1.0000
  C   C955      1.0  0.53818  0.01694  0.85165  1.0000
  H   H962      1.0  0.72383  0.15725  0.98705  1.0000
  C   C956      1.0  0.75100  0.16609  0.00211  1.0000
  C   C957      1.0  0.47278  0.01491  0.57252  1.0000
  H   H963      1.0  0.47434  0.12175  0.97975  1.0000
  H   H964      1.0  0.54045  0.03193  0.85986  1.0000
  C   C958      1.0  0.78337  0.21359  0.53838  1.0000
  C   C959      1.0  0.50926  0.99823  0.93043  1.0000
  H   H965      1.0  0.46426  0.02727  0.56204  1.0000
  C   C960      1.0  0.46640  0.02552  0.67748  1.0000
  S   S319      1.0  0.46429  0.00179  0.00544  1.0000
  C   C961      1.0  0.77202  0.20068  0.51999  1.0000
  H   H966      1.0  0.49680  0.05084  0.50722  1.0000
  H   H967      1.0  0.55182  0.01235  0.52263  1.0000
  H   H968      1.0  0.46935  0.04192  0.62581  1.0000
  H   H969      1.0  0.78166  0.23790  0.93248  1.0000
  H   H970      1.0  0.75747  0.20065  0.52602  1.0000
  S   S320      1.0  0.67302  0.23856  0.79566  1.0000
  C   C962      1.0  0.58683  0.99399  0.80589  1.0000
  H   H971      1.0  0.79306  0.23488  0.75520  1.0000
  C   C963      1.0  0.72922  0.23870  0.51356  1.0000
  C   C964      1.0  0.79648  0.23846  0.93328  1.0000
  C   C965      1.0  0.78335  0.23901  0.73234  1.0000
  C   C966      1.0  0.72048  0.23984  0.54912  1.0000
  C   C967      1.0  0.54514  0.99485  0.90519  1.0000
  H   H972      1.0  0.65095  0.24228  0.98650  1.0000
  C   C968      1.0  0.83472  0.23990  0.93479  1.0000
  C   C969      1.0  0.46986  0.99431  0.62896  1.0000
  H   H973      1.0  0.77670  0.13115  0.50650  1.0000
  H   H974      1.0  0.75020  0.28724  0.47796  1.0000
  Fe  Fe162     1.0  0.67197  0.32587  0.33987  1.0000
  S   S321      1.0  0.69832  0.32173  0.37422  1.0000
  S   S322      1.0  0.65584  0.35408  0.33637  1.0000
  Fe  Fe163     1.0  0.67518  0.28591  0.30573  1.0000
  S   S323      1.0  0.70135  0.27851  0.33794  1.0000
  C   C970      1.0  0.80278  0.25077  0.27993  1.0000
  Fe  Fe164     1.0  0.68775  0.29304  0.38797  1.0000
  S   S324      1.0  0.68961  0.28204  0.44906  1.0000
  Fe  Fe165     1.0  0.70976  0.30748  0.32114  1.0000
  S   S325      1.0  0.73931  0.31033  0.30356  1.0000
  S   S326      1.0  0.66057  0.29811  0.35733  1.0000
  S   S327      1.0  0.68443  0.31409  0.28521  1.0000
  H   H975      1.0  0.50692  0.39139  0.09225  1.0000
  H   H976      1.0  0.52380  0.42494  0.22881  1.0000
  H   H977      1.0  0.55132  0.48077  0.26700  1.0000
  Fe  Fe166     1.0  0.54600  0.43071  0.40483  1.0000
  S   S328      1.0  0.54282  0.40063  0.42390  1.0000
  S   S329      1.0  0.53538  0.44441  0.34962  1.0000
  C   C971      1.0  0.72545  0.26822  0.12467  1.0000
  H   H978      1.0  0.84102  0.36091  0.44413  1.0000
  Fe  Fe167     1.0  0.57127  0.40287  0.44975  1.0000
  S   S330      1.0  0.59208  0.37801  0.45296  1.0000
  S   S331      1.0  0.53397  0.44354  0.45835  1.0000
  S   S332      1.0  0.57527  0.43206  0.42614  1.0000
  Fe  Fe168     1.0  0.78630  0.30224  0.10572  1.0000
  S   S333      1.0  0.81364  0.30688  0.13456  1.0000
  S   S334      1.0  0.75718  0.30849  0.12504  1.0000
  C   C972      1.0  0.91422  0.37613  0.09375  1.0000
  S   S335      1.0  0.83250  0.28451  0.06006  1.0000
  S   S336      1.0  0.90789  0.41226  0.49221  1.0000
  Fe  Fe169     1.0  0.82051  0.27682  0.11733  1.0000
  S   S337      1.0  0.94861  0.41378  0.05792  1.0000
  Fe  Fe170     1.0  0.82369  0.31454  0.07522  1.0000
  S   S338      1.0  0.84160  0.34061  0.07293  1.0000
  S   S339      1.0  0.79254  0.27168  0.09298  1.0000
  S   S340      1.0  0.79547  0.31244  0.04790  1.0000
  Fe  Fe171     1.0  0.94386  0.39790  0.41550  1.0000
  C   C973      1.0  0.71986  0.24517  0.17602  1.0000
  Fe  Fe172     1.0  0.91033  0.38506  0.45880  1.0000
  N   N80       1.0  0.94982  0.45849  0.33655  1.0000
  S   S341      1.0  0.89369  0.35853  0.46221  1.0000
  Fe  Fe173     1.0  0.91412  0.42669  0.43616  1.0000
  S   S342      1.0  0.90010  0.45446  0.41877  1.0000
  C   C974      1.0  0.78259  0.27130  0.31717  1.0000
  H   H979      1.0  0.80645  0.24449  0.25235  1.0000
  S   S343      1.0  0.91370  0.39976  0.40191  1.0000
  S   S344      1.0  0.94070  0.38100  0.46964  1.0000
  Fe  Fe174     1.0  0.53302  0.41369  0.47940  1.0000
  C   C975      1.0  0.46429  0.44089  0.35260  1.0000
  C   C976      1.0  0.90082  0.36920  0.11782  1.0000
  C   C977      1.0  0.89197  0.35262  0.10765  1.0000
  H   H980      1.0  0.92128  0.38900  0.10123  1.0000
  S   S345      1.0  0.47621  0.39906  0.25509  1.0000
  S   S346      1.0  0.90706  0.48594  0.24783  1.0000
  H   H981      1.0  0.65283  0.26960  0.42279  1.0000
  C   C978      1.0  0.84489  0.39669  0.45864  1.0000
  H   H982      1.0  0.64391  0.25987  0.34036  1.0000
  Fe  Fe175     1.0  0.80358  0.28193  0.03720  1.0000
  H   H983      1.0  0.61090  0.45846  0.49154  1.0000
  C   C979      1.0  0.57119  0.47582  0.08843  1.0000
  H   H984      1.0  0.86125  0.37483  0.06529  1.0000
  C   C980      1.0  0.90473  0.45783  0.30196  1.0000
  C   C981      1.0  0.90370  0.45058  0.33970  1.0000
  C   C982      1.0  0.90276  0.46298  0.37128  1.0000
  C   C983      1.0  0.52734  0.43775  0.21370  1.0000
  H   H985      1.0  0.90315  0.43546  0.34417  1.0000
  C   C984      1.0  0.68788  0.25739  0.45361  1.0000
  C   C985      1.0  0.59779  0.37738  0.04379  1.0000
  H   H986      1.0  0.73846  0.27151  0.13848  1.0000
  C   C986      1.0  0.95018  0.43914  0.33401  1.0000
  C   C987      1.0  0.86272  0.36708  0.03843  1.0000
  C   C988      1.0  0.74421  0.30839  0.25401  1.0000
  C   C989      1.0  0.73011  0.30772  0.22616  1.0000
  C   C990      1.0  0.73427  0.30779  0.18668  1.0000
  C   C991      1.0  0.75257  0.30798  0.17481  1.0000
  C   C992      1.0  0.76671  0.30806  0.20266  1.0000
  C   C993      1.0  0.76252  0.30851  0.24217  1.0000
  H   H987      1.0  0.71599  0.30746  0.23501  1.0000
  H   H988      1.0  0.72326  0.30773  0.16527  1.0000
  H   H989      1.0  0.78086  0.30830  0.19372  1.0000
  H   H990      1.0  0.77350  0.30919  0.26355  1.0000
  C   C994      1.0  0.63762  0.36016  0.36807  1.0000
  C   C995      1.0  0.63405  0.34914  0.40044  1.0000
  C   C996      1.0  0.61987  0.35468  0.42568  1.0000
  C   C997      1.0  0.60896  0.37117  0.41872  1.0000
  C   C998      1.0  0.61242  0.38215  0.38620  1.0000
  C   C999      1.0  0.62675  0.37671  0.36115  1.0000
  H   H991      1.0  0.64232  0.33642  0.40626  1.0000
  H   H992      1.0  0.61735  0.34613  0.45082  1.0000
  H   H993      1.0  0.60412  0.39486  0.38047  1.0000
  H   H994      1.0  0.62936  0.38531  0.33614  1.0000
  S   S347      1.0  0.96092  0.38839  0.36514  1.0000
  H   H995      1.0  0.61034  0.38183  0.02889  1.0000
  H   H996      1.0  0.49690  0.45495  0.41528  1.0000
  C   C1000     1.0  0.63947  0.26300  0.41660  1.0000
  C   C1001     1.0  0.50087  0.42250  0.01796  1.0000
  H   H997      1.0  0.53978  0.45034  0.26387  1.0000
  S   S348      1.0  0.94460  0.42594  0.44612  1.0000
  H   H998      1.0  0.83559  0.38960  0.47757  1.0000
  C   C1002     1.0  0.49239  0.41184  0.28169  1.0000
  C   C1003     1.0  0.49232  0.43165  0.28034  1.0000
  C   C1004     1.0  0.50549  0.44157  0.30159  1.0000
  C   C1005     1.0  0.51861  0.43173  0.32461  1.0000
  C   C1006     1.0  0.51853  0.41196  0.32639  1.0000
  C   C1007     1.0  0.50548  0.40203  0.30483  1.0000
  H   H999      1.0  0.48208  0.43934  0.26318  1.0000
  H   H1000     1.0  0.50546  0.45688  0.30030  1.0000
  H   H1001     1.0  0.52879  0.40426  0.34362  1.0000
  H   H1002     1.0  0.50558  0.38670  0.30595  1.0000
  C   C1008     1.0  0.47640  0.42656  0.06445  1.0000
  C   C1009     1.0  0.81815  0.24426  0.45974  1.0000
  H   H1003     1.0  0.51582  0.42887  0.15894  1.0000
  C   C1010     1.0  0.50895  0.40787  0.04023  1.0000
  C   C1011     1.0  0.50077  0.40273  0.07491  1.0000
  C   C1012     1.0  0.48459  0.41214  0.08717  1.0000
  H   H1004     1.0  0.72896  0.28834  0.07870  1.0000
  C   C1013     1.0  0.87502  0.35360  0.49215  1.0000
  C   C1014     1.0  0.61514  0.44364  0.48883  1.0000
  H   H1005     1.0  0.88121  0.34727  0.12558  1.0000
  C   C1015     1.0  0.62248  0.43721  0.45386  1.0000
  N   N81       1.0  0.71442  0.25497  0.14010  1.0000
  H   H1006     1.0  0.77069  0.28097  0.31899  1.0000
  C   C1016     1.0  0.69215  0.26052  0.08894  1.0000
  H   H1007     1.0  0.47857  0.44313  0.01261  1.0000
  H   H1008     1.0  0.63308  0.41280  0.42265  1.0000
  H   H1009     1.0  0.90274  0.49226  0.38922  1.0000
  H   H1010     1.0  0.62906  0.39077  0.47734  1.0000
  C   C1017     1.0  0.48465  0.43181  0.03002  1.0000
  H   H1011     1.0  0.94874  0.46943  0.24137  1.0000
  H   H1012     1.0  0.95033  0.43054  0.35991  1.0000
  H   H1013     1.0  0.56990  0.45544  0.04211  1.0000
  H   H1014     1.0  0.73427  0.24788  0.18481  1.0000
  S   S349      1.0  0.66134  0.26639  0.26340  1.0000
  H   H1015     1.0  0.62371  0.44690  0.42985  1.0000
  H   H1016     1.0  0.63046  0.27329  0.40024  1.0000
  Fe  Fe176     1.0  0.93860  0.40925  0.49934  1.0000
  H   H1017     1.0  0.90501  0.44821  0.27755  1.0000
  H   H1018     1.0  0.85979  0.35897  0.41176  1.0000
  C   C1018     1.0  0.86400  0.39628  0.40375  1.0000
  C   C1019     1.0  0.94988  0.44102  0.26440  1.0000
  H   H1019     1.0  0.83748  0.36761  0.39412  1.0000
  C   C1020     1.0  0.85381  0.34981  0.03355  1.0000
  H   H1020     1.0  0.86998  0.38883  0.37928  1.0000
  C   C1021     1.0  0.84734  0.36778  0.41892  1.0000
  N   N82       1.0  0.85237  0.38729  0.42770  1.0000
  H   H1021     1.0  0.94970  0.43422  0.23625  1.0000
  H   H1022     1.0  0.69260  0.24526  0.29699  1.0000
  H   H1023     1.0  0.72624  0.29478  0.47335  1.0000
  C   C1022     1.0  0.47356  0.47331  0.36709  1.0000
  H   H1024     1.0  0.81641  0.25100  0.37318  1.0000
  H   H1025     1.0  0.89723  0.37672  0.14415  1.0000
  H   H1026     1.0  0.47830  0.40800  0.11381  1.0000
  C   C1023     1.0  0.80832  0.25432  0.34736  1.0000
  H   H1027     1.0  0.67914  0.25726  0.07510  1.0000
  C   C1024     1.0  0.69794  0.25109  0.12276  1.0000
  C   C1025     1.0  0.72012  0.27786  0.09078  1.0000
  C   C1026     1.0  0.47883  0.41382  0.38448  1.0000
  C   C1027     1.0  0.91840  0.36645  0.05953  1.0000
  H   H1028     1.0  0.69914  0.28118  0.04629  1.0000
  H   H1029     1.0  0.54014  0.48347  0.16116  1.0000
  C   C1028     1.0  0.56875  0.47025  0.04974  1.0000
  H   H1030     1.0  0.87768  0.42232  0.39156  1.0000
  C   C1029     1.0  0.54981  0.48372  0.23550  1.0000
  H   H1031     1.0  0.78925  0.27267  0.37821  1.0000
  C   C1030     1.0  0.56536  0.48387  0.02103  1.0000
  C   C1031     1.0  0.86729  0.33567  0.48943  1.0000
  H   H1032     1.0  0.86511  0.43917  0.44856  1.0000
  C   C1032     1.0  0.53633  0.45222  0.23341  1.0000
  S   S350      1.0  0.83557  0.25671  0.15857  1.0000
  Fe  Fe177     1.0  0.56280  0.44264  0.48150  1.0000
  C   C1033     1.0  0.64473  0.24636  0.35529  1.0000
  N   N83       1.0  0.47550  0.45275  0.37271  1.0000
  H   H1033     1.0  0.46415  0.47960  0.38900  1.0000
  N   N84       1.0  0.81298  0.24647  0.31251  1.0000
  H   H1034     1.0  0.59040  0.39066  0.05287  1.0000
  C   C1034     1.0  0.87384  0.37421  0.00924  1.0000
  C   C1035     1.0  0.62771  0.41813  0.44982  1.0000
  H   H1035     1.0  0.71075  0.25002  0.19980  1.0000
  H   H1036     1.0  0.48046  0.39861  0.38845  1.0000
  C   C1036     1.0  0.79301  0.26673  0.35030  1.0000
  C   C1037     1.0  0.68939  0.24551  0.42137  1.0000
  H   H1037     1.0  0.69188  0.25135  0.39328  1.0000
  N   N85       1.0  0.54060  0.46850  0.21466  1.0000
  C   C1038     1.0  0.86134  0.42465  0.44263  1.0000
  C   C1039     1.0  0.53649  0.47068  0.17613  1.0000
  C   C1040     1.0  0.70337  0.27394  0.07282  1.0000
  C   C1041     1.0  0.52759  0.45646  0.15548  1.0000
  C   C1042     1.0  0.52287  0.43996  0.17452  1.0000
  C   C1043     1.0  0.68454  0.24960  0.48990  1.0000
  H   H1038     1.0  0.57429  0.46521  0.11032  1.0000
  C   C1044     1.0  0.95023  0.43011  0.29798  1.0000
  H   H1039     1.0  0.87337  0.32498  0.47067  1.0000
  C   C1045     1.0  0.62550  0.40574  0.48057  1.0000
  H   H1040     1.0  0.52443  0.45821  0.12487  1.0000
  C   C1046     1.0  0.79925  0.24411  0.45212  1.0000
  C   C1047     1.0  0.78754  0.26336  0.28167  1.0000
  N   N86       1.0  0.70842  0.35629  0.25471  1.0000
  C   C1048     1.0  0.72663  0.35389  0.26447  1.0000
  C   C1049     1.0  0.69597  0.36187  0.28199  1.0000
  C   C1050     1.0  0.73279  0.35716  0.30235  1.0000
  C   C1051     1.0  0.70169  0.36534  0.32011  1.0000
  C   C1052     1.0  0.72020  0.36284  0.33034  1.0000
  C   C1053     1.0  0.70196  0.35181  0.21545  1.0000
  H   H1041     1.0  0.73647  0.34886  0.24328  1.0000
  H   H1042     1.0  0.68143  0.36325  0.27467  1.0000
  H   H1043     1.0  0.74712  0.35448  0.31023  1.0000
  H   H1044     1.0  0.69170  0.36942  0.34178  1.0000
  H   H1045     1.0  0.72471  0.36487  0.36008  1.0000
  H   H1046     1.0  0.69149  0.36257  0.20529  1.0000
  H   H1047     1.0  0.71338  0.35155  0.19450  1.0000
  H   H1048     1.0  0.69576  0.33764  0.21517  1.0000
  H   H1049     1.0  0.92882  0.37199  0.04108  1.0000
  C   C1054     1.0  0.86851  0.41513  0.41064  1.0000
  H   H1050     1.0  0.88925  0.33066  0.06521  1.0000
  C   C1055     1.0  0.94956  0.46075  0.26724  1.0000
  C   C1056     1.0  0.48804  0.44558  0.39922  1.0000
  H   H1051     1.0  0.60183  0.36896  0.06980  1.0000
  H   H1052     1.0  0.56137  0.37526  0.04486  1.0000
  H   H1053     1.0  0.84382  0.42268  0.49188  1.0000
  H   H1054     1.0  0.94075  0.46057  0.39455  1.0000
  N   N87       1.0  0.90938  0.35043  0.04935  1.0000
  C   C1057     1.0  0.95023  0.46758  0.37470  1.0000
  S   S351      1.0  0.78422  0.26144  0.47158  1.0000
  H   H1055     1.0  0.49997  0.42035  0.42628  1.0000
  S   S352      1.0  0.50707  0.40303  0.50489  1.0000
  C   C1058     1.0  0.56764  0.36658  0.02244  1.0000
  H   H1056     1.0  0.82374  0.25497  0.47857  1.0000
  H   H1057     1.0  0.95054  0.41474  0.29630  1.0000
  C   C1059     1.0  0.89657  0.34326  0.07328  1.0000
  C   C1060     1.0  0.84945  0.41541  0.46686  1.0000
  H   H1058     1.0  0.56371  0.48561  0.22358  1.0000
  C   C1061     1.0  0.73725  0.28984  0.49395  1.0000
  N   N88       1.0  0.64247  0.24546  0.39443  1.0000
  C   C1062     1.0  0.48988  0.42603  0.40553  1.0000
  H   H1059     1.0  0.77959  0.26690  0.25568  1.0000
  C   C1063     1.0  0.94972  0.46930  0.30379  1.0000
  H   H1060     1.0  0.88075  0.38739  0.01368  1.0000
  C   C1064     1.0  0.67387  0.24604  0.24818  1.0000
  H   H1061     1.0  0.79804  0.24367  0.15210  1.0000
  S   S353      1.0  0.52897  0.39553  0.02498  1.0000
  H   H1062     1.0  0.74160  0.25441  0.46832  1.0000
  C   C1065     1.0  0.90558  0.47743  0.29562  1.0000
  H   H1063     1.0  0.94556  0.48273  0.37307  1.0000
  H   H1064     1.0  0.63279  0.26029  0.44459  1.0000
  C   C1066     1.0  0.91386  0.34070  0.01306  1.0000
  C   C1067     1.0  0.90528  0.48977  0.32733  1.0000
  H   H1065     1.0  0.92696  0.33234  0.01645  1.0000
  N   N89       1.0  0.58625  0.36618  0.01788  1.0000
  C   C1068     1.0  0.46592  0.42125  0.35786  1.0000
  H   H1066     1.0  0.94915  0.48463  0.30575  1.0000
  C   C1069     1.0  0.90350  0.48257  0.36494  1.0000
  C   C1070     1.0  0.73483  0.25532  0.49598  1.0000
  H   H1067     1.0  0.48711  0.48004  0.36971  1.0000
  H   H1068     1.0  0.46789  0.47683  0.33782  1.0000
  S   S354      1.0  0.46387  0.44364  0.19005  1.0000
  N   N90       1.0  0.75813  0.29592  0.93810  1.0000
  Fe  Fe178     1.0  0.66351  0.30660  0.84301  1.0000
  S   S355      1.0  0.69041  0.31519  0.86937  1.0000
  S   S356      1.0  0.63715  0.32468  0.83763  1.0000
  Fe  Fe179     1.0  0.67912  0.26771  0.81834  1.0000
  S   S357      1.0  0.70709  0.27325  0.84247  1.0000
  C   C1071     1.0  0.51786  0.39720  0.63421  1.0000
  Fe  Fe180     1.0  0.69221  0.28558  0.89316  1.0000
  H   H1069     1.0  0.73987  0.30128  0.51531  1.0000
  Fe  Fe181     1.0  0.70300  0.30207  0.81633  1.0000
  S   S358      1.0  0.72718  0.31609  0.79018  1.0000
  S   S359      1.0  0.66432  0.27792  0.87121  1.0000
  S   S360      1.0  0.67603  0.29565  0.78764  1.0000
  C   C1072     1.0  0.94741  0.36754  0.58463  1.0000
  C   C1073     1.0  0.50326  0.40792  0.69405  1.0000
  H   H1070     1.0  0.91416  0.45568  0.76674  1.0000
  Fe  Fe182     1.0  0.55028  0.41940  0.89450  1.0000
  S   S361      1.0  0.55745  0.39295  0.92830  1.0000
  S   S362      1.0  0.53874  0.41963  0.83372  1.0000
  C   C1074     1.0  0.78210  0.30882  0.90036  1.0000
  H   H1071     1.0  0.87676  0.41336  0.93432  1.0000
  Fe  Fe183     1.0  0.58357  0.40749  0.94326  1.0000
  S   S363      1.0  0.61177  0.39259  0.94762  1.0000
  S   S364      1.0  0.53592  0.43435  0.94308  1.0000
  S   S365      1.0  0.57721  0.43307  0.90610  1.0000
  Fe  Fe184     1.0  0.77597  0.29385  0.59534  1.0000
  S   S366      1.0  0.80262  0.30226  0.62256  1.0000
  S   S367      1.0  0.74722  0.29318  0.61841  1.0000
  H   H1072     1.0  0.66666  0.26797  0.95311  1.0000
  H   H1073     1.0  0.87735  0.44845  0.93709  1.0000
  C   C1075     1.0  0.75542  0.29612  0.86877  1.0000
  Fe  Fe185     1.0  0.81351  0.27385  0.60251  1.0000
  C   C1076     1.0  0.82426  0.25206  0.95872  1.0000
  C   C1077     1.0  0.77476  0.30430  0.93615  1.0000
  S   S368      1.0  0.82244  0.34129  0.55765  1.0000
  S   S369      1.0  0.78633  0.26471  0.58002  1.0000
  H   H1074     1.0  0.50383  0.36614  0.56543  1.0000
  H   H1075     1.0  0.60896  0.35424  0.98715  1.0000
  S   S370      1.0  0.78226  0.30603  0.53742  1.0000
  Fe  Fe186     1.0  0.91344  0.39254  0.94191  1.0000
  S   S371      1.0  0.91481  0.41973  0.97528  1.0000
  S   S372      1.0  0.88923  0.37296  0.93627  1.0000
  Fe  Fe187     1.0  0.92901  0.43160  0.92387  1.0000
  S   S373      1.0  0.92354  0.46236  0.90731  1.0000
  C   C1078     1.0  0.84320  0.34534  0.53370  1.0000
  H   H1076     1.0  0.51064  0.40024  0.71794  1.0000
  S   S374      1.0  0.92502  0.40541  0.88826  1.0000
  C   C1079     1.0  0.51836  0.38610  0.60064  1.0000
  C   C1080     1.0  0.91514  0.37399  0.56663  1.0000
  C   C1081     1.0  0.87794  0.41233  0.87222  1.0000
  H   H1077     1.0  0.73703  0.29913  0.97933  1.0000
  S   S375      1.0  0.95035  0.41547  0.55871  1.0000
  H   H1078     1.0  0.52883  0.40688  0.63991  1.0000
  H   H1079     1.0  0.47239  0.48208  0.60754  1.0000
  C   C1082     1.0  0.86640  0.34743  0.96894  1.0000
  C   C1083     1.0  0.87572  0.36441  0.97428  1.0000
  H   H1080     1.0  0.90661  0.37335  0.53973  1.0000
  S   S376      1.0  0.55993  0.49062  0.68337  1.0000
  H   H1081     1.0  0.52793  0.45893  0.79106  1.0000
  H   H1082     1.0  0.86769  0.33980  0.94189  1.0000
  C   C1084     1.0  0.66574  0.24308  0.98876  1.0000
  H   H1083     1.0  0.84481  0.37392  0.55529  1.0000
  H   H1084     1.0  0.91783  0.38921  0.57209  1.0000
  H   H1085     1.0  0.49486  0.47984  0.66233  1.0000
  C   C1085     1.0  0.92252  0.47047  0.85908  1.0000
  C   C1086     1.0  0.92014  0.45805  0.82795  1.0000
  C   C1087     1.0  0.85113  0.36319  0.53697  1.0000
  H   H1086     1.0  0.92033  0.44292  0.83290  1.0000
  C   C1088     1.0  0.71713  0.25748  0.56624  1.0000
  C   C1089     1.0  0.91662  0.46530  0.79055  1.0000
  H   H1087     1.0  0.61137  0.43107  0.58041  1.0000
  H   H1088     1.0  0.54720  0.48461  0.76617  1.0000
  C   C1090     1.0  0.73321  0.30874  0.74322  1.0000
  C   C1091     1.0  0.74975  0.31454  0.72756  1.0000
  C   C1092     1.0  0.75447  0.30948  0.68956  1.0000
  C   C1093     1.0  0.74247  0.29887  0.66690  1.0000
  C   C1094     1.0  0.72611  0.29278  0.68281  1.0000
  C   C1095     1.0  0.72157  0.29755  0.72098  1.0000
  H   H1089     1.0  0.75878  0.32326  0.74461  1.0000
  H   H1090     1.0  0.76706  0.31431  0.67741  1.0000
  H   H1091     1.0  0.71682  0.28449  0.66547  1.0000
  H   H1092     1.0  0.70884  0.29293  0.73281  1.0000
  C   C1096     1.0  0.62978  0.34239  0.87069  1.0000
  C   C1097     1.0  0.64111  0.34847  0.90099  1.0000
  C   C1098     1.0  0.63532  0.36377  0.92456  1.0000
  C   C1099     1.0  0.61817  0.37305  0.91811  1.0000
  C   C1100     1.0  0.60663  0.36664  0.88851  1.0000
  C   C1101     1.0  0.61244  0.35138  0.86490  1.0000
  H   H1093     1.0  0.65447  0.34164  0.90576  1.0000
  H   H1094     1.0  0.64428  0.36859  0.94757  1.0000
  H   H1095     1.0  0.59336  0.37361  0.88338  1.0000
  H   H1096     1.0  0.60358  0.34674  0.84153  1.0000
  C   C1102     1.0  0.55696  0.46774  0.61947  1.0000
  C   C1103     1.0  0.55980  0.46282  0.58054  1.0000
  C   C1104     1.0  0.56875  0.47522  0.55630  1.0000
  H   H1097     1.0  0.71952  0.28754  0.56046  1.0000
  C   C1105     1.0  0.87734  0.47246  0.87787  1.0000
  H   H1098     1.0  0.55035  0.45799  0.63839  1.0000
  H   H1099     1.0  0.55539  0.44932  0.56954  1.0000
  H   H1100     1.0  0.71588  0.24623  0.68935  1.0000
  C   C1106     1.0  0.47623  0.41680  0.82604  1.0000
  C   C1107     1.0  0.48622  0.42183  0.79368  1.0000
  C   C1108     1.0  0.50543  0.42256  0.79622  1.0000
  C   C1109     1.0  0.51471  0.41841  0.83116  1.0000
  C   C1110     1.0  0.50472  0.41361  0.86365  1.0000
  C   C1111     1.0  0.48552  0.41273  0.86104  1.0000
  H   H1101     1.0  0.47912  0.42517  0.76675  1.0000
  H   H1102     1.0  0.51311  0.42649  0.77120  1.0000
  H   H1103     1.0  0.51180  0.41024  0.89062  1.0000
  H   H1104     1.0  0.47790  0.40869  0.88606  1.0000
  C   C1112     1.0  0.48411  0.43435  0.61011  1.0000
  C   C1113     1.0  0.50091  0.43952  0.59472  1.0000
  C   C1114     1.0  0.50772  0.43053  0.56140  1.0000
  C   C1115     1.0  0.49775  0.41629  0.54342  1.0000
  C   C1116     1.0  0.48072  0.41148  0.55823  1.0000
  C   C1117     1.0  0.47392  0.42046  0.59160  1.0000
  H   H1105     1.0  0.50889  0.45024  0.60898  1.0000
  H   H1106     1.0  0.52088  0.43428  0.55021  1.0000
  H   H1107     1.0  0.47295  0.40049  0.54435  1.0000
  H   H1108     1.0  0.52938  0.38742  0.58020  1.0000
  H   H1109     1.0  0.74807  0.27583  0.97712  1.0000
  C   C1118     1.0  0.86706  0.36730  0.51647  1.0000
  C   C1119     1.0  0.60469  0.43808  0.55489  1.0000
  C   C1120     1.0  0.54026  0.47964  0.87598  1.0000
  H   H1110     1.0  0.87286  0.38116  0.51878  1.0000
  C   C1121     1.0  0.87726  0.42157  0.90787  1.0000
  C   C1122     1.0  0.93328  0.34782  0.53781  1.0000
  N   N91       1.0  0.93241  0.36298  0.56258  1.0000
  H   H1111     1.0  0.47800  0.38358  0.67084  1.0000
  H   H1112     1.0  0.77475  0.27365  0.66759  1.0000
  H   H1113     1.0  0.92132  0.34406  0.52060  1.0000
  H   H1114     1.0  0.60599  0.45364  0.55864  1.0000
  H   H1115     1.0  0.87954  0.41586  0.81056  1.0000
  H   H1116     1.0  0.47800  0.36411  0.61133  1.0000
  Fe  Fe188     1.0  0.81018  0.31212  0.56301  1.0000
  H   H1117     1.0  0.73539  0.28509  0.90653  1.0000
  S   S377      1.0  0.83083  0.25632  0.64444  1.0000
  N   N92       1.0  0.73168  0.27255  0.51324  1.0000
  H   H1118     1.0  0.71861  0.24648  0.99785  1.0000
  N   N93       1.0  0.78541  0.25543  0.71217  1.0000
  H   H1119     1.0  0.83101  0.26212  0.97735  1.0000
  C   C1123     1.0  0.77322  0.26054  0.68324  1.0000
  S   S378      1.0  0.95737  0.42308  0.94533  1.0000
  C   C1124     1.0  0.69698  0.24321  0.73593  1.0000
  C   C1125     1.0  0.91613  0.48494  0.78385  1.0000
  C   C1126     1.0  0.92236  0.49007  0.85223  1.0000
  Fe  Fe189     1.0  0.95255  0.39600  0.91281  1.0000
  C   C1127     1.0  0.67463  0.25751  0.96954  1.0000
  H   H1120     1.0  0.88581  0.47753  0.90266  1.0000
  C   C1128     1.0  0.75036  0.29130  0.97559  1.0000
  C   C1129     1.0  0.59418  0.35481  0.99032  1.0000
  H   H1121     1.0  0.50970  0.42176  0.68917  1.0000
  Fe  Fe190     1.0  0.56340  0.44584  0.95819  1.0000
  C   C1130     1.0  0.54505  0.48316  0.79701  1.0000
  C   C1131     1.0  0.48943  0.37313  0.61785  1.0000
  H   H1122     1.0  0.77766  0.30836  0.83848  1.0000
  N   N94       1.0  0.66080  0.36249  0.80355  1.0000
  C   C1132     1.0  0.66987  0.37079  0.83381  1.0000
  C   C1133     1.0  0.64327  0.36841  0.79362  1.0000
  C   C1134     1.0  0.66124  0.38522  0.85544  1.0000
  C   C1135     1.0  0.63428  0.38285  0.81453  1.0000
  C   C1136     1.0  0.64331  0.39122  0.84574  1.0000
  C   C1137     1.0  0.67009  0.34769  0.78051  1.0000
  H   H1123     1.0  0.68374  0.36607  0.84175  1.0000
  H   H1124     1.0  0.63596  0.36154  0.77018  1.0000
  H   H1125     1.0  0.66823  0.39142  0.88012  1.0000
  H   H1126     1.0  0.62015  0.38706  0.80747  1.0000
  H   H1127     1.0  0.63623  0.40195  0.86307  1.0000
  H   H1128     1.0  0.66041  0.33639  0.77258  1.0000
  H   H1129     1.0  0.67552  0.35387  0.75373  1.0000
  H   H1130     1.0  0.68168  0.34066  0.79687  1.0000
  H   H1131     1.0  0.79506  0.27895  0.74386  1.0000
  H   H1132     1.0  0.71015  0.25850  0.59367  1.0000
  C   C1138     1.0  0.87751  0.44138  0.90920  1.0000
  H   H1133     1.0  0.58982  0.43510  0.55442  1.0000
  C   C1139     1.0  0.87863  0.44275  0.84070  1.0000
  C   C1140     1.0  0.72254  0.27382  0.54739  1.0000
  H   H1134     1.0  0.74769  0.29285  0.84264  1.0000
  S   S379      1.0  0.70483  0.27749  0.95094  1.0000
  C   C1141     1.0  0.87874  0.42295  0.83837  1.0000
  N   N95       1.0  0.61299  0.43135  0.51885  1.0000
  C   C1142     1.0  0.69368  0.25883  0.97292  1.0000
  C   C1143     1.0  0.53418  0.46887  0.81089  1.0000
  H   H1135     1.0  0.68312  0.25878  0.51484  1.0000
  C   C1144     1.0  0.85148  0.33152  0.51016  1.0000
  Fe  Fe191     1.0  0.54534  0.40920  0.97843  1.0000
  S   S380      1.0  0.79139  0.26684  0.98583  1.0000
  N   N96       1.0  0.50340  0.39637  0.65878  1.0000
  H   H1136     1.0  0.48899  0.41143  0.70306  1.0000
  C   C1145     1.0  0.48944  0.38431  0.65132  1.0000
  S   S381      1.0  0.47675  0.44492  0.65348  1.0000
  C   C1146     1.0  0.85567  0.34004  0.99853  1.0000
  H   H1137     1.0  0.79536  0.31530  0.89901  1.0000
  H   H1138     1.0  0.53860  0.47789  0.90682  1.0000
  H   H1139     1.0  0.80524  0.27553  0.69696  1.0000
  H   H1140     1.0  0.50687  0.42642  0.99104  1.0000
  H   H1141     1.0  0.87812  0.39694  0.87095  1.0000
  S   S382      1.0  0.57212  0.42151  0.99668  1.0000
  S   S383      1.0  0.56315  0.47730  0.97195  1.0000
  H   H1142     1.0  0.90722  0.36833  0.59090  1.0000
  C   C1147     1.0  0.74851  0.29178  0.90502  1.0000
  Fe  Fe192     1.0  0.79455  0.27724  0.52400  1.0000
  C   C1148     1.0  0.80511  0.25147  0.95763  1.0000
  H   H1143     1.0  0.87925  0.45091  0.81424  1.0000
  H   H1144     1.0  0.88299  0.47889  0.85147  1.0000
  H   H1145     1.0  0.54155  0.35705  0.00081  1.0000
  S   S384      1.0  0.94079  0.38114  0.96381  1.0000
  C   C1149     1.0  0.48479  0.49020  0.60712  1.0000
  H   H1146     1.0  0.70078  0.25623  0.75009  1.0000
  C   C1150     1.0  0.80015  0.26818  0.72287  1.0000
  C   C1151     1.0  0.53165  0.46715  0.85059  1.0000
  C   C1152     1.0  0.50397  0.37412  0.59231  1.0000
  S   S385      1.0  0.82305  0.28408  0.54488  1.0000
  H   H1147     1.0  0.52341  0.45593  0.86167  1.0000
  H   H1148     1.0  0.81222  0.26021  0.73557  1.0000
  C   C1153     1.0  0.77227  0.30480  0.86649  1.0000
  H   H1149     1.0  0.78261  0.30724  0.96230  1.0000
  Fe  Fe193     1.0  0.94300  0.40918  0.99411  1.0000
  C   C1154     1.0  0.58333  0.34433  0.96487  1.0000
  H   H1150     1.0  0.61525  0.40259  0.53779  1.0000
  H   H1151     1.0  0.90281  0.33112  0.00367  1.0000
  N   N97       1.0  0.87818  0.45170  0.87586  1.0000
  H   H1152     1.0  0.58968  0.33592  0.94208  1.0000
  H   H1153     1.0  0.55565  0.33733  0.94863  1.0000
  H   H1154     1.0  0.86293  0.47766  0.88129  1.0000
  H   H1155     1.0  0.84891  0.32676  0.99433  1.0000
  H   H1156     1.0  0.95701  0.48288  0.80674  1.0000
  C   C1155     1.0  0.56277  0.48518  0.63406  1.0000
  H   H1157     1.0  0.74902  0.25311  0.65036  1.0000
  C   C1156     1.0  0.49741  0.48889  0.63785  1.0000
  C   C1157     1.0  0.56428  0.34512  0.96853  1.0000
  C   C1158     1.0  0.75868  0.24893  0.67331  1.0000
  H   H1158     1.0  0.94669  0.37948  0.60447  1.0000
  C   C1159     1.0  0.55637  0.35616  0.99775  1.0000
  C   C1160     1.0  0.70385  0.24554  0.99522  1.0000
  H   H1159     1.0  0.91517  0.35112  0.98931  1.0000
  S   S386      1.0  0.56107  0.41365  0.50740  1.0000
  S   S387      1.0  0.57443  0.46885  0.50864  1.0000
  H   H1160     1.0  0.75968  0.29491  0.00013  1.0000
  C   C1161     1.0  0.61772  0.41254  0.51478  1.0000
  C   C1162     1.0  0.94975  0.33733  0.53338  1.0000
  H   H1161     1.0  0.95051  0.32565  0.51295  1.0000
  H   H1162     1.0  0.84552  0.31774  0.50737  1.0000
  C   C1163     1.0  0.56087  0.56102  0.32727  1.0000
  Fe  Fe194     1.0  0.56940  0.56930  0.20257  1.0000
  S   S388      1.0  0.57130  0.53986  0.22755  1.0000
  S   S389      1.0  0.58621  0.59552  0.21299  1.0000
  Fe  Fe195     1.0  0.53434  0.56134  0.15687  1.0000
  S   S390      1.0  0.53308  0.53154  0.17794  1.0000
  S   S391      1.0  0.51308  0.57601  0.11853  1.0000
  Fe  Fe196     1.0  0.54091  0.54329  0.23569  1.0000
  S   S392      1.0  0.52774  0.52952  0.28613  1.0000
  Fe  Fe197     1.0  0.56331  0.53001  0.16781  1.0000
  S   S393      1.0  0.94823  0.55813  0.21492  1.0000
  S   S394      1.0  0.53941  0.57347  0.21591  1.0000
  S   S395      1.0  0.56411  0.55907  0.14156  1.0000
  Fe  Fe198     1.0  0.66936  0.68356  0.35866  1.0000
  S   S396      1.0  0.69517  0.69002  0.32775  1.0000
  S   S397      1.0  0.65573  0.70557  0.39663  1.0000
  Fe  Fe199     1.0  0.66700  0.64381  0.32497  1.0000
  S   S398      1.0  0.69301  0.64693  0.29194  1.0000
  S   S399      1.0  0.65289  0.61549  0.32631  1.0000
  Fe  Fe200     1.0  0.70432  0.66067  0.34558  1.0000
  S   S400      1.0  0.73398  0.65487  0.36341  1.0000
  Fe  Fe201     1.0  0.68173  0.67604  0.27706  1.0000
  S   S401      1.0  0.68342  0.68675  0.21584  1.0000
  S   S402      1.0  0.67942  0.65509  0.38038  1.0000
  S   S403      1.0  0.65480  0.67201  0.30619  1.0000
  Fe  Fe202     1.0  0.81365  0.63377  0.09815  1.0000
  S   S404      1.0  0.78742  0.64408  0.12578  1.0000
  S   S405      1.0  0.82413  0.60426  0.11637  1.0000
  Fe  Fe203     1.0  0.81560  0.66982  0.05094  1.0000
  S   S406      1.0  0.79002  0.68310  0.07566  1.0000
  H   H1163     1.0  0.71702  0.71983  0.44664  1.0000
  Fe  Fe204     1.0  0.80109  0.67185  0.13211  1.0000
  S   S407      1.0  0.79565  0.68637  0.18901  1.0000
  Fe  Fe205     1.0  0.77824  0.65448  0.06717  1.0000
  S   S408      1.0  0.80309  0.64168  0.03836  1.0000
  S   S409      1.0  0.82806  0.66101  0.10865  1.0000
  H   H1164     1.0  0.48585  0.53971  0.39326  1.0000
  Fe  Fe206     1.0  0.91767  0.55525  0.20563  1.0000
  S   S410      1.0  0.92080  0.52664  0.17680  1.0000
  S   S411      1.0  0.90501  0.58227  0.17831  1.0000
  Fe  Fe207     1.0  0.95086  0.52893  0.18998  1.0000
  C   C1164     1.0  0.92614  0.57937  0.08317  1.0000
  H   H1165     1.0  0.72321  0.71668  0.21114  1.0000
  Fe  Fe208     1.0  0.91930  0.51450  0.23697  1.0000
  H   H1166     1.0  0.72210  0.65901  0.50272  1.0000
  H   H1167     1.0  0.91773  0.59023  0.09737  1.0000
  S   S412      1.0  0.91353  0.54290  0.26498  1.0000
  N   N98       1.0  0.83120  0.62642  0.21238  1.0000
  C   C1165     1.0  0.78948  0.69157  0.41903  1.0000
  H   H1168     1.0  0.80588  0.61618  0.19070  1.0000
  H   H1169     1.0  0.90589  0.50489  0.32276  1.0000
  C   C1166     1.0  0.68840  0.60598  0.39533  1.0000
  C   C1167     1.0  0.47240  0.56072  0.04544  1.0000
  C   C1168     1.0  0.80562  0.71540  0.23622  1.0000
  C   C1169     1.0  0.80875  0.70602  0.20108  1.0000
  C   C1170     1.0  0.82239  0.71220  0.17664  1.0000
  H   H1170     1.0  0.73409  0.59446  0.31955  1.0000
  C   C1171     1.0  0.47922  0.55436  0.18139  1.0000
  H   H1171     1.0  0.79515  0.71055  0.25528  1.0000
  H   H1172     1.0  0.82490  0.70498  0.14951  1.0000
  C   C1172     1.0  0.70259  0.72379  0.44698  1.0000
  C   C1173     1.0  0.83444  0.71698  0.42150  1.0000
  H   H1173     1.0  0.48292  0.58663  0.06868  1.0000
  H   H1174     1.0  0.84120  0.70762  0.40098  1.0000
  C   C1174     1.0  0.72523  0.68840  0.16110  1.0000
  C   C1175     1.0  0.84691  0.59805  0.13166  1.0000
  C   C1176     1.0  0.85066  0.58002  0.14777  1.0000
  C   C1177     1.0  0.86839  0.57484  0.16198  1.0000
  C   C1178     1.0  0.88255  0.58765  0.16001  1.0000
  C   C1179     1.0  0.87885  0.60558  0.14344  1.0000
  C   C1180     1.0  0.86112  0.61080  0.12939  1.0000
  H   H1175     1.0  0.83976  0.57004  0.14951  1.0000
  H   H1176     1.0  0.87105  0.56098  0.17458  1.0000
  H   H1177     1.0  0.88973  0.61559  0.14172  1.0000
  H   H1178     1.0  0.85844  0.62470  0.11700  1.0000
  C   C1181     1.0  0.68240  0.71141  0.20906  1.0000
  C   C1182     1.0  0.68517  0.72388  0.23993  1.0000
  C   C1183     1.0  0.54594  0.59602  0.34894  1.0000
  C   C1184     1.0  0.67749  0.73834  0.16585  1.0000
  C   C1185     1.0  0.75853  0.74092  0.45168  1.0000
  C   C1186     1.0  0.67873  0.71869  0.17197  1.0000
  H   H1179     1.0  0.68819  0.71843  0.26855  1.0000
  C   C1187     1.0  0.71438  0.67985  0.09735  1.0000
  H   H1180     1.0  0.67655  0.70908  0.14799  1.0000
  C   C1188     1.0  0.67141  0.71822  0.42507  1.0000
  C   C1189     1.0  0.69012  0.71314  0.42539  1.0000
  H   H1181     1.0  0.54575  0.54950  0.37420  1.0000
  S   S413      1.0  0.74823  0.65538  0.04879  1.0000
  H   H1182     1.0  0.69501  0.70099  0.40903  1.0000
  H   H1183     1.0  0.70593  0.70337  0.06077  1.0000
  H   H1184     1.0  0.74214  0.71526  0.02072  1.0000
  C   C1190     1.0  0.74022  0.65573  0.41279  1.0000
  C   C1191     1.0  0.72707  0.65834  0.44143  1.0000
  C   C1192     1.0  0.73239  0.65745  0.48068  1.0000
  S   S414      1.0  0.83388  0.68601  0.46947  1.0000
  C   C1193     1.0  0.76412  0.65239  0.46276  1.0000
  C   C1194     1.0  0.75873  0.65273  0.42358  1.0000
  H   H1185     1.0  0.71276  0.66065  0.43338  1.0000
  C   C1195     1.0  0.54937  0.56226  0.35904  1.0000
  H   H1186     1.0  0.77842  0.64993  0.47083  1.0000
  H   H1187     1.0  0.76892  0.65042  0.40154  1.0000
  H   H1188     1.0  0.81092  0.61129  0.24134  1.0000
  N   N99       1.0  0.55733  0.59468  0.31791  1.0000
  C   C1196     1.0  0.60514  0.60028  0.24406  1.0000
  C   C1197     1.0  0.61281  0.58679  0.26974  1.0000
  C   C1198     1.0  0.62742  0.59165  0.29478  1.0000
  C   C1199     1.0  0.63458  0.60992  0.29418  1.0000
  C   C1200     1.0  0.62694  0.62333  0.26841  1.0000
  C   C1201     1.0  0.61227  0.61854  0.24362  1.0000
  H   H1189     1.0  0.60761  0.57263  0.27014  1.0000
  H   H1190     1.0  0.63330  0.58116  0.31453  1.0000
  H   H1191     1.0  0.63230  0.63743  0.26759  1.0000
  H   H1192     1.0  0.60643  0.62906  0.22387  1.0000
  N   N100      1.0  0.77917  0.70873  0.43092  1.0000
  C   C1202     1.0  0.48746  0.53179  0.06883  1.0000
  C   C1203     1.0  0.49939  0.54239  0.09192  1.0000
  C   C1204     1.0  0.49788  0.56220  0.09162  1.0000
  C   C1205     1.0  0.48420  0.57131  0.06881  1.0000
  Fe  Fe209     1.0  0.94428  0.54361  0.27148  1.0000
  C   C1206     1.0  0.83289  0.72773  0.18750  1.0000
  H   H1193     1.0  0.50992  0.53527  0.10936  1.0000
  N   N101      1.0  0.64281  0.73324  0.26677  1.0000
  C   C1207     1.0  0.71710  0.61258  0.42758  1.0000
  C   C1208     1.0  0.49132  0.56593  0.36478  1.0000
  C   C1209     1.0  0.49274  0.54628  0.36967  1.0000
  C   C1210     1.0  0.50370  0.53517  0.34485  1.0000
  C   C1211     1.0  0.51305  0.54364  0.31478  1.0000
  C   C1212     1.0  0.51108  0.56319  0.30893  1.0000
  C   C1213     1.0  0.50033  0.57433  0.33410  1.0000
  S   S415      1.0  0.47947  0.58040  0.39801  1.0000
  H   H1194     1.0  0.50516  0.52003  0.34942  1.0000
  H   H1195     1.0  0.51830  0.56985  0.28595  1.0000
  H   H1196     1.0  0.49919  0.58954  0.33020  1.0000
  H   H1197     1.0  0.79277  0.72676  0.39200  1.0000
  H   H1198     1.0  0.53427  0.57542  0.03485  1.0000
  C   C1214     1.0  0.81607  0.73096  0.24698  1.0000
  C   C1215     1.0  0.72675  0.72152  0.18171  1.0000
  H   H1199     1.0  0.67368  0.60405  0.39605  1.0000
  C   C1216     1.0  0.72144  0.67447  0.13355  1.0000
  C   C1217     1.0  0.81332  0.71804  0.01256  1.0000
  H   H1200     1.0  0.72490  0.61591  0.45362  1.0000
  C   C1218     1.0  0.72578  0.61157  0.39185  1.0000
  H   H1201     1.0  0.54173  0.49729  0.23242  1.0000
  H   H1202     1.0  0.68968  0.60231  0.33386  1.0000
  S   S416      1.0  0.57385  0.50140  0.14743  1.0000
  H   H1203     1.0  0.48977  0.52523  0.25716  1.0000
  H   H1204     1.0  0.81367  0.73800  0.27427  1.0000
  C   C1219     1.0  0.56594  0.50867  0.07036  1.0000
  H   H1205     1.0  0.91567  0.55670  0.11684  1.0000
  H   H1206     1.0  0.55480  0.62467  0.30727  1.0000
  C   C1220     1.0  0.92501  0.56048  0.09425  1.0000
  C   C1221     1.0  0.47229  0.51841  0.20833  1.0000
  H   H1207     1.0  0.56634  0.54731  0.31787  1.0000
  C   C1222     1.0  0.75536  0.72351  0.46891  1.0000
  H   H1208     1.0  0.72403  0.65959  0.14009  1.0000
  H   H1209     1.0  0.80263  0.69499  0.40529  1.0000
  H   H1210     1.0  0.71147  0.66913  0.07579  1.0000
  H   H1211     1.0  0.56156  0.51374  0.00930  1.0000
  H   H1212     1.0  0.53238  0.58084  0.39394  1.0000
  H   H1213     1.0  0.53750  0.54053  0.03880  1.0000
  C   C1223     1.0  0.56989  0.49501  0.09883  1.0000
  H   H1214     1.0  0.74035  0.61421  0.39064  1.0000
  N   N102      1.0  0.72209  0.70718  0.15275  1.0000
  C   C1224     1.0  0.48373  0.53012  0.22992  1.0000
  H   H1215     1.0  0.46953  0.50444  0.21936  1.0000
  H   H1216     1.0  0.76307  0.69387  0.47101  1.0000
  H   H1217     1.0  0.93552  0.53191  0.08557  1.0000
  H   H1218     1.0  0.48881  0.51648  0.06868  1.0000
  H   H1219     1.0  0.87733  0.62964  0.22055  1.0000
  C   C1225     1.0  0.64742  0.73013  0.30480  1.0000
  C   C1226     1.0  0.69752  0.60513  0.36009  1.0000
  C   C1227     1.0  0.46777  0.54232  0.16061  1.0000
  H   H1220     1.0  0.64751  0.71592  0.31672  1.0000
  H   H1221     1.0  0.73057  0.68408  0.18931  1.0000
  H   H1222     1.0  0.83335  0.74108  0.38292  1.0000
  H   H1223     1.0  0.86863  0.66397  0.21377  1.0000
  H   H1224     1.0  0.85321  0.60594  0.21990  1.0000
  N   N103      1.0  0.71592  0.60824  0.35864  1.0000
  H   H1225     1.0  0.52298  0.51064  0.02966  1.0000
  H   H1226     1.0  0.57363  0.57644  0.28215  1.0000
  C   C1228     1.0  0.94788  0.55180  0.04723  1.0000
  C   C1229     1.0  0.93598  0.54658  0.07638  1.0000
  H   H1227     1.0  0.71304  0.72747  0.11020  1.0000
  C   C1230     1.0  0.48729  0.54816  0.21616  1.0000
  C   C1231     1.0  0.93826  0.58412  0.05408  1.0000
  C   C1232     1.0  0.75093  0.65451  0.49141  1.0000
  C   C1233     1.0  0.56479  0.57749  0.30702  1.0000
  H   H1228     1.0  0.69125  0.61103  0.45657  1.0000
  H   H1229     1.0  0.65071  0.73774  0.44701  1.0000
  H   H1230     1.0  0.71548  0.60804  0.29664  1.0000
  C   C1234     1.0  0.82969  0.73718  0.22259  1.0000
  H   H1231     1.0  0.53971  0.60955  0.35727  1.0000
  H   H1232     1.0  0.55687  0.60988  0.26502  1.0000
  C   C1235     1.0  0.54187  0.57985  0.37008  1.0000
  C   C1236     1.0  0.82989  0.71009  0.45801  1.0000
  C   C1237     1.0  0.56154  0.61157  0.29561  1.0000
  H   H1233     1.0  0.81194  0.64969  0.20593  1.0000
  C   C1238     1.0  0.85812  0.65343  0.21383  1.0000
  C   C1239     1.0  0.47421  0.54097  0.04498  1.0000
  C   C1240     1.0  0.82628  0.64524  0.20926  1.0000
  C   C1241     1.0  0.71137  0.69902  0.08892  1.0000
  H   H1234     1.0  0.49628  0.55731  0.23241  1.0000
  N   N104      1.0  0.94901  0.57041  0.03668  1.0000
  H   H1235     1.0  0.73408  0.62013  0.31870  1.0000
  C   C1242     1.0  0.82125  0.72226  0.48441  1.0000
  C   C1243     1.0  0.86300  0.63423  0.21778  1.0000
  C   C1244     1.0  0.84926  0.62085  0.21734  1.0000
  H   H1236     1.0  0.80909  0.71289  0.04022  1.0000
  H   H1237     1.0  0.64034  0.72029  0.21100  1.0000
  C   C1245     1.0  0.81669  0.74101  0.47409  1.0000
  C   C1246     1.0  0.72535  0.60759  0.32154  1.0000
  H   H1238     1.0  0.82247  0.59812  0.20323  1.0000
  H   H1239     1.0  0.83565  0.67390  0.20683  1.0000
  H   H1240     1.0  0.78114  0.68339  0.39812  1.0000
  C   C1247     1.0  0.56390  0.50311  0.03144  1.0000
  C   C1248     1.0  0.83964  0.65901  0.20983  1.0000
  C   C1249     1.0  0.77215  0.74209  0.42401  1.0000
  H   H1241     1.0  0.57662  0.61357  0.29584  1.0000
  C   C1250     1.0  0.81690  0.61230  0.21220  1.0000
  C   C1251     1.0  0.71546  0.71260  0.11704  1.0000
  C   C1252     1.0  0.69825  0.60989  0.42921  1.0000
  H   H1242     1.0  0.56517  0.52351  0.07818  1.0000
  H   H1243     1.0  0.84345  0.73251  0.16857  1.0000
  C   C1253     1.0  0.76577  0.70743  0.45790  1.0000
  C   C1254     1.0  0.63796  0.71721  0.24199  1.0000
  S   S417      1.0  0.94965  0.51463  0.24741  1.0000
  C   C1255     1.0  0.66519  0.73378  0.44708  1.0000
  H   H1244     1.0  0.62333  0.71385  0.24583  1.0000
  H   H1245     1.0  0.79320  0.68257  0.44451  1.0000
  S   S418      1.0  0.71104  0.74149  0.03001  1.0000
  H   H1246     1.0  0.48194  0.56838  0.17042  1.0000
  H   H1247     1.0  0.71884  0.73506  0.17657  1.0000
  H   H1248     1.0  0.74476  0.72251  0.49033  1.0000
  C   C1256     1.0  0.52745  0.54685  0.01879  1.0000
  C   C1257     1.0  0.69642  0.73946  0.46869  1.0000
  H   H1249     1.0  0.64673  0.70445  0.24911  1.0000
  H   H1250     1.0  0.74168  0.72413  0.18098  1.0000
  C   C1258     1.0  0.52581  0.56662  0.01644  1.0000
  H   H1251     1.0  0.93911  0.59885  0.04568  1.0000
  H   H1252     1.0  0.95659  0.54095  0.03394  1.0000
  C   C1259     1.0  0.83001  0.73590  0.41125  1.0000
  C   C1260     1.0  0.78227  0.72572  0.41366  1.0000
  S   S419      1.0  0.95767  0.55195  0.32787  1.0000
  N   N105      1.0  0.46467  0.52447  0.17389  1.0000
  H   H1253     1.0  0.76142  0.68677  0.00646  1.0000
  H   H1254     1.0  0.58756  0.58605  0.64663  1.0000
  Fe  Fe210     1.0  0.58118  0.55785  0.72130  1.0000
  S   S420      1.0  0.57588  0.53123  0.75433  1.0000
  S   S421      1.0  0.60854  0.57209  0.71620  1.0000
  Fe  Fe211     1.0  0.54252  0.56013  0.68706  1.0000
  S   S422      1.0  0.53371  0.53412  0.71756  1.0000
  S   S423      1.0  0.52620  0.57780  0.64368  1.0000
  Fe  Fe212     1.0  0.54892  0.54571  0.76867  1.0000
  S   S424      1.0  0.53751  0.54214  0.82820  1.0000
  Fe  Fe213     1.0  0.56101  0.52146  0.70080  1.0000
  H   H1255     1.0  0.92406  0.49976  0.87623  1.0000
  S   S425      1.0  0.55535  0.57318  0.73993  1.0000
  S   S426      1.0  0.56874  0.54662  0.66605  1.0000
  Fe  Fe214     1.0  0.67190  0.69310  0.85317  1.0000
  S   S427      1.0  0.69936  0.68906  0.82605  1.0000
  S   S428      1.0  0.66409  0.72088  0.88119  1.0000
  Fe  Fe215     1.0  0.65862  0.65470  0.82635  1.0000
  S   S429      1.0  0.68517  0.64736  0.79685  1.0000
  S   S430      1.0  0.63389  0.63624  0.83316  1.0000
  Fe  Fe216     1.0  0.69887  0.65960  0.84969  1.0000
  S   S431      1.0  0.72514  0.64551  0.87265  1.0000
  Fe  Fe217     1.0  0.68354  0.67750  0.77574  1.0000
  S   S432      1.0  0.69268  0.68620  0.71675  1.0000
  S   S433      1.0  0.67253  0.66452  0.88136  1.0000
  S   S434      1.0  0.65588  0.68395  0.80078  1.0000
  Fe  Fe218     1.0  0.82346  0.65414  0.59898  1.0000
  S   S435      1.0  0.79530  0.66479  0.61699  1.0000
  S   S436      1.0  0.83882  0.63602  0.64479  1.0000
  S   S437      1.0  0.90989  0.49378  0.73762  1.0000
  S   S438      1.0  0.79324  0.69009  0.53820  1.0000
  H   H1256     1.0  0.81812  0.71727  0.51292  1.0000
  Fe  Fe219     1.0  0.80409  0.69338  0.59860  1.0000
  S   S439      1.0  0.79411  0.71930  0.63129  1.0000
  Fe  Fe220     1.0  0.78648  0.66076  0.55519  1.0000
  H   H1257     1.0  0.70002  0.58768  0.85545  1.0000
  S   S440      1.0  0.83283  0.68345  0.58492  1.0000
  H   H1258     1.0  0.70966  0.61054  0.84658  1.0000
  Fe  Fe221     1.0  0.92014  0.55717  0.67045  1.0000
  S   S441      1.0  0.92624  0.52653  0.65572  1.0000
  S   S442      1.0  0.90308  0.57333  0.62440  1.0000
  C   C1261     1.0  0.50753  0.52435  0.54221  1.0000
  H   H1259     1.0  0.83946  0.58494  0.63577  1.0000
  H   H1260     1.0  0.75893  0.74111  0.60777  1.0000
  Fe  Fe222     1.0  0.92355  0.52047  0.71893  1.0000
  S   S443      1.0  0.94999  0.56345  0.68041  1.0000
  H   H1261     1.0  0.86773  0.54653  0.73143  1.0000
  S   S444      1.0  0.91474  0.55051  0.73282  1.0000
  H   H1262     1.0  0.76771  0.63920  0.98330  1.0000
  C   C1262     1.0  0.82441  0.70656  0.98893  1.0000
  H   H1263     1.0  0.47656  0.53256  0.64004  1.0000
  C   C1263     1.0  0.70948  0.70609  0.55406  1.0000
  C   C1264     1.0  0.70347  0.68153  0.61453  1.0000
  H   H1264     1.0  0.52755  0.50930  0.97860  1.0000
  H   H1265     1.0  0.82930  0.56491  0.61209  1.0000
  C   C1265     1.0  0.80840  0.72735  0.66888  1.0000
  C   C1266     1.0  0.82693  0.72159  0.67149  1.0000
  H   H1266     1.0  0.84772  0.56969  0.69534  1.0000
  C   C1267     1.0  0.70171  0.71873  0.96898  1.0000
  H   H1267     1.0  0.70104  0.67217  0.63864  1.0000
  H   H1268     1.0  0.83283  0.71242  0.64961  1.0000
  H   H1269     1.0  0.47823  0.50321  0.55238  1.0000
  C   C1268     1.0  0.83014  0.71359  0.95338  1.0000
  H   H1270     1.0  0.79973  0.68576  0.93802  1.0000
  H   H1271     1.0  0.83880  0.70479  0.93508  1.0000
  C   C1269     1.0  0.50143  0.56350  0.96899  1.0000
  C   C1270     1.0  0.85783  0.61993  0.63858  1.0000
  C   C1271     1.0  0.86594  0.61108  0.67138  1.0000
  C   C1272     1.0  0.88027  0.59728  0.66772  1.0000
  C   C1273     1.0  0.88653  0.59205  0.63110  1.0000
  C   C1274     1.0  0.87862  0.60113  0.59836  1.0000
  C   C1275     1.0  0.86439  0.61502  0.60202  1.0000
  H   H1272     1.0  0.86099  0.61478  0.69981  1.0000
  H   H1273     1.0  0.88628  0.59050  0.69317  1.0000
  H   H1274     1.0  0.88338  0.59723  0.56988  1.0000
  H   H1275     1.0  0.85830  0.62171  0.57653  1.0000
  C   C1276     1.0  0.68545  0.70927  0.70325  1.0000
  C   C1277     1.0  0.66754  0.71601  0.71006  1.0000
  C   C1278     1.0  0.78670  0.68255  0.95250  1.0000
  S   S445      1.0  0.95455  0.56900  0.79604  1.0000
  C   C1279     1.0  0.77805  0.71599  0.94029  1.0000
  C   C1280     1.0  0.69740  0.72053  0.68286  1.0000
  H   H1276     1.0  0.65817  0.70729  0.72538  1.0000
  C   C1281     1.0  0.87725  0.53236  0.67998  1.0000
  H   H1277     1.0  0.71133  0.71543  0.67784  1.0000
  C   C1282     1.0  0.67728  0.72640  0.92243  1.0000
  C   C1283     1.0  0.69137  0.71403  0.93588  1.0000
  N   N106      1.0  0.55078  0.49371  0.86215  1.0000
  H   H1278     1.0  0.96209  0.59336  0.52279  1.0000
  H   H1279     1.0  0.69422  0.70081  0.92091  1.0000
  H   H1280     1.0  0.91903  0.51244  0.80988  1.0000
  C   C1284     1.0  0.69086  0.69631  0.60544  1.0000
  C   C1285     1.0  0.73192  0.64970  0.92096  1.0000
  C   C1286     1.0  0.72008  0.65893  0.94678  1.0000
  C   C1287     1.0  0.83784  0.72764  0.70275  1.0000
  C   C1288     1.0  0.57428  0.49274  0.57077  1.0000
  C   C1289     1.0  0.75448  0.64482  0.97322  1.0000
  C   C1290     1.0  0.74916  0.64275  0.93422  1.0000
  H   H1281     1.0  0.70681  0.66445  0.93675  1.0000
  C   C1291     1.0  0.75225  0.71564  0.99814  1.0000
  H   H1282     1.0  0.71129  0.61460  0.91764  1.0000
  H   H1283     1.0  0.75835  0.63555  0.91436  1.0000
  H   H1284     1.0  0.95346  0.57892  0.97886  1.0000
  H   H1285     1.0  0.69499  0.62803  0.97396  1.0000
  C   C1292     1.0  0.61591  0.58917  0.75010  1.0000
  C   C1293     1.0  0.63199  0.59897  0.74303  1.0000
  C   C1294     1.0  0.63773  0.61341  0.76824  1.0000
  C   C1295     1.0  0.62745  0.61808  0.80085  1.0000
  C   C1296     1.0  0.61147  0.60816  0.80810  1.0000
  C   C1297     1.0  0.60567  0.59380  0.78279  1.0000
  H   H1286     1.0  0.63995  0.59550  0.71772  1.0000
  H   H1287     1.0  0.65003  0.62098  0.76231  1.0000
  H   H1288     1.0  0.60344  0.61168  0.83331  1.0000
  H   H1289     1.0  0.59325  0.58639  0.78848  1.0000
  Fe  Fe223     1.0  0.82112  0.67766  0.52555  1.0000
  C   C1298     1.0  0.48263  0.54438  0.62588  1.0000
  C   C1299     1.0  0.49830  0.55244  0.64226  1.0000
  C   C1300     1.0  0.50644  0.56756  0.62391  1.0000
  C   C1301     1.0  0.49879  0.57461  0.58915  1.0000
  H   H1290     1.0  0.50426  0.50847  0.99615  1.0000
  H   H1291     1.0  0.47806  0.54875  0.89193  1.0000
  H   H1292     1.0  0.50390  0.54711  0.66931  1.0000
  H   H1293     1.0  0.57940  0.60536  0.61566  1.0000
  C   C1302     1.0  0.84244  0.57182  0.61879  1.0000
  C   C1303     1.0  0.47713  0.56130  0.83531  1.0000
  C   C1304     1.0  0.48573  0.55162  0.86627  1.0000
  C   C1305     1.0  0.50432  0.54577  0.86398  1.0000
  C   C1306     1.0  0.51426  0.54944  0.83063  1.0000
  C   C1307     1.0  0.50558  0.55892  0.79957  1.0000
  C   C1308     1.0  0.48707  0.56489  0.80197  1.0000
  H   H1294     1.0  0.56357  0.51983  0.87566  1.0000
  H   H1295     1.0  0.51102  0.53836  0.88789  1.0000
  H   H1296     1.0  0.51318  0.56191  0.77385  1.0000
  H   H1297     1.0  0.48051  0.57245  0.77803  1.0000
  H   H1298     1.0  0.72925  0.66769  0.59941  1.0000
  N   N107      1.0  0.83893  0.67995  0.72601  1.0000
  C   C1309     1.0  0.82247  0.67736  0.70750  1.0000
  C   C1310     1.0  0.83975  0.69047  0.75928  1.0000
  C   C1311     1.0  0.80632  0.68602  0.72133  1.0000
  C   C1312     1.0  0.82384  0.69917  0.77417  1.0000
  C   C1313     1.0  0.80707  0.69707  0.75478  1.0000
  C   C1314     1.0  0.85563  0.67097  0.71025  1.0000
  H   H1299     1.0  0.82186  0.66889  0.68137  1.0000
  H   H1300     1.0  0.85279  0.69279  0.77384  1.0000
  H   H1301     1.0  0.79343  0.68459  0.70554  1.0000
  H   H1302     1.0  0.82471  0.70824  0.79951  1.0000
  H   H1303     1.0  0.79479  0.70440  0.76512  1.0000
  H   H1304     1.0  0.85608  0.65556  0.71679  1.0000
  H   H1305     1.0  0.85580  0.67265  0.67826  1.0000
  H   H1306     1.0  0.86825  0.67740  0.72214  1.0000
  H   H1307     1.0  0.68846  0.60475  0.82365  1.0000
  C   C1315     1.0  0.94431  0.55587  0.56832  1.0000
  C   C1316     1.0  0.65842  0.61960  0.91469  1.0000
  C   C1317     1.0  0.69613  0.74227  0.80853  1.0000
  N   N108      1.0  0.77594  0.69988  0.96144  1.0000
  C   C1318     1.0  0.57115  0.49779  0.60943  1.0000
  H   H1308     1.0  0.50499  0.58636  0.57488  1.0000
  H   H1309     1.0  0.52916  0.51845  0.60433  1.0000
  C   C1319     1.0  0.71932  0.67910  0.59275  1.0000
  H   H1310     1.0  0.86491  0.54537  0.58865  1.0000
  H   H1311     1.0  0.57580  0.51117  0.62046  1.0000
  C   C1320     1.0  0.66812  0.62540  0.94756  1.0000
  C   C1321     1.0  0.48323  0.56639  0.57249  1.0000
  C   C1322     1.0  0.68724  0.62346  0.94871  1.0000
  H   H1312     1.0  0.79070  0.67478  0.97944  1.0000
  H   H1313     1.0  0.93922  0.58599  0.57256  1.0000
  C   C1323     1.0  0.69640  0.61593  0.91665  1.0000
  H   H1314     1.0  0.67861  0.69810  0.62266  1.0000
  N   N109      1.0  0.68681  0.61078  0.88414  1.0000
  C   C1324     1.0  0.51783  0.51501  0.00046  1.0000
  H   H1315     1.0  0.85212  0.72301  0.70502  1.0000
  H   H1316     1.0  0.55152  0.50961  0.91455  1.0000
  C   C1325     1.0  0.68084  0.72404  0.56671  1.0000
  H   H1317     1.0  0.84865  0.57640  0.59137  1.0000
  H   H1318     1.0  0.78828  0.71637  0.91794  1.0000
  C   C1326     1.0  0.56026  0.50616  0.88937  1.0000
  C   C1327     1.0  0.55333  0.49550  0.82326  1.0000
  C   C1328     1.0  0.86689  0.54599  0.70010  1.0000
  H   H1319     1.0  0.71184  0.71550  0.53014  1.0000
  C   C1329     1.0  0.48829  0.50200  0.57585  1.0000
  C   C1330     1.0  0.66805  0.61215  0.88316  1.0000
  S   S446      1.0  0.75726  0.65310  0.54067  1.0000
  C   C1331     1.0  0.91946  0.49728  0.81469  1.0000
  H   H1320     1.0  0.66168  0.73030  0.79561  1.0000
  H   H1321     1.0  0.67233  0.72804  0.59206  1.0000
  S   S447      1.0  0.95336  0.52389  0.73189  1.0000
  N   N110      1.0  0.85495  0.55868  0.63996  1.0000
  H   H1322     1.0  0.51454  0.53736  0.55180  1.0000
  H   H1323     1.0  0.51625  0.51648  0.52117  1.0000
  C   C1332     1.0  0.66148  0.73375  0.69552  1.0000
  C   C1333     1.0  0.94705  0.57467  0.55838  1.0000
  C   C1334     1.0  0.87648  0.53211  0.63967  1.0000
  H   H1324     1.0  0.47754  0.57178  0.54545  1.0000
  C   C1335     1.0  0.75440  0.73219  0.97699  1.0000
  H   H1325     1.0  0.56175  0.50657  0.81238  1.0000
  S   S448      1.0  0.81372  0.64751  0.53813  1.0000
  N   N111      1.0  0.57443  0.60932  0.67537  1.0000
  C   C1336     1.0  0.58984  0.61633  0.69256  1.0000
  C   C1337     1.0  0.55740  0.61433  0.68887  1.0000
  C   C1338     1.0  0.58849  0.62816  0.72497  1.0000
  C   C1339     1.0  0.55555  0.62596  0.72149  1.0000
  C   C1340     1.0  0.57124  0.63282  0.73974  1.0000
  C   C1341     1.0  0.57632  0.59689  0.64157  1.0000
  H   H1326     1.0  0.60335  0.61231  0.68192  1.0000
  H   H1327     1.0  0.54514  0.60899  0.67499  1.0000
  H   H1328     1.0  0.60081  0.63326  0.73914  1.0000
  H   H1329     1.0  0.54205  0.62942  0.73274  1.0000
  H   H1330     1.0  0.57008  0.64161  0.76543  1.0000
  H   H1331     1.0  0.56360  0.58904  0.63561  1.0000
  H   H1332     1.0  0.88607  0.52216  0.69557  1.0000
  C   C1342     1.0  0.69802  0.73583  0.98858  1.0000
  C   C1343     1.0  0.69671  0.60297  0.85085  1.0000
  H   H1333     1.0  0.77852  0.67317  0.93355  1.0000
  H   H1334     1.0  0.88485  0.52187  0.62379  1.0000
  C   C1344     1.0  0.76745  0.73243  0.94797  1.0000
  N   N112      1.0  0.69415  0.70860  0.57602  1.0000
  H   H1335     1.0  0.49450  0.52923  0.52753  1.0000
  C   C1345     1.0  0.86517  0.54544  0.62000  1.0000
  H   H1336     1.0  0.64355  0.62127  0.91308  1.0000
  Fe  Fe224     1.0  0.94512  0.55438  0.74168  1.0000
  C   C1346     1.0  0.85565  0.55905  0.67952  1.0000
  H   H1337     1.0  0.67168  0.71975  0.54242  1.0000
  H   H1338     1.0  0.82903  0.73725  0.91375  1.0000
  C   C1347     1.0  0.72525  0.66066  0.98592  1.0000
  H   H1339     1.0  0.69309  0.73265  0.83182  1.0000
  Fe  Fe225     1.0  0.95561  0.53239  0.66971  1.0000
  C   C1348     1.0  0.72233  0.69139  0.56220  1.0000
  C   C1349     1.0  0.51268  0.57496  0.99140  1.0000
  H   H1340     1.0  0.73455  0.68945  0.54496  1.0000
  H   H1341     1.0  0.66038  0.60782  0.85763  1.0000
  C   C1350     1.0  0.47510  0.55128  0.59090  1.0000
  H   H1342     1.0  0.49103  0.56984  0.94973  1.0000
  C   C1351     1.0  0.95997  0.57871  0.53035  1.0000
  H   H1343     1.0  0.58124  0.50236  0.55215  1.0000
  H   H1344     1.0  0.68796  0.73701  0.55807  1.0000
  H   H1345     1.0  0.72543  0.73976  0.81876  1.0000
  C   C1352     1.0  0.76316  0.69953  0.98987  1.0000
  N   N113      1.0  0.50394  0.51220  0.57532  1.0000
  H   H1346     1.0  0.71247  0.70903  0.97941  1.0000
  S   S449      1.0  0.83072  0.68314  0.00223  1.0000
  C   C1353     1.0  0.80095  0.73950  0.69705  1.0000
  H   H1347     1.0  0.49414  0.53499  0.95567  1.0000
  C   C1354     1.0  0.51342  0.49911  0.63679  1.0000
  H   H1348     1.0  0.93449  0.55260  0.59029  1.0000
  C   C1355     1.0  0.51660  0.51061  0.60493  1.0000
  H   H1349     1.0  0.66082  0.63154  0.97189  1.0000
  C   C1356     1.0  0.50331  0.54378  0.97237  1.0000
  N   N114      1.0  0.51606  0.53572  0.99738  1.0000
  C   C1357     1.0  0.74240  0.65349  0.99930  1.0000
  C   C1358     1.0  0.82462  0.73193  0.94127  1.0000
  C   C1359     1.0  0.69140  0.73833  0.66878  1.0000
  H   H1350     1.0  0.64749  0.73876  0.70019  1.0000
  H   H1351     1.0  0.95939  0.50815  0.86146  1.0000
  H   H1352     1.0  0.95268  0.52672  0.55857  1.0000
  H   H1353     1.0  0.52332  0.49810  0.66049  1.0000
  H   H1354     1.0  0.57317  0.49898  0.90008  1.0000
  C   C1360     1.0  0.80789  0.73639  0.00056  1.0000
  H   H1355     1.0  0.51102  0.59028  0.98990  1.0000
  C   C1361     1.0  0.83021  0.73931  0.73157  1.0000
  C   C1362     1.0  0.95437  0.54135  0.55018  1.0000
  C   C1363     1.0  0.96139  0.57578  0.00591  1.0000
  H   H1356     1.0  0.71592  0.66762  0.00576  1.0000
  H   H1357     1.0  0.53298  0.87567  0.40468  1.0000
  Fe  Fe226     1.0  0.68214  0.80783  0.05900  1.0000
  H   H1358     1.0  0.80987  0.77042  0.09389  1.0000
  H   H1359     1.0  0.53281  0.95362  0.31490  1.0000
  Fe  Fe227     1.0  0.68598  0.78461  0.13267  1.0000
  S   S450      1.0  0.71375  0.77251  0.11834  1.0000
  S   S451      1.0  0.67607  0.77532  0.19058  1.0000
  Fe  Fe228     1.0  0.71976  0.80187  0.10011  1.0000
  S   S452      1.0  0.74840  0.81232  0.11045  1.0000
  H   H1360     1.0  0.65664  0.77521  0.33193  1.0000
  H   H1361     1.0  0.48714  0.94202  0.38812  1.0000
  S   S453      1.0  0.69278  0.81479  0.11896  1.0000
  S   S454      1.0  0.67324  0.77844  0.07439  1.0000
  Fe  Fe229     1.0  0.55823  0.92308  0.42843  1.0000
  S   S455      1.0  0.55161  0.95272  0.44752  1.0000
  S   S456      1.0  0.54808  0.91153  0.37144  1.0000
  N   N115      1.0  0.96050  0.92819  0.12520  1.0000
  C   C1364     1.0  0.51671  0.90969  0.05341  1.0000
  C   C1365     1.0  0.67973  0.75080  0.19695  1.0000
  H   H1362     1.0  0.52641  0.90253  0.03474  1.0000
  N   N116      1.0  0.53910  0.98017  0.34000  1.0000
  Fe  Fe230     1.0  0.58151  0.95376  0.46215  1.0000
  H   H1363     1.0  0.95788  0.97203  0.16465  1.0000
  H   H1364     1.0  0.59681  0.86222  0.41144  1.0000
  S   S457      1.0  0.58872  0.92468  0.43862  1.0000
  Fe  Fe231     1.0  0.58297  0.91404  0.49851  1.0000
  Fe  Fe232     1.0  0.70188  0.76875  0.05891  1.0000
  Fe  Fe233     1.0  0.94104  0.91425  0.46426  1.0000
  C   C1366     1.0  0.54265  0.87083  0.42709  1.0000
  S   S458      1.0  0.91356  0.90028  0.47019  1.0000
  C   C1367     1.0  0.69038  0.86295  0.08534  1.0000
  C   C1368     1.0  0.53644  0.86543  0.46322  1.0000
  H   H1365     1.0  0.50991  0.88414  0.08337  1.0000
  S   S459      1.0  0.52381  0.94253  0.01404  1.0000
  H   H1366     1.0  0.74469  0.83517  0.04261  1.0000
  Fe  Fe234     1.0  0.82098  0.78174  0.36623  1.0000
  S   S460      1.0  0.84855  0.77962  0.33893  1.0000
  S   S461      1.0  0.81384  0.77119  0.42532  1.0000
  Fe  Fe235     1.0  0.80430  0.80590  0.30209  1.0000
  S   S462      1.0  0.83054  0.80643  0.27025  1.0000
  S   S463      1.0  0.77724  0.81973  0.28385  1.0000
  Fe  Fe236     1.0  0.83254  0.77548  0.28387  1.0000
  C   C1369     1.0  0.51556  0.98242  0.10497  1.0000
  Fe  Fe237     1.0  0.84657  0.81244  0.32831  1.0000
  S   S464      1.0  0.88177  0.84464  0.34159  1.0000
  S   S465      1.0  0.80518  0.77461  0.31230  1.0000
  S   S466      1.0  0.81814  0.81316  0.35826  1.0000
  H   H1367     1.0  0.64784  0.78067  0.26276  1.0000
  H   H1368     1.0  0.56625  0.87553  0.39264  1.0000
  C   C1370     1.0  0.91471  0.95689  0.11884  1.0000
  C   C1371     1.0  0.91516  0.94872  0.08164  1.0000
  H   H1369     1.0  0.74802  0.77115  0.17944  1.0000
  H   H1370     1.0  0.91310  0.94798  0.14387  1.0000
  H   H1371     1.0  0.91379  0.93361  0.07812  1.0000
  C   C1372     1.0  0.90432  0.88576  0.43333  1.0000
  C   C1373     1.0  0.88815  0.87614  0.44036  1.0000
  C   C1374     1.0  0.88091  0.86362  0.41269  1.0000
  C   C1375     1.0  0.88981  0.86056  0.37756  1.0000
  C   C1376     1.0  0.90591  0.87032  0.37047  1.0000
  C   C1377     1.0  0.91317  0.88283  0.39818  1.0000
  H   H1372     1.0  0.88121  0.87837  0.46747  1.0000
  H   H1373     1.0  0.86845  0.85653  0.41882  1.0000
  H   H1374     1.0  0.91289  0.86818  0.34337  1.0000
  H   H1375     1.0  0.92564  0.89015  0.39239  1.0000
  C   C1378     1.0  0.75624  0.81440  0.15873  1.0000
  C   C1379     1.0  0.77514  0.81562  0.16658  1.0000
  C   C1380     1.0  0.78178  0.81679  0.20493  1.0000
  C   C1381     1.0  0.76949  0.81727  0.23556  1.0000
  C   C1382     1.0  0.75059  0.81625  0.22763  1.0000
  C   C1383     1.0  0.74399  0.81453  0.18937  1.0000
  H   H1376     1.0  0.78468  0.81549  0.14298  1.0000
  H   H1377     1.0  0.79635  0.81771  0.21075  1.0000
  H   H1378     1.0  0.74103  0.81670  0.25122  1.0000
  H   H1379     1.0  0.72940  0.81357  0.18365  1.0000
  H   H1380     1.0  0.92057  0.86015  0.49052  1.0000
  C   C1384     1.0  0.77444  0.77033  0.20845  1.0000
  H   H1381     1.0  0.77494  0.75558  0.41068  1.0000
  H   H1382     1.0  0.76110  0.76726  0.11430  1.0000
  H   H1383     1.0  0.76887  0.77266  0.23704  1.0000
  C   C1385     1.0  0.95195  0.84188  0.42824  1.0000
  C   C1386     1.0  0.51329  0.92922  0.04992  1.0000
  C   C1387     1.0  0.59359  0.86613  0.44174  1.0000
  H   H1384     1.0  0.47630  0.91450  0.02531  1.0000
  S   S467      1.0  0.46709  0.93561  0.31766  1.0000
  H   H1385     1.0  0.76010  0.78812  0.49874  1.0000
  N   N117      1.0  0.94961  0.86104  0.49842  1.0000
  C   C1388     1.0  0.50071  0.98714  0.12847  1.0000
  C   C1389     1.0  0.56154  0.87073  0.42043  1.0000
  C   C1390     1.0  0.64737  0.76658  0.27518  1.0000
  H   H1386     1.0  0.59141  0.96058  0.37860  1.0000
  H   H1387     1.0  0.80967  0.75012  0.49439  1.0000
  C   C1391     1.0  0.49480  0.90841  0.10563  1.0000
  C   C1392     1.0  0.50739  0.89929  0.08103  1.0000
  H   H1388     1.0  0.81522  0.76531  0.16333  1.0000
  C   C1393     1.0  0.87688  0.89516  0.01968  1.0000
  C   C1394     1.0  0.50070  0.93830  0.07452  1.0000
  C   C1395     1.0  0.49163  0.92799  0.10261  1.0000
  C   C1396     1.0  0.48963  0.92882  0.33211  1.0000
  C   C1397     1.0  0.61597  0.86698  0.01885  1.0000
  H   H1389     1.0  0.49781  0.95328  0.07151  1.0000
  C   C1398     1.0  0.63693  0.84362  0.05039  1.0000
  C   C1399     1.0  0.93393  0.85614  0.47910  1.0000
  C   C1400     1.0  0.49609  0.93405  0.36896  1.0000
  C   C1401     1.0  0.51398  0.92870  0.38139  1.0000
  C   C1402     1.0  0.52550  0.91816  0.35692  1.0000
  C   C1403     1.0  0.51909  0.91304  0.32001  1.0000
  C   C1404     1.0  0.50119  0.91838  0.30757  1.0000
  N   N118      1.0  0.57388  0.86520  0.44881  1.0000
  H   H1390     1.0  0.51874  0.93251  0.41008  1.0000
  H   H1391     1.0  0.52796  0.90491  0.30093  1.0000
  C   C1405     1.0  0.62101  0.85553  0.05083  1.0000
  S   S468      1.0  0.59291  0.98241  0.44946  1.0000
  H   H1392     1.0  0.65594  0.87190  0.47737  1.0000
  H   H1393     1.0  0.61246  0.85581  0.07610  1.0000
  H   H1394     1.0  0.87343  0.85689  0.01885  1.0000
  H   H1395     1.0  0.91947  0.98889  0.02906  1.0000
  S   S469      1.0  0.71003  0.79732  0.03907  1.0000
  C   C1406     1.0  0.54487  0.96127  0.32623  1.0000
  C   C1407     1.0  0.65239  0.74517  0.32881  1.0000
  H   H1396     1.0  0.75031  0.75341  0.45953  1.0000
  C   C1408     1.0  0.71980  0.84852  0.06426  1.0000
  N   N119      1.0  0.78891  0.76608  0.13496  1.0000
  C   C1409     1.0  0.91649  0.97651  0.12377  1.0000
  C   C1410     1.0  0.82097  0.74789  0.43757  1.0000
  S   S470      1.0  0.66818  0.82823  0.01536  1.0000
  H   H1397     1.0  0.68594  0.75314  0.25787  1.0000
  H   H1398     1.0  0.67278  0.75646  0.48546  1.0000
  C   C1411     1.0  0.56792  0.86003  0.48444  1.0000
  Fe  Fe238     1.0  0.95805  0.89323  0.00714  1.0000
  C   C1412     1.0  0.59075  0.97547  0.37118  1.0000
  H   H1399     1.0  0.55136  0.95286  0.35030  1.0000
  H   H1400     1.0  0.72381  0.84591  0.09421  1.0000
  H   H1401     1.0  0.95283  0.83491  0.40029  1.0000
  C   C1413     1.0  0.73171  0.84236  0.03516  1.0000
  H   H1402     1.0  0.62754  0.89217  0.48288  1.0000
  H   H1403     1.0  0.95263  0.89980  0.11475  1.0000
  H   H1404     1.0  0.88025  0.89016  0.04864  1.0000
  S   S471      1.0  0.46965  0.93921  0.20507  1.0000
  C   C1414     1.0  0.96046  0.90817  0.13635  1.0000
  H   H1405     1.0  0.85104  0.86726  0.03009  1.0000
  C   C1415     1.0  0.80044  0.76659  0.16657  1.0000
  H   H1406     1.0  0.59090  0.97030  0.30975  1.0000
  C   C1416     1.0  0.91670  0.96027  0.04910  1.0000
  S   S472      1.0  0.48250  0.89495  0.13836  1.0000
  H   H1407     1.0  0.89010  0.92188  0.02840  1.0000
  N   N120      1.0  0.70325  0.85725  0.05500  1.0000
  H   H1408     1.0  0.49629  0.91429  0.27912  1.0000
  S   S473      1.0  0.71240  0.75220  0.49624  1.0000
  S   S474      1.0  0.84236  0.75722  0.23443  1.0000
  C   C1417     1.0  0.96108  0.96612  0.10387  1.0000
  C   C1418     1.0  0.46422  0.92393  0.02501  1.0000
  C   C1419     1.0  0.91838  0.97987  0.05411  1.0000
  H   H1409     1.0  0.57466  0.84705  0.04100  1.0000
  H   H1410     1.0  0.52369  0.96945  0.11009  1.0000
  H   H1411     1.0  0.79913  0.74516  0.01861  1.0000
  C   C1420     1.0  0.65247  0.76348  0.31377  1.0000
  C   C1421     1.0  0.96249  0.95191  0.07586  1.0000
  H   H1412     1.0  0.68649  0.87825  0.08264  1.0000
  C   C1422     1.0  0.79661  0.76321  0.09644  1.0000
  C   C1423     1.0  0.79339  0.76895  0.20363  1.0000
  N   N121      1.0  0.84722  0.83954  0.34434  1.0000
  C   C1424     1.0  0.85180  0.83750  0.30383  1.0000
  C   C1425     1.0  0.85531  0.82731  0.37439  1.0000
  C   C1426     1.0  0.86575  0.82228  0.29167  1.0000
  C   C1427     1.0  0.86932  0.81205  0.36383  1.0000
  C   C1428     1.0  0.87453  0.80954  0.32198  1.0000
  C   C1429     1.0  0.83540  0.85576  0.35555  1.0000
  H   H1413     1.0  0.84614  0.84739  0.28254  1.0000
  H   H1414     1.0  0.85183  0.82941  0.40441  1.0000
  H   H1415     1.0  0.86993  0.82111  0.26184  1.0000
  H   H1416     1.0  0.87596  0.80334  0.38607  1.0000
  H   H1417     1.0  0.88498  0.79903  0.31397  1.0000
  H   H1418     1.0  0.82388  0.85790  0.33437  1.0000
  H   H1419     1.0  0.82937  0.85360  0.38439  1.0000
  H   H1420     1.0  0.84369  0.86870  0.35668  1.0000
  H   H1421     1.0  0.59812  0.88077  0.44748  1.0000
  H   H1422     1.0  0.55515  0.96190  0.30296  1.0000
  H   H1423     1.0  0.48194  0.93505  0.12147  1.0000
  H   H1424     1.0  0.60174  0.85631  0.46102  1.0000
  S   S475      1.0  0.94630  0.94150  0.43349  1.0000
  H   H1425     1.0  0.79427  0.78831  0.49679  1.0000
  H   H1426     1.0  0.64055  0.83484  0.07515  1.0000
  C   C1430     1.0  0.67767  0.74438  0.46890  1.0000
  C   C1431     1.0  0.93484  0.84657  0.44368  1.0000
  C   C1432     1.0  0.59048  0.98101  0.33220  1.0000
  C   C1433     1.0  0.95958  0.96116  0.14269  1.0000
  H   H1427     1.0  0.67774  0.85458  0.08251  1.0000
  C   C1434     1.0  0.88255  0.91303  0.00841  1.0000
  H   H1428     1.0  0.59174  0.82918  0.02963  1.0000
  H   H1429     1.0  0.80263  0.76986  0.22835  1.0000
  C   C1435     1.0  0.95940  0.94202  0.15293  1.0000
  C   C1436     1.0  0.91862  0.98792  0.09130  1.0000
  S   S476      1.0  0.92811  0.89630  0.02068  1.0000
  H   H1430     1.0  0.92234  0.84331  0.42787  1.0000
  H   H1431     1.0  0.96061  0.98094  0.09542  1.0000
  H   H1432     1.0  0.56788  0.82336  0.02784  1.0000
  H   H1433     1.0  0.95400  0.90621  0.16482  1.0000
  S   S477      1.0  0.55275  0.91046  0.48627  1.0000
  H   H1434     1.0  0.49713  0.97782  0.15187  1.0000
  C   C1437     1.0  0.64594  0.86865  0.49889  1.0000
  H   H1435     1.0  0.69632  0.86049  0.11480  1.0000
  H   H1436     1.0  0.95805  0.93835  0.18316  1.0000
  C   C1438     1.0  0.77027  0.76735  0.13935  1.0000
  S   S478      1.0  0.59503  0.88057  0.02026  1.0000
  C   C1439     1.0  0.96228  0.93290  0.08715  1.0000
  C   C1440     1.0  0.76276  0.76942  0.17615  1.0000
  C   C1441     1.0  0.54913  0.86001  0.49216  1.0000
  C   C1442     1.0  0.62981  0.88016  0.50190  1.0000
  H   H1437     1.0  0.78726  0.76921  0.07347  1.0000
  H   H1438     1.0  0.47140  0.96931  0.05245  1.0000
  C   C1443     1.0  0.57768  0.83466  0.02190  1.0000
  H   H1439     1.0  0.52364  0.96908  0.38599  1.0000
  C   C1444     1.0  0.64233  0.75124  0.25206  1.0000
  C   C1445     1.0  0.64801  0.84301  0.01783  1.0000
  C   C1446     1.0  0.52807  0.98172  0.37151  1.0000
  H   H1440     1.0  0.52185  0.86591  0.46905  1.0000
  H   H1441     1.0  0.63890  0.75375  0.22181  1.0000
  C   C1447     1.0  0.59102  0.98917  0.40045  1.0000
  S   S479      1.0  0.91612  0.98647  0.17065  1.0000
  H   H1442     1.0  0.79905  0.74780  0.09106  1.0000
  H   H1443     1.0  0.56044  0.99158  0.49705  1.0000
  C   C1448     1.0  0.86146  0.86544  0.00729  1.0000
  C   C1449     1.0  0.68393  0.74354  0.23383  1.0000
  H   H1444     1.0  0.96327  0.95557  0.04548  1.0000
  H   H1445     1.0  0.53102  0.99045  0.05555  1.0000
  H   H1446     1.0  0.67422  0.74384  0.13728  1.0000
  H   H1447     1.0  0.65630  0.74257  0.35883  1.0000
  Fe  Fe239     1.0  0.46339  0.91113  0.17807  1.0000
  C   C1450     1.0  0.69823  0.86024  0.01717  1.0000
  H   H1448     1.0  0.68487  0.86666  0.00986  1.0000
  Fe  Fe240     1.0  0.58037  0.90089  0.97747  1.0000
  Fe  Fe241     1.0  0.68194  0.81378  0.55253  1.0000
  C   C1451     1.0  0.81181  0.74545  0.72835  1.0000
  C   C1452     1.0  0.55949  0.84703  0.96696  1.0000
  Fe  Fe242     1.0  0.68155  0.78201  0.61176  1.0000
  S   S480      1.0  0.70953  0.77087  0.59688  1.0000
  H   H1449     1.0  0.94135  0.96416  0.56008  1.0000
  Fe  Fe243     1.0  0.71732  0.80113  0.59645  1.0000
  S   S481      1.0  0.74627  0.80616  0.61773  1.0000
  H   H1450     1.0  0.53739  0.91488  0.56715  1.0000
  C   C1453     1.0  0.70967  0.85399  0.98736  1.0000
  S   S482      1.0  0.68980  0.81251  0.61606  1.0000
  S   S483      1.0  0.67164  0.78395  0.54974  1.0000
  Fe  Fe244     1.0  0.55414  0.90353  0.90812  1.0000
  S   S484      1.0  0.54722  0.93431  0.91666  1.0000
  S   S485      1.0  0.54157  0.88798  0.85795  1.0000
  C   C1454     1.0  0.50891  0.93655  0.76496  1.0000
  C   C1455     1.0  0.52149  0.93679  0.79579  1.0000
  C   C1456     1.0  0.59154  0.98328  0.59222  1.0000
  C   C1457     1.0  0.62016  0.86054  0.55440  1.0000
  C   C1458     1.0  0.52480  0.91892  0.58150  1.0000
  Fe  Fe245     1.0  0.57731  0.93684  0.92744  1.0000
  S   S486      1.0  0.58934  0.96378  0.90550  1.0000
  S   S487      1.0  0.55005  0.89594  0.97008  1.0000
  S   S488      1.0  0.58473  0.90625  0.91403  1.0000
  N   N122      1.0  0.54160  0.91523  0.76145  1.0000
  S   S489      1.0  0.71046  0.80471  0.53351  1.0000
  Fe  Fe246     1.0  0.92331  0.88144  0.96382  1.0000
  S   S490      1.0  0.92140  0.90852  0.93001  1.0000
  S   S491      1.0  0.90346  0.85730  0.96432  1.0000
  Fe  Fe247     1.0  0.95196  0.90446  0.92362  1.0000
  H   H1451     1.0  0.47206  0.94530  0.94325  1.0000
  C   C1459     1.0  0.55830  0.90308  0.76089  1.0000
  H   H1452     1.0  0.60448  0.83493  0.96968  1.0000
  H   H1453     1.0  0.96325  0.87912  0.79898  1.0000
  Fe  Fe248     1.0  0.81285  0.77483  0.88972  1.0000
  S   S492      1.0  0.84086  0.77873  0.86499  1.0000
  S   S493      1.0  0.80558  0.76601  0.95004  1.0000
  Fe  Fe249     1.0  0.79259  0.78835  0.81684  1.0000
  S   S494      1.0  0.81861  0.79380  0.78582  1.0000
  S   S495      1.0  0.76331  0.79328  0.79565  1.0000
  Fe  Fe250     1.0  0.82851  0.76601  0.81106  1.0000
  H   H1454     1.0  0.96134  0.86921  0.86431  1.0000
  Fe  Fe251     1.0  0.82890  0.80632  0.84190  1.0000
  S   S496      1.0  0.84273  0.83475  0.83935  1.0000
  S   S497      1.0  0.80166  0.75954  0.83805  1.0000
  S   S498      1.0  0.80176  0.80342  0.87061  1.0000
  H   H1455     1.0  0.58934  0.97611  0.65254  1.0000
  C   C1460     1.0  0.61680  0.87613  0.52969  1.0000
  C   C1461     1.0  0.70410  0.76695  0.74942  1.0000
  H   H1456     1.0  0.76959  0.75685  0.64186  1.0000
  H   H1457     1.0  0.48330  0.92020  0.89178  1.0000
  H   H1458     1.0  0.65932  0.75178  0.82366  1.0000
  C   C1462     1.0  0.63633  0.84908  0.55150  1.0000
  C   C1463     1.0  0.88794  0.85054  0.92717  1.0000
  C   C1464     1.0  0.87788  0.83413  0.93235  1.0000
  C   C1465     1.0  0.86429  0.82895  0.90528  1.0000
  C   C1466     1.0  0.86050  0.84024  0.87279  1.0000
  C   C1467     1.0  0.87065  0.85662  0.86740  1.0000
  C   C1468     1.0  0.88443  0.86168  0.89430  1.0000
  H   H1459     1.0  0.88054  0.82539  0.95762  1.0000
  H   H1460     1.0  0.85661  0.81631  0.90979  1.0000
  H   H1461     1.0  0.86785  0.86540  0.84226  1.0000
  H   H1462     1.0  0.89208  0.87435  0.88997  1.0000
  C   C1469     1.0  0.75074  0.80119  0.66678  1.0000
  C   C1470     1.0  0.76873  0.79648  0.67931  1.0000
  C   C1471     1.0  0.77270  0.79332  0.71872  1.0000
  C   C1472     1.0  0.75873  0.79532  0.74576  1.0000
  C   C1473     1.0  0.74074  0.79987  0.73315  1.0000
  C   C1474     1.0  0.73669  0.80255  0.69369  1.0000
  H   H1463     1.0  0.77964  0.79536  0.65852  1.0000
  H   H1464     1.0  0.78660  0.78972  0.72821  1.0000
  H   H1465     1.0  0.72994  0.80164  0.75404  1.0000
  H   H1466     1.0  0.72281  0.80631  0.68419  1.0000
  C   C1475     1.0  0.71842  0.75865  0.77148  1.0000
  H   H1467     1.0  0.79714  0.75882  0.60526  1.0000
  Fe  Fe252     1.0  0.54584  0.92718  0.97961  1.0000
  C   C1476     1.0  0.75991  0.77314  0.55305  1.0000
  H   H1468     1.0  0.68114  0.76146  0.98989  1.0000
  C   C1477     1.0  0.64306  0.85455  0.98593  1.0000
  C   C1478     1.0  0.67368  0.74351  0.94193  1.0000
  C   C1479     1.0  0.51669  0.90613  0.60653  1.0000
  H   H1469     1.0  0.80581  0.75444  0.75045  1.0000
  N   N123      1.0  0.56306  0.99060  0.55856  1.0000
  C   C1480     1.0  0.57546  0.96295  0.79102  1.0000
  C   C1481     1.0  0.57814  0.95748  0.82988  1.0000
  C   C1482     1.0  0.58551  0.97015  0.85665  1.0000
  H   H1470     1.0  0.65335  0.75174  0.77273  1.0000
  H   H1471     1.0  0.57015  0.95298  0.77018  1.0000
  H   H1472     1.0  0.57496  0.94334  0.83900  1.0000
  C   C1483     1.0  0.78749  0.78197  0.52108  1.0000
  C   C1484     1.0  0.50037  0.91122  0.62531  1.0000
  C   C1485     1.0  0.49227  0.92926  0.61943  1.0000
  C   C1486     1.0  0.50045  0.94210  0.59456  1.0000
  C   C1487     1.0  0.51665  0.93689  0.57533  1.0000
  C   C1488     1.0  0.51284  0.92557  0.73233  1.0000
  S   S499      1.0  0.49061  0.89487  0.65652  1.0000
  C   C1489     1.0  0.58199  0.98020  0.62611  1.0000
  H   H1473     1.0  0.49409  0.95596  0.58969  1.0000
  S   S500      1.0  0.57855  0.94346  0.52316  1.0000
  C   C1490     1.0  0.53787  0.92598  0.79352  1.0000
  C   C1491     1.0  0.48200  0.90789  0.83485  1.0000
  C   C1492     1.0  0.49066  0.91201  0.87024  1.0000
  C   C1493     1.0  0.50887  0.90571  0.87770  1.0000
  C   C1494     1.0  0.51841  0.89501  0.84998  1.0000
  C   C1495     1.0  0.50964  0.89055  0.81490  1.0000
  C   C1496     1.0  0.49156  0.89718  0.80714  1.0000
  Fe  Fe253     1.0  0.92869  0.92295  0.98606  1.0000
  H   H1474     1.0  0.51544  0.90902  0.90504  1.0000
  H   H1475     1.0  0.51693  0.88228  0.79333  1.0000
  H   H1476     1.0  0.48506  0.89398  0.77970  1.0000
  H   H1477     1.0  0.86678  0.91228  0.91547  1.0000
  C   C1497     1.0  0.86360  0.89007  0.95747  1.0000
  Fe  Fe254     1.0  0.70065  0.77507  0.53540  1.0000
  C   C1498     1.0  0.64934  0.85309  0.52368  1.0000
  H   H1478     1.0  0.54443  0.85843  0.91732  1.0000
  C   C1499     1.0  0.94819  0.87148  0.53499  1.0000
  H   H1479     1.0  0.50311  0.92502  0.70830  1.0000
  C   C1500     1.0  0.57985  0.98120  0.77888  1.0000
  H   H1480     1.0  0.73538  0.83972  0.97373  1.0000
  S   S501      1.0  0.59589  0.88965  0.53411  1.0000
  C   C1501     1.0  0.68595  0.76283  0.75775  1.0000
  H   H1481     1.0  0.63875  0.83718  0.57075  1.0000
  H   H1482     1.0  0.92854  0.97770  0.62074  1.0000
  S   S502      1.0  0.95342  0.87613  0.95321  1.0000
  H   H1483     1.0  0.52304  0.89223  0.61115  1.0000
  Fe  Fe255     1.0  0.46424  0.90450  0.68440  1.0000
  H   H1484     1.0  0.62345  0.87521  0.96158  1.0000
  H   H1485     1.0  0.56987  0.91008  0.77594  1.0000
  H   H1486     1.0  0.56264  0.89998  0.73082  1.0000
  C   C1502     1.0  0.94542  0.97796  0.57010  1.0000
  H   H1487     1.0  0.55546  0.98049  0.65247  1.0000
  H   H1488     1.0  0.70523  0.85569  0.95745  1.0000
  S   S503      1.0  0.46342  0.93137  0.71879  1.0000
  H   H1489     1.0  0.74504  0.77310  0.55358  1.0000
  H   H1490     1.0  0.53184  0.90586  0.70612  1.0000
  S   S504      1.0  0.52652  0.95308  0.54392  1.0000
  H   H1491     1.0  0.47963  0.93324  0.63370  1.0000
  S   S505      1.0  0.95904  0.92119  0.97674  1.0000
  H   H1492     1.0  0.54762  0.84789  0.98544  1.0000
  C   C1503     1.0  0.78897  0.76543  0.58210  1.0000
  N   N124      1.0  0.86748  0.88396  0.99434  1.0000
  H   H1493     1.0  0.53877  0.98964  0.59186  1.0000
  H   H1494     1.0  0.67493  0.76945  0.74055  1.0000
  S   S506      1.0  0.91502  0.95103  0.00176  1.0000
  H   H1495     1.0  0.54451  0.85631  0.52072  1.0000
  C   C1504     1.0  0.57297  0.85284  0.90509  1.0000
  H   H1496     1.0  0.70089  0.74698  0.65413  1.0000
  C   C1505     1.0  0.58991  0.84620  0.91996  1.0000
  H   H1497     1.0  0.96110  0.87877  0.54227  1.0000
  C   C1506     1.0  0.68403  0.74823  0.97496  1.0000
  N   N125      1.0  0.78193  0.83970  0.77267  1.0000
  C   C1507     1.0  0.80024  0.84044  0.78177  1.0000
  C   C1508     1.0  0.77614  0.83875  0.73487  1.0000
  C   C1509     1.0  0.81334  0.83966  0.75270  1.0000
  C   C1510     1.0  0.78888  0.83785  0.70507  1.0000
  C   C1511     1.0  0.80760  0.83820  0.71415  1.0000
  C   C1512     1.0  0.76848  0.84075  0.80367  1.0000
  H   H1498     1.0  0.80487  0.84131  0.81172  1.0000
  H   H1499     1.0  0.76163  0.83813  0.72754  1.0000
  H   H1500     1.0  0.82788  0.83980  0.76028  1.0000
  H   H1501     1.0  0.78419  0.83654  0.67522  1.0000
  H   H1502     1.0  0.81766  0.83722  0.69143  1.0000
  H   H1503     1.0  0.77332  0.83191  0.82867  1.0000
  H   H1504     1.0  0.76629  0.85566  0.81319  1.0000
  H   H1505     1.0  0.75512  0.83497  0.79410  1.0000
  N   N126      1.0  0.57614  0.84054  0.98132  1.0000
  H   H1506     1.0  0.51767  0.97842  0.97523  1.0000
  H   H1507     1.0  0.74596  0.74477  0.98316  1.0000
  H   H1508     1.0  0.49594  0.94448  0.76679  1.0000
  H   H1509     1.0  0.55574  0.88952  0.77585  1.0000
  H   H1510     1.0  0.85639  0.88111  0.93716  1.0000
  C   C1513     1.0  0.52925  0.91478  0.73120  1.0000
  C   C1514     1.0  0.87884  0.91928  0.97080  1.0000
  H   H1511     1.0  0.76959  0.74536  0.93193  1.0000
  S   S507      1.0  0.57564  0.93191  0.99151  1.0000
  H   H1512     1.0  0.54729  0.92569  0.81818  1.0000
  H   H1513     1.0  0.88362  0.93294  0.96155  1.0000
  C   C1515     1.0  0.86938  0.90772  0.94504  1.0000
  H   H1514     1.0  0.54995  0.97548  0.95284  1.0000
  C   C1516     1.0  0.47757  0.94231  0.97286  1.0000
  H   H1515     1.0  0.60637  0.98144  0.59198  1.0000
  H   H1516     1.0  0.57172  0.85802  0.87559  1.0000
  H   H1517     1.0  0.65154  0.85418  0.96056  1.0000
  C   C1517     1.0  0.67333  0.74489  0.67447  1.0000
  H   H1518     1.0  0.70696  0.77646  0.72584  1.0000
  S   S508      1.0  0.95599  0.92332  0.51865  1.0000
  S   S509      1.0  0.84327  0.74474  0.77305  1.0000
  H   H1519     1.0  0.61022  0.85730  0.57605  1.0000
  H   H1520     1.0  0.51834  0.94478  0.82179  1.0000
  H   H1521     1.0  0.48749  0.93002  0.97089  1.0000
  C   C1518     1.0  0.71444  0.74626  0.80132  1.0000
  N   N127      1.0  0.77021  0.76542  0.58289  1.0000
  H   H1522     1.0  0.85548  0.85709  0.98313  1.0000
  H   H1523     1.0  0.48523  0.95470  0.98348  1.0000
  S   S510      1.0  0.66540  0.76727  0.65747  1.0000
  C   C1519     1.0  0.56292  0.98263  0.62605  1.0000
  H   H1524     1.0  0.94513  0.86166  0.55881  1.0000
  C   C1520     1.0  0.55761  0.85308  0.92856  1.0000
  C   C1521     1.0  0.62716  0.86651  0.98640  1.0000
  C   C1522     1.0  0.58181  0.98869  0.55858  1.0000
  H   H1525     1.0  0.47095  0.98201  0.61014  1.0000
  C   C1523     1.0  0.81348  0.74335  0.96491  1.0000
  C   C1524     1.0  0.55361  0.98788  0.59181  1.0000
  N   N128      1.0  0.68219  0.75039  0.78661  1.0000
  C   C1525     1.0  0.53996  0.98466  0.93766  1.0000
  H   H1526     1.0  0.93714  0.88274  0.53288  1.0000
  C   C1526     1.0  0.93820  0.98565  0.60442  1.0000
  S   S511      1.0  0.66991  0.83910  0.51821  1.0000
  C   C1527     1.0  0.59123  0.83991  0.95827  1.0000
  C   C1528     1.0  0.76113  0.75622  0.61492  1.0000
  H   H1527     1.0  0.81277  0.77380  0.55086  1.0000
  H   H1528     1.0  0.66279  0.75311  0.93160  1.0000
  H   H1529     1.0  0.73258  0.76188  0.76562  1.0000
  H   H1530     1.0  0.58930  0.99105  0.53229  1.0000
  S   S512      1.0  0.57688  0.98744  0.72970  1.0000
  C   C1529     1.0  0.52188  0.98633  0.95021  1.0000
  C   C1530     1.0  0.79788  0.77386  0.55143  1.0000
  H   H1531     1.0  0.57772  0.85631  0.50742  1.0000
  C   C1531     1.0  0.58980  0.98842  0.84455  1.0000
  H   H1532     1.0  0.74782  0.76354  0.62135  1.0000
  H   H1533     1.0  0.60201  0.84613  0.90213  1.0000
  C   C1532     1.0  0.72650  0.84497  0.99650  1.0000
  C   C1533     1.0  0.66317  0.74593  0.79495  1.0000
  H   H1534     1.0  0.78661  0.74392  0.69542  1.0000
  H   H1535     1.0  0.46622  0.97738  0.68001  1.0000
  H   H1536     1.0  0.53922  0.99065  0.52191  1.0000
  C   C1534     1.0  0.95771  0.98828  0.54868  1.0000
  C   C1535     1.0  0.76837  0.78167  0.52189  1.0000
  C   C1536     1.0  0.46729  0.99159  0.66852  1.0000
  Fe  Fe256     1.0  0.54896  0.94046  0.50673  1.0000
