data_image0
_chemical_formula_structural       FeSHFeS2FeSFeCS2FeS2FeSHFe2S4HC3H2C6HCHC6H4CH3C2HCSNC3H7CH3CH2NC3SH3C2HCHC2HC5HCH2CHN2CH3CSH2CSHC5NHC2HCHC2FeSCFeSHFeSFeS3C4HC2H4S2CHFeS2FeSHFeCFeCS2C2HCHC3HC2HC2HC2H2CH2CHNSCH2CFeSHFeS2FeHFeS3CH2NC3H5C6H4C2HCH2C3SC3H2NH3CH2SCH5NHC7HCH2CSH2CHC2H4FeS2FeSCFeSFeS3H2C2HCNCH2C6H3CHC3H2CH2C2HC4H5CHSH2CH6C2NCHC4HC2HC2HFeS2FeSFeSFeCS2CHC7H6C2H6CNH3C4H2SHC2HCHFeSFeS2FeSFeS3H2C10H4C3HC2NC2H2C2H4CH2CH2CHC3HCH3CHSNCH2CH2NH3C3NHCH7C2H2CH2C3HC6H3NCH3SC3H2CH2FeS2FeS2FeSFeCS2FeS2FeSFe2CS2H2NC4HC3HC2H3CHC6H5C2HC2H3C3SH2CH4NHNHC2HSC3HCH2CH2SC2H2CH2FeSHFeS2FeHFeS3FeS2FeS2FeSFeS2CH2C3HCHC6H4NH3CH3CSCSHCHNCHC2HCNC6H8SHCH2CHCH2CSCH3C2NC2HCH4
_chemical_formula_sum              "Fe48 S96 H288 C288 N24"
_cell_length_a       29.6452
_cell_length_b       29.6871
_cell_length_c       54.7704
_cell_angle_alpha    89.5554
_cell_angle_beta     90.2288
_cell_angle_gamma    120.43

_space_group_name_H-M_alt    "P 1"
_space_group_IT_number       1

loop_
  _space_group_symop_operation_xyz
  'x, y, z'

loop_
  _atom_site_type_symbol
  _atom_site_label
  _atom_site_symmetry_multiplicity
  _atom_site_fract_x
  _atom_site_fract_y
  _atom_site_fract_z
  _atom_site_occupancy
  Fe  Fe1       1.0  0.10452  0.34569  0.18357  1.0000
  S   S1        1.0  0.17072  0.42893  0.18598  1.0000
  H   H1        1.0  0.35285  0.11877  0.11764  1.0000
  Fe  Fe2       1.0  0.16665  0.31648  0.14841  1.0000
  S   S2        1.0  0.23597  0.39760  0.14825  1.0000
  S   S3        1.0  0.17168  0.25112  0.12941  1.0000
  Fe  Fe3       1.0  0.22222  0.39393  0.18862  1.0000
  S   S4        1.0  0.29009  0.42700  0.21474  1.0000
  Fe  Fe4       1.0  0.17764  0.42482  0.14557  1.0000
  C   C1        1.0  0.29261  0.03758  0.11979  1.0000
  S   S5        1.0  0.15614  0.31118  0.18944  1.0000
  S   S6        1.0  0.10841  0.34334  0.14249  1.0000
  Fe  Fe5       1.0  0.39250  0.24026  0.24464  1.0000
  S   S7        1.0  0.30851  0.17771  0.24239  1.0000
  S   S8        1.0  0.42244  0.31379  0.22224  1.0000
  Fe  Fe6       1.0  0.42010  0.18098  0.28224  1.0000
  S   S9        1.0  0.33636  0.11456  0.28334  1.0000
  H   H2        1.0  0.36467  0.35269  0.27287  1.0000
  Fe  Fe7       1.0  0.33853  0.12173  0.24225  1.0000
  Fe  Fe8       1.0  0.31452  0.17727  0.28352  1.0000
  S   S10       1.0  0.25063  0.18182  0.30439  1.0000
  S   S11       1.0  0.42331  0.18526  0.24137  1.0000
  S   S12       1.0  0.39762  0.24281  0.28551  1.0000
  S   S13       1.0  0.47741  0.17458  0.30807  1.0000
  H   H3        1.0  0.31135  0.02812  0.13438  1.0000
  C   C2        1.0  0.26284  0.21826  0.33159  1.0000
  C   C3        1.0  0.22348  0.22629  0.34115  1.0000
  C   C4        1.0  0.35137  0.01481  0.07184  1.0000
  H   H4        1.0  0.18605  0.20942  0.33200  1.0000
  H   H5        1.0  0.43829  0.01120  0.33210  1.0000
  C   C5        1.0  0.28623  0.37309  0.33518  1.0000
  C   C6        1.0  0.21242  0.26307  0.10361  1.0000
  C   C7        1.0  0.23909  0.31223  0.09235  1.0000
  C   C8        1.0  0.27089  0.32039  0.07181  1.0000
  C   C9        1.0  0.25082  0.23075  0.07388  1.0000
  C   C10       1.0  0.21870  0.22247  0.09437  1.0000
  H   H6        1.0  0.23453  0.34376  0.09918  1.0000
  C   C11       1.0  0.24016  0.36549  0.29761  1.0000
  H   H7        1.0  0.19810  0.18427  0.10289  1.0000
  C   C12       1.0  0.32502  0.39360  0.21643  1.0000
  C   C13       1.0  0.37959  0.42278  0.21778  1.0000
  C   C14       1.0  0.40878  0.39771  0.21945  1.0000
  C   C15       1.0  0.38369  0.34323  0.22089  1.0000
  C   C16       1.0  0.32883  0.31372  0.22014  1.0000
  C   C17       1.0  0.29953  0.33888  0.21740  1.0000
  H   H8        1.0  0.39955  0.46501  0.21719  1.0000
  H   H9        1.0  0.45109  0.42073  0.21995  1.0000
  H   H10       1.0  0.30906  0.27157  0.22112  1.0000
  H   H11       1.0  0.25727  0.31604  0.21653  1.0000
  C   C18       1.0  0.31555  0.08844  0.11058  1.0000
  H   H12       1.0  0.38317  0.21397  0.18587  1.0000
  H   H13       1.0  0.45894  0.07989  0.33405  1.0000
  H   H14       1.0  0.03373  0.34306  0.34010  1.0000
  C   C19       1.0  0.05779  0.45709  0.13141  1.0000
  C   C20       1.0  0.01799  0.21440  0.31900  1.0000
  H   H15       1.0  0.09878  0.27363  0.31391  1.0000
  C   C21       1.0  0.29134  0.09966  0.09151  1.0000
  S   S14       1.0  0.03223  0.33390  0.20379  1.0000
  N   N1        1.0  0.30014  0.25100  0.16357  1.0000
  C   C22       1.0  0.25538  0.20323  0.16208  1.0000
  C   C23       1.0  0.34588  0.25481  0.17132  1.0000
  C   C24       1.0  0.29929  0.29806  0.15602  1.0000
  H   H16       1.0  0.21930  0.20017  0.15551  1.0000
  H   H17       1.0  0.38154  0.29259  0.17237  1.0000
  H   H18       1.0  0.33207  0.33386  0.16429  1.0000
  H   H19       1.0  0.30184  0.30198  0.13581  1.0000
  H   H20       1.0  0.26247  0.29590  0.16208  1.0000
  H   H21       1.0  0.11835  0.28313  0.35846  1.0000
  H   H22       1.0  0.29062  0.35834  0.06301  1.0000
  C   C25       1.0  0.30154  0.16153  0.17781  1.0000
  H   H23       1.0  0.31090  0.28617  0.27659  1.0000
  H   H24       1.0  0.25476  0.19907  0.06673  1.0000
  H   H25       1.0  0.05503  0.46348  0.19319  1.0000
  C   C26       1.0  0.40354  0.03782  0.29128  1.0000
  H   H26       1.0  0.22428  0.39063  0.33181  1.0000
  H   H27       1.0  0.20184  0.26217  0.36957  1.0000
  N   N2        1.0  0.30709  0.34249  0.29881  1.0000
  C   C27       1.0  0.24588  0.99846  0.10955  1.0000
  C   C28       1.0  0.24446  0.05962  0.08182  1.0000
  C   C29       1.0  0.06846  0.24985  0.32700  1.0000
  S   S15       1.0  0.32579  0.05719  0.21583  1.0000
  H   H28       1.0  0.22139  0.04240  0.20555  1.0000
  H   H29       1.0  0.26412  0.33829  0.26675  1.0000
  H   H30       1.0  0.38147  0.02972  0.08574  1.0000
  C   C30       1.0  0.03970  0.22444  0.36859  1.0000
  C   C31       1.0  0.34716  0.21031  0.17881  1.0000
  H   H31       1.0  0.21959  0.12002  0.16848  1.0000
  C   C32       1.0  0.27033  0.34785  0.28603  1.0000
  H   H32       1.0  0.34140  0.23360  0.33667  1.0000
  C   C33       1.0  0.39142  0.03893  0.26667  1.0000
  C   C34       1.0  0.05532  0.47429  0.17418  1.0000
  H   H33       1.0  0.36074  0.31423  0.29930  1.0000
  C   C35       1.0  0.46468  0.05052  0.32419  1.0000
  C   C36       1.0  0.31599  0.35585  0.32294  1.0000
  C   C37       1.0  0.25533  0.15779  0.16927  1.0000
  C   C38       1.0  0.33749  0.32319  0.28627  1.0000
  C   C39       1.0  0.31096  0.23990  0.34366  1.0000
  H   H34       1.0  0.37318  0.02690  0.30488  1.0000
  C   C40       1.0  0.27675  0.27974  0.06237  1.0000
  H   H35       1.0  0.30197  0.12684  0.18392  1.0000
  H   H36       1.0  0.29241  0.38184  0.35456  1.0000
  C   C41       1.0  0.00143  0.23962  0.22737  1.0000
  H   H37       1.0  0.00868  0.21027  0.29966  1.0000
  N   N3        1.0  0.22206  0.00994  0.09109  1.0000
  N   N4        1.0  0.45325  0.05152  0.29818  1.0000
  C   C42       1.0  0.24787  0.37765  0.32243  1.0000
  H   H38       1.0  0.21104  0.36959  0.28735  1.0000
  H   H39       1.0  0.02493  0.23360  0.21418  1.0000
  H   H40       1.0  0.34552  0.35221  0.33307  1.0000
  C   C43       1.0  0.07952  0.25493  0.35195  1.0000
  S   S16       1.0  0.39451  0.11672  0.05667  1.0000
  H   H41       1.0  0.30989  0.13867  0.08363  1.0000
  H   H42       1.0  0.22671  0.06839  0.06654  1.0000
  C   C44       1.0  0.27251  0.01271  0.19745  1.0000
  S   S17       1.0  0.18744  0.48775  0.11852  1.0000
  H   H43       1.0  0.05842  0.40804  0.16052  1.0000
  C   C45       1.0  0.00037  0.28619  0.22698  1.0000
  C   C46       1.0  0.23226  0.25603  0.36246  1.0000
  C   C47       1.0  0.01653  0.32867  0.35791  1.0000
  C   C48       1.0  0.34841  0.04943  0.05526  1.0000
  C   C49       1.0  0.05710  0.44297  0.15581  1.0000
  N   N5        1.0  0.99048  0.18919  0.36057  1.0000
  H   H44       1.0  0.06078  0.43373  0.11703  1.0000
  C   C50       1.0  0.31960  0.26927  0.36504  1.0000
  C   C51       1.0  0.22618  0.01411  0.19529  1.0000
  H   H45       1.0  0.42194  0.05789  0.23008  1.0000
  C   C52       1.0  0.48148  0.06986  0.25635  1.0000
  H   H46       1.0  0.35194  0.02806  0.26125  1.0000
  C   C53       1.0  0.43077  0.05552  0.24915  1.0000
  C   C54       1.0  0.02645  0.23095  0.52047  1.0000
  Fe  Fe9       1.0  0.24264  0.42927  0.44758  1.0000
  S   S18       1.0  0.23937  0.35448  0.45871  1.0000
  C   C55       1.0  0.06335  0.27140  0.50542  1.0000
  Fe  Fe10      1.0  0.16133  0.37418  0.40745  1.0000
  S   S19       1.0  0.15235  0.29615  0.41549  1.0000
  H   H47       1.0  0.12596  0.46136  0.40885  1.0000
  Fe  Fe11      1.0  0.15179  0.31713  0.45497  1.0000
  S   S20       1.0  0.08870  0.25553  0.47972  1.0000
  Fe  Fe12      1.0  0.23982  0.34054  0.41817  1.0000
  S   S21       1.0  0.29515  0.31868  0.40026  1.0000
  S   S22       1.0  0.15468  0.39239  0.44644  1.0000
  S   S23       1.0  0.24913  0.41812  0.40748  1.0000
  C   C56       1.0  0.05284  0.33358  0.52985  1.0000
  C   C57       1.0  0.07669  0.32287  0.51031  1.0000
  C   C58       1.0  0.02630  0.32208  0.40146  1.0000
  C   C59       1.0  0.00183  0.24156  0.53972  1.0000
  H   H48       1.0  0.10536  0.35442  0.49905  1.0000
  C   C60       1.0  0.04883  0.34124  0.37853  1.0000
  C   C61       1.0  0.01481  0.29299  0.54444  1.0000
  H   H49       1.0  0.05091  0.33116  0.41744  1.0000
  H   H50       1.0  0.06355  0.37354  0.53354  1.0000
  H   H51       1.0  0.04834  0.22967  0.38798  1.0000
  H   H52       1.0  0.01627  0.19107  0.51697  1.0000
  S   S24       1.0  0.11722  0.38035  0.37530  1.0000
  S   S25       1.0  0.98368  0.30838  0.56779  1.0000
  C   C62       1.0  0.28054  0.27785  0.37446  1.0000
  H   H53       1.0  0.35697  0.28578  0.37427  1.0000
  Fe  Fe13      1.0  0.31147  0.14350  0.98411  1.0000
  S   S26       1.0  0.39132  0.15434  0.98857  1.0000
  S   S27       1.0  0.24984  0.07072  0.96447  1.0000
  Fe  Fe14      1.0  0.33663  0.23478  0.01915  1.0000
  S   S28       1.0  0.41825  0.25057  0.02614  1.0000
  H   H54       1.0  0.45361  0.06517  0.01641  1.0000
  Fe  Fe15      1.0  0.42167  0.24080  0.98570  1.0000
  C   C63       1.0  0.42817  0.37311  0.98910  1.0000
  Fe  Fe16      1.0  0.37976  0.16295  0.02823  1.0000
  C   C64       1.0  0.31204  0.06101  0.89979  1.0000
  S   S29       1.0  0.34173  0.22938  0.97820  1.0000
  S   S30       1.0  0.29819  0.14808  0.02435  1.0000
  C   C65       1.0  0.48166  0.41321  0.95343  1.0000
  C   C66       1.0  0.45795  0.08973  0.97886  1.0000
  H   H55       1.0  0.41029  0.33814  0.95342  1.0000
  C   C67       1.0  0.43705  0.37178  0.96420  1.0000
  H   H56       1.0  0.34528  0.08619  0.88839  1.0000
  C   C68       1.0  0.18591  0.00497  0.84383  1.0000
  C   C69       1.0  0.26132  0.04824  0.93665  1.0000
  C   C70       1.0  0.30459  0.08014  0.92196  1.0000
  H   H57       1.0  0.39387  0.34108  0.99772  1.0000
  C   C71       1.0  0.38239  0.01530  0.99665  1.0000
  C   C72       1.0  0.30926  0.02986  0.03740  1.0000
  H   H58       1.0  0.33193  0.11977  0.92754  1.0000
  C   C73       1.0  0.43358  0.05725  0.99896  1.0000
  C   C74       1.0  0.43086  0.08004  0.95681  1.0000
  H   H59       1.0  0.30679  0.05600  0.02436  1.0000
  C   C75       1.0  0.22587  0.99700  0.92904  1.0000
  C   C76       1.0  0.46385  0.41566  0.00293  1.0000
  H   H60       1.0  0.44898  0.10568  0.94120  1.0000
  H   H61       1.0  0.35815  0.03157  0.93830  1.0000
  C   C77       1.0  0.27671  0.00974  0.89223  1.0000
  H   H62       1.0  0.20424  0.02322  0.86101  1.0000
  H   H63       1.0  0.45714  0.41659  0.02233  1.0000
  C   C78       1.0  0.37938  0.03823  0.95531  1.0000
  H   H64       1.0  0.25904  0.03698  0.82450  1.0000
  N   N6        1.0  0.35580  0.00658  0.97509  1.0000
  S   S31       1.0  0.31630  0.29209  0.03605  1.0000
  C   C79       1.0  0.21674  0.01279  0.82328  1.0000
  H   H65       1.0  0.36387  0.99028  0.01238  1.0000
  H   H66       1.0  0.21685  0.99283  0.78554  1.0000
  C   C80       1.0  0.18565  0.97830  0.17993  1.0000
  Fe  Fe17      1.0  0.07990  0.74392  0.08858  1.0000
  S   S32       1.0  0.15004  0.73718  0.07934  1.0000
  H   H67       1.0  0.31627  0.52789  0.12996  1.0000
  Fe  Fe18      1.0  0.14358  0.83503  0.12447  1.0000
  S   S33       1.0  0.21772  0.83427  0.11762  1.0000
  S   S34       1.0  0.13952  0.89694  0.14724  1.0000
  Fe  Fe19      1.0  0.19313  0.82517  0.07827  1.0000
  H   H68       1.0  0.01251  0.57126  0.13601  1.0000
  Fe  Fe20      1.0  0.16710  0.74604  0.11961  1.0000
  S   S35       1.0  0.18596  0.69556  0.14456  1.0000
  S   S36       1.0  0.12182  0.83095  0.08480  1.0000
  S   S37       1.0  0.09403  0.74758  0.12917  1.0000
  C   C81       1.0  0.31069  0.55343  0.18976  1.0000
  H   H69       1.0  0.14702  0.94203  0.09518  1.0000
  H   H70       1.0  0.29499  0.63854  0.11855  1.0000
  N   N7        1.0  0.31128  0.59254  0.14336  1.0000
  C   C82       1.0  0.05450  0.51970  0.16782  1.0000
  C   C83       1.0  0.23718  0.93931  0.16903  1.0000
  C   C84       1.0  0.19084  0.94058  0.16681  1.0000
  H   H71       1.0  0.05821  0.51375  0.10667  1.0000
  H   H72       1.0  0.30994  0.53757  0.20781  1.0000
  H   H73       1.0  0.31778  0.49373  0.17122  1.0000
  H   H74       1.0  0.24172  0.91046  0.15917  1.0000
  H   H75       1.0  0.30585  0.65304  0.16150  1.0000
  C   C85       1.0  0.18435  0.54393  0.12613  1.0000
  C   C86       1.0  0.18514  0.55867  0.15038  1.0000
  C   C87       1.0  0.18589  0.60539  0.15565  1.0000
  C   C88       1.0  0.18476  0.63724  0.13680  1.0000
  C   C89       1.0  0.18280  0.62190  0.11256  1.0000
  C   C90       1.0  0.18298  0.57563  0.10728  1.0000
  H   H76       1.0  0.14984  0.97945  0.17838  1.0000
  H   H77       1.0  0.18722  0.61693  0.17445  1.0000
  H   H78       1.0  0.18200  0.64614  0.09789  1.0000
  H   H79       1.0  0.18242  0.56453  0.08844  1.0000
  C   C91       1.0  0.27778  0.97531  0.18417  1.0000
  C   C92       1.0  0.31628  0.96075  0.07015  1.0000
  H   H80       1.0  0.31985  0.93406  0.08249  1.0000
  C   C93       1.0  0.05374  0.58068  0.13752  1.0000
  H   H81       1.0  0.18614  0.53460  0.16505  1.0000
  H   H82       1.0  0.02336  0.78516  0.05080  1.0000
  C   C94       1.0  0.30750  0.59851  0.18700  1.0000
  C   C95       1.0  0.31357  0.61405  0.11890  1.0000
  C   C96       1.0  0.31474  0.52848  0.16915  1.0000
  S   S38       1.0  0.00268  0.68504  0.07092  1.0000
  C   C97       1.0  0.31449  0.54836  0.14593  1.0000
  C   C98       1.0  0.17362  0.96791  0.08049  1.0000
  C   C99       1.0  0.30850  0.61803  0.16352  1.0000
  H   H83       1.0  0.30418  0.61817  0.20291  1.0000
  H   H84       1.0  0.07418  0.61165  0.15148  1.0000
  N   N8        1.0  0.05576  0.53358  0.14383  1.0000
  H   H85       1.0  0.07405  0.59807  0.11994  1.0000
  H   H86       1.0  0.31340  0.97382  0.18574  1.0000
  H   H87       1.0  0.05358  0.54416  0.18220  1.0000
  C   C100      1.0  0.05673  0.50260  0.12569  1.0000
  H   H88       1.0  0.29174  0.58208  0.10554  1.0000
  H   H89       1.0  0.18285  0.94433  0.06801  1.0000
  S   S39       1.0  0.24103  0.87366  0.04624  1.0000
  C   C101      1.0  0.27859  0.94113  0.05163  1.0000
  H   H90       1.0  0.35488  0.63814  0.11289  1.0000
  H   H91       1.0  0.15206  0.98335  0.07007  1.0000
  H   H92       1.0  0.22901  0.95867  0.11625  1.0000
  H   H93       1.0  0.44680  0.55634  0.51160  1.0000
  H   H94       1.0  0.36333  0.52785  0.42991  1.0000
  N   N9        1.0  0.25866  0.57668  0.43033  1.0000
  H   H95       1.0  0.45345  0.60293  0.42355  1.0000
  C   C102      1.0  0.45751  0.63864  0.45824  1.0000
  C   C103      1.0  0.43062  0.63435  0.47984  1.0000
  C   C104      1.0  0.37933  0.59209  0.48327  1.0000
  C   C105      1.0  0.35467  0.55340  0.46533  1.0000
  C   C106      1.0  0.38195  0.55714  0.44393  1.0000
  C   C107      1.0  0.43288  0.59988  0.44032  1.0000
  C   C108      1.0  0.30797  0.62262  0.43788  1.0000
  H   H96       1.0  0.35832  0.58975  0.49980  1.0000
  C   C109      1.0  0.25441  0.55613  0.40758  1.0000
  H   H97       1.0  0.44898  0.66408  0.49369  1.0000
  H   H98       1.0  0.13466  0.49838  0.45037  1.0000
  C   C110      1.0  0.20665  0.51439  0.39953  1.0000
  S   S40       1.0  0.28813  0.50466  0.46931  1.0000
  H   H99       1.0  0.34216  0.62298  0.42940  1.0000
  H   H100      1.0  0.30820  0.65890  0.43261  1.0000
  C   C111      1.0  0.16310  0.49406  0.41482  1.0000
  H   H101      1.0  0.31343  0.62245  0.45798  1.0000
  C   C112      1.0  0.16791  0.51494  0.43807  1.0000
  C   C113      1.0  0.21626  0.55653  0.44556  1.0000
  H   H102      1.0  0.21994  0.57197  0.46382  1.0000
  H   H103      1.0  0.46498  0.54181  0.47206  1.0000
  H   H104      1.0  0.20328  0.49740  0.38165  1.0000
  H   H105      1.0  0.28812  0.57178  0.39559  1.0000
  Fe  Fe21      1.0  0.14705  0.83383  0.81391  1.0000
  S   S41       1.0  0.16005  0.76680  0.82050  1.0000
  S   S42       1.0  0.07743  0.82621  0.79259  1.0000
  Fe  Fe22      1.0  0.23624  0.90563  0.84930  1.0000
  S   S43       1.0  0.25489  0.84283  0.85838  1.0000
  C   C114      1.0  0.09831  0.74689  0.97073  1.0000
  Fe  Fe23      1.0  0.24648  0.82612  0.81808  1.0000
  S   S44       1.0  0.29975  0.81430  0.79211  1.0000
  Fe  Fe24      1.0  0.16718  0.79020  0.85981  1.0000
  S   S45       1.0  0.12367  0.73247  0.89010  1.0000
  S   S46       1.0  0.23262  0.89225  0.80868  1.0000
  S   S47       1.0  0.14945  0.85424  0.85363  1.0000
  H   H106      1.0  0.12613  0.74355  0.98243  1.0000
  H   H107      1.0  0.08758  0.65249  0.83178  1.0000
  C   C115      1.0  0.04173  0.71971  0.73836  1.0000
  C   C116      1.0  0.23363  0.97768  0.90700  1.0000
  H   H108      1.0  0.04143  0.87616  0.82938  1.0000
  C   C117      1.0  0.05501  0.70212  0.88901  1.0000
  N   N10       1.0  0.02703  0.75562  0.94083  1.0000
  C   C118      1.0  0.02481  0.66369  0.90640  1.0000
  H   H109      1.0  0.05303  0.74507  0.85754  1.0000
  H   H110      1.0  0.04393  0.65334  0.92039  1.0000
  C   C119      1.0  0.00162  0.77905  0.75741  1.0000
  C   C120      1.0  0.43250  0.80720  0.78379  1.0000
  C   C121      1.0  0.38448  0.80512  0.77963  1.0000
  C   C122      1.0  0.35710  0.81177  0.79889  1.0000
  C   C123      1.0  0.37753  0.81908  0.82253  1.0000
  C   C124      1.0  0.42537  0.82081  0.82671  1.0000
  H   H111      1.0  0.45347  0.80280  0.76875  1.0000
  H   H112      1.0  0.36885  0.79918  0.76130  1.0000
  H   H113      1.0  0.35688  0.82411  0.83753  1.0000
  C   C125      1.0  0.02489  0.65732  0.81393  1.0000
  H   H114      1.0  0.12078  0.93608  0.78352  1.0000
  C   C126      1.0  0.04739  0.78363  0.76759  1.0000
  C   C127      1.0  0.06731  0.75371  0.75800  1.0000
  C   C128      1.0  0.03007  0.71549  0.87104  1.0000
  H   H115      1.0  0.10277  0.75719  0.76550  1.0000
  H   H116      1.0  0.44118  0.82711  0.84502  1.0000
  C   C129      1.0  0.04504  0.71911  0.97629  1.0000
  H   H117      1.0  0.48216  0.92491  0.74216  1.0000
  H   H118      1.0  0.20606  0.93822  0.90133  1.0000
  C   C130      1.0  0.43818  0.93270  0.77118  1.0000
  C   C131      1.0  0.99603  0.71521  0.72811  1.0000
  H   H119      1.0  0.19218  0.97220  0.94028  1.0000
  C   C132      1.0  0.00975  0.72356  0.96087  1.0000
  C   C133      1.0  0.13871  0.95595  0.80046  1.0000
  C   C134      1.0  0.45345  0.81557  0.80736  1.0000
  C   C135      1.0  0.04567  0.63685  0.83072  1.0000
  H   H120      1.0  0.40133  0.93762  0.80406  1.0000
  H   H121      1.0  0.29092  0.94751  0.95523  1.0000
  H   H122      1.0  0.15664  0.79942  0.94502  1.0000
  H   H123      1.0  0.05117  0.68882  0.80181  1.0000
  H   H124      1.0  0.29061  0.93409  0.98730  1.0000
  C   C136      1.0  0.11554  0.77876  0.94996  1.0000
  H   H125      1.0  0.09300  0.80782  0.91911  1.0000
  S   S48       1.0  0.28709  0.98804  0.86391  1.0000
  H   H126      1.0  0.05771  0.69706  0.73091  1.0000
  H   H127      1.0  0.03122  0.93156  0.82853  1.0000
  C   C137      1.0  0.48149  0.93205  0.76150  1.0000
  H   H128      1.0  0.03742  0.90347  0.80072  1.0000
  H   H129      1.0  0.03113  0.69439  0.99245  1.0000
  H   H130      1.0  0.40544  0.92551  0.75958  1.0000
  H   H131      1.0  0.98588  0.80204  0.76467  1.0000
  H   H132      1.0  0.00498  0.77774  0.90754  1.0000
  H   H133      1.0  0.24517  0.96088  0.02135  1.0000
  C   C138      1.0  0.07922  0.78324  0.93529  1.0000
  C   C139      1.0  0.43586  0.93953  0.79621  1.0000
  N   N11       1.0  0.10870  0.94863  0.82070  1.0000
  C   C140      1.0  0.05187  0.91337  0.81982  1.0000
  H   H134      1.0  0.02803  0.58245  0.86044  1.0000
  C   C141      1.0  0.30056  0.96567  0.97361  1.0000
  C   C142      1.0  0.27454  0.97586  0.03558  1.0000
  C   C143      1.0  0.01219  0.59729  0.84676  1.0000
  C   C144      1.0  0.47659  0.94548  0.81126  1.0000
  H   H135      1.0  0.47398  0.94831  0.83087  1.0000
  C   C145      1.0  0.98925  0.76178  0.92597  1.0000
  C   C146      1.0  0.13165  0.97229  0.84226  1.0000
  H   H136      1.0  0.10808  0.96559  0.85846  1.0000
  C   C147      1.0  0.99442  0.75414  0.03952  1.0000
  C   C148      1.0  0.19312  0.98807  0.80145  1.0000
  H   H137      1.0  0.27565  0.98313  0.97705  1.0000
  Fe  Fe25      1.0  0.83721  0.15587  0.30575  1.0000
  S   S49       1.0  0.83485  0.22835  0.31405  1.0000
  S   S50       1.0  0.89662  0.15363  0.28043  1.0000
  Fe  Fe26      1.0  0.74653  0.08847  0.34134  1.0000
  S   S51       1.0  0.73750  0.15650  0.35175  1.0000
  Fe  Fe27      1.0  0.74678  0.17657  0.31166  1.0000
  S   S52       1.0  0.69941  0.19719  0.28563  1.0000
  Fe  Fe28      1.0  0.82565  0.20065  0.35307  1.0000
  C   C149      1.0  0.80879  0.11645  0.23334  1.0000
  S   S53       1.0  0.75009  0.10524  0.30105  1.0000
  S   S54       1.0  0.83356  0.13130  0.34492  1.0000
  C   C150      1.0  0.85864  0.20247  0.21372  1.0000
  H   H138      1.0  0.76169  0.16237  0.25488  1.0000
  C   C151      1.0  0.79251  0.18788  0.24234  1.0000
  C   C152      1.0  0.63840  0.19220  0.29236  1.0000
  C   C153      1.0  0.61096  0.20084  0.27361  1.0000
  C   C154      1.0  0.56219  0.19680  0.27814  1.0000
  C   C155      1.0  0.54047  0.18435  0.30159  1.0000
  C   C156      1.0  0.56821  0.17627  0.32037  1.0000
  C   C157      1.0  0.61665  0.17975  0.31578  1.0000
  H   H139      1.0  0.62753  0.21076  0.25545  1.0000
  H   H140      1.0  0.54134  0.20314  0.26352  1.0000
  H   H141      1.0  0.55205  0.16712  0.33862  1.0000
  H   H142      1.0  0.63745  0.17341  0.33043  1.0000
  H   H143      1.0  0.85147  0.31240  0.22059  1.0000
  H   H144      1.0  0.94008  0.15701  0.32968  1.0000
  C   C158      1.0  0.93850  0.25356  0.26108  1.0000
  C   C159      1.0  0.93808  0.20626  0.26089  1.0000
  H   H145      1.0  0.93728  0.28795  0.34424  1.0000
  H   H146      1.0  0.90145  0.27961  0.19766  1.0000
  H   H147      1.0  0.53184  0.07957  0.28657  1.0000
  H   H148      1.0  0.91421  0.25924  0.27388  1.0000
  H   H149      1.0  0.88146  0.18894  0.20410  1.0000
  H   H150      1.0  0.84457  0.11360  0.23111  1.0000
  C   C160      1.0  0.84233  0.27234  0.22292  1.0000
  N   N12       1.0  0.82077  0.17046  0.23000  1.0000
  H   H151      1.0  0.79447  0.10220  0.25215  1.0000
  H   H152      1.0  0.78125  0.25295  0.24941  1.0000
  H   H153      1.0  0.77867  0.09055  0.22000  1.0000
  C   C161      1.0  0.97032  0.19982  0.24424  1.0000
  C   C162      1.0  0.87001  0.25385  0.20992  1.0000
  C   C163      1.0  0.80318  0.23915  0.23917  1.0000
  C   C164      1.0  0.96191  0.29733  0.36022  1.0000
  H   H154      1.0  0.50577  0.06040  0.32730  1.0000
  H   H155      1.0  0.51269  0.08399  0.24298  1.0000
  S   S55       1.0  0.69042  0.00931  0.35801  1.0000
  H   H156      1.0  0.97049  0.16345  0.24404  1.0000
  C   C165      1.0  0.97921  0.18431  0.33614  1.0000
  C   C166      1.0  0.96946  0.29327  0.24417  1.0000
  H   H157      1.0  0.96853  0.32923  0.24407  1.0000
  C   C167      1.0  0.49202  0.06719  0.28108  1.0000
  H   H158      1.0  0.92181  0.11848  0.37115  1.0000
  Fe  Fe29      1.0  0.90795  0.24943  0.58663  1.0000
  S   S56       1.0  0.83890  0.25740  0.57628  1.0000
  Fe  Fe30      1.0  0.84205  0.15973  0.62318  1.0000
  S   S57       1.0  0.76874  0.16154  0.61493  1.0000
  S   S58       1.0  0.84467  0.09795  0.64723  1.0000
  Fe  Fe31      1.0  0.79466  0.16945  0.57578  1.0000
  S   S59       1.0  0.75207  0.12527  0.54190  1.0000
  Fe  Fe32      1.0  0.82059  0.24985  0.61641  1.0000
  S   S60       1.0  0.80139  0.30124  0.64024  1.0000
  S   S61       1.0  0.86478  0.16225  0.58374  1.0000
  S   S62       1.0  0.89270  0.24717  0.62705  1.0000
  H   H159      1.0  0.74448  0.04266  0.51218  1.0000
  H   H160      1.0  0.95435  0.27825  0.42170  1.0000
  C   C168      1.0  0.68845  0.41357  0.62998  1.0000
  C   C169      1.0  0.79615  0.05844  0.66901  1.0000
  C   C170      1.0  0.75250  0.06362  0.67313  1.0000
  C   C171      1.0  0.87279  0.15830  0.50898  1.0000
  C   C172      1.0  0.80970  0.36351  0.63354  1.0000
  C   C173      1.0  0.81473  0.38225  0.60963  1.0000
  C   C174      1.0  0.81706  0.43020  0.60508  1.0000
  C   C175      1.0  0.81543  0.46034  0.62437  1.0000
  C   C176      1.0  0.81197  0.44235  0.64835  1.0000
  C   C177      1.0  0.80861  0.39394  0.65286  1.0000
  H   H161      1.0  0.81536  0.35912  0.59459  1.0000
  H   H162      1.0  0.81381  0.13778  0.44176  1.0000
  H   H163      1.0  0.63811  0.29792  0.62973  1.0000
  H   H164      1.0  0.80472  0.37973  0.67144  1.0000
  C   C178      1.0  0.68985  0.46139  0.66569  1.0000
  C   C179      1.0  0.71316  0.05683  0.54471  1.0000
  C   C180      1.0  0.71634  0.02509  0.52678  1.0000
  H   H165      1.0  0.63011  0.00769  0.42242  1.0000
  C   C181      1.0  0.94034  0.19939  0.47841  1.0000
  C   C182      1.0  0.67665  0.03378  0.56359  1.0000
  N   N13       1.0  0.68436  0.37388  0.64447  1.0000
  C   C183      1.0  0.90373  0.15449  0.49090  1.0000
  C   C184      1.0  0.71326  0.02967  0.68955  1.0000
  H   H166      1.0  0.67951  0.03388  0.69248  1.0000
  H   H167      1.0  0.89669  0.30999  0.49713  1.0000
  C   C185      1.0  0.74456  0.06567  0.45258  1.0000
  C   C186      1.0  0.77334  0.10958  0.43761  1.0000
  H   H168      1.0  0.69699  0.30899  0.64515  1.0000
  H   H169      1.0  0.84432  0.12388  0.51901  1.0000
  H   H170      1.0  0.81977  0.44385  0.58646  1.0000
  H   H171      1.0  0.91331  0.30330  0.52829  1.0000
  C   C187      1.0  0.75867  0.01157  0.39340  1.0000
  H   H172      1.0  0.70173  0.33682  0.61570  1.0000
  H   H173      1.0  0.67333  0.05812  0.57723  1.0000
  C   C188      1.0  0.67983  0.32705  0.63323  1.0000
  H   H174      1.0  0.85565  0.20991  0.52878  1.0000
  H   H175      1.0  0.96608  0.19739  0.46495  1.0000
  C   C189      1.0  0.92271  0.30209  0.50874  1.0000
  H   H176      1.0  0.83423  0.01529  0.67875  1.0000
  C   C190      1.0  0.67011  0.03654  0.42704  1.0000
  C   C191      1.0  0.68525  0.42061  0.68033  1.0000
  C   C192      1.0  0.93929  0.27980  0.38327  1.0000
  H   H177      1.0  0.69100  0.41191  0.61028  1.0000
  C   C193      1.0  0.80039  0.01933  0.68171  1.0000
  H   H178      1.0  0.74876  0.09359  0.66357  1.0000
  H   H179      1.0  0.94885  0.47532  0.68497  1.0000
  H   H180      1.0  0.78824  0.04743  0.38495  1.0000
  C   C194      1.0  0.68226  0.37672  0.66934  1.0000
  H   H181      1.0  0.67938  0.08404  0.39529  1.0000
  S   S63       1.0  0.87087  0.24221  0.38687  1.0000
  N   N14       1.0  0.91632  0.25120  0.50261  1.0000
  C   C195      1.0  0.94107  0.43083  0.64195  1.0000
  H   H182      1.0  0.77181  0.15005  0.40504  1.0000
  H   H183      1.0  0.81082  0.46522  0.66336  1.0000
  C   C196      1.0  0.69147  0.45793  0.64036  1.0000
  H   H184      1.0  0.81552  0.03656  0.60411  1.0000
  H   H185      1.0  0.92457  0.41472  0.62366  1.0000
  N   N15       1.0  0.94303  0.48052  0.64633  1.0000
  H   H186      1.0  0.74203  0.04076  0.61896  1.0000
  H   H187      1.0  0.97311  0.21003  0.55099  1.0000
  H   H188      1.0  0.96512  0.15352  0.39577  1.0000
  C   C197      1.0  0.69776  0.07987  0.41165  1.0000
  C   C198      1.0  0.87949  0.20723  0.51454  1.0000
  C   C199      1.0  0.74971  0.11656  0.41700  1.0000
  N   N16       1.0  0.69375  0.02967  0.44708  1.0000
  H   H189      1.0  0.92623  0.17800  0.38195  1.0000
  C   C200      1.0  0.97164  0.29204  0.40386  1.0000
  H   H190      1.0  0.91526  0.40066  0.65551  1.0000
  H   H191      1.0  0.76326  0.05996  0.46839  1.0000
  H   H192      1.0  0.90011  0.11704  0.48691  1.0000
  H   H193      1.0  0.67882  0.34520  0.68082  1.0000
  H   H194      1.0  0.64781  0.99588  0.47891  1.0000
  H   H195      1.0  0.84966  0.99516  0.57656  1.0000
  H   H196      1.0  0.68422  0.42330  0.70005  1.0000
  C   C201      1.0  0.71684  0.99746  0.61907  1.0000
  C   C202      1.0  0.94889  0.15831  0.37825  1.0000
  H   H197      1.0  0.98097  0.43634  0.64313  1.0000
  H   H198      1.0  0.97570  0.28258  0.47519  1.0000
  C   C203      1.0  0.78873  0.99839  0.59657  1.0000
  H   H199      1.0  0.96401  0.33384  0.50625  1.0000
  H   H200      1.0  0.80997  0.01285  0.42183  1.0000
  C   C204      1.0  0.94595  0.24770  0.48445  1.0000
  C   C205      1.0  0.77086  0.99194  0.41432  1.0000
  C   C206      1.0  0.71740  0.99057  0.70226  1.0000
  H   H201      1.0  0.61308  0.43300  0.01304  1.0000
  C   C207      1.0  0.63789  0.44789  0.97540  1.0000
  C   C208      1.0  0.62549  0.42872  0.95160  1.0000
  C   C209      1.0  0.57960  0.38061  0.94705  1.0000
  C   C210      1.0  0.54547  0.35133  0.96616  1.0000
  C   C211      1.0  0.55770  0.37066  0.98996  1.0000
  C   C212      1.0  0.60383  0.41858  0.99455  1.0000
  H   H202      1.0  0.65139  0.45075  0.93670  1.0000
  H   H203      1.0  0.57050  0.36593  0.92858  1.0000
  H   H204      1.0  0.53179  0.34853  0.00483  1.0000
  N   N17       1.0  0.51668  0.45473  0.96715  1.0000
  C   C213      1.0  0.50809  0.45653  0.99157  1.0000
  H   H205      1.0  0.49727  0.12306  0.98052  1.0000
  H   H206      1.0  0.48869  0.41119  0.93417  1.0000
  H   H207      1.0  0.57471  0.48615  0.93902  1.0000
  S   S64       1.0  0.48750  0.29184  0.95922  1.0000
  C   C214      1.0  0.83249  0.62524  0.05804  1.0000
  C   C215      1.0  0.85430  0.67904  0.06135  1.0000
  C   C216      1.0  0.97910  0.70218  0.04487  1.0000
  H   H208      1.0  0.88372  0.69924  0.07535  1.0000
  H   H209      1.0  0.84532  0.60434  0.06981  1.0000
  C   C217      1.0  0.84029  0.70705  0.04556  1.0000
  H   H210      1.0  0.78791  0.52572  0.04986  1.0000
  H   H211      1.0  0.85862  0.74913  0.04722  1.0000
  Fe  Fe33      1.0  0.67026  0.76922  0.51263  1.0000
  S   S65       1.0  0.58707  0.74818  0.51926  1.0000
  S   S66       1.0  0.69767  0.71738  0.53011  1.0000
  Fe  Fe34      1.0  0.68769  0.85487  0.47473  1.0000
  S   S67       1.0  0.60567  0.83903  0.47869  1.0000
  S   S68       1.0  0.74899  0.92408  0.45272  1.0000
  Fe  Fe35      1.0  0.62001  0.83536  0.51881  1.0000
  S   S69       1.0  0.60403  0.87924  0.54769  1.0000
  Fe  Fe36      1.0  0.58103  0.75334  0.47850  1.0000
  C   C218      1.0  0.68336  0.97057  0.52774  1.0000
  S   S70       1.0  0.70338  0.85566  0.51504  1.0000
  S   S71       1.0  0.66302  0.76998  0.47169  1.0000
  Fe  Fe37      1.0  0.82791  0.68546  0.64865  1.0000
  S   S72       1.0  0.76063  0.60321  0.64741  1.0000
  S   S73       1.0  0.82018  0.75070  0.63058  1.0000
  Fe  Fe38      1.0  0.89046  0.65630  0.68427  1.0000
  S   S74       1.0  0.82605  0.57204  0.68570  1.0000
  Fe  Fe39      1.0  0.82109  0.57865  0.64519  1.0000
  Fe  Fe40      1.0  0.77229  0.60463  0.68791  1.0000
  C   C219      1.0  0.69865  0.70232  0.66009  1.0000
  S   S75       1.0  0.88834  0.66157  0.64316  1.0000
  S   S76       1.0  0.83651  0.68811  0.68975  1.0000
  H   H212      1.0  0.65429  0.66193  0.48474  1.0000
  H   H213      1.0  0.61197  0.78087  0.69227  1.0000
  N   N18       1.0  0.73657  0.97346  0.60214  1.0000
  C   C220      1.0  0.66399  0.98471  0.46336  1.0000
  C   C221      1.0  0.76134  0.98567  0.69836  1.0000
  C   C222      1.0  0.65051  0.74250  0.67677  1.0000
  C   C223      1.0  0.67015  0.93818  0.39479  1.0000
  H   H214      1.0  0.66165  0.90502  0.59739  1.0000
  C   C224      1.0  0.73269  0.94563  0.42568  1.0000
  C   C225      1.0  0.68225  0.91874  0.41581  1.0000
  C   C226      1.0  0.50654  0.56779  0.47503  1.0000
  H   H215      1.0  0.65262  0.88286  0.42431  1.0000
  C   C227      1.0  0.64594  0.94758  0.54624  1.0000
  C   C228      1.0  0.57709  0.62461  0.50071  1.0000
  H   H216      1.0  0.59154  0.64334  0.51823  1.0000
  H   H217      1.0  0.66517  0.66524  0.66716  1.0000
  H   H218      1.0  0.95202  0.61309  0.65823  1.0000
  C   C229      1.0  0.61279  0.63525  0.48182  1.0000
  H   H219      1.0  0.68643  0.94636  0.51400  1.0000
  C   C230      1.0  0.73048  0.72731  0.55848  1.0000
  C   C231      1.0  0.74792  0.77293  0.57208  1.0000
  C   C232      1.0  0.77530  0.77964  0.59415  1.0000
  C   C233      1.0  0.78506  0.74065  0.60291  1.0000
  C   C234      1.0  0.76669  0.69469  0.58955  1.0000
  C   C235      1.0  0.73982  0.68823  0.56740  1.0000
  H   H220      1.0  0.74108  0.80326  0.56535  1.0000
  H   H221      1.0  0.78949  0.81538  0.60434  1.0000
  H   H222      1.0  0.77410  0.66451  0.59600  1.0000
  H   H223      1.0  0.72665  0.65290  0.55699  1.0000
  H   H224      1.0  0.49697  0.56530  0.53302  1.0000
  C   C236      1.0  0.74021  0.79663  0.66649  1.0000
  C   C237      1.0  0.73911  0.84100  0.67416  1.0000
  H   H225      1.0  0.77641  0.80108  0.65934  1.0000
  C   C238      1.0  0.72131  0.90042  0.57752  1.0000
  C   C239      1.0  0.69272  0.83546  0.68342  1.0000
  H   H226      1.0  0.94252  0.58000  0.61587  1.0000
  H   H227      1.0  0.78878  0.90738  0.55918  1.0000
  H   H228      1.0  0.69414  0.86238  0.56995  1.0000
  C   C240      1.0  0.64811  0.78592  0.68473  1.0000
  C   C241      1.0  0.77426  0.92582  0.57140  1.0000
  C   C242      1.0  0.94507  0.55770  0.63107  1.0000
  S   S77       1.0  0.52186  0.69097  0.45273  1.0000
  H   H229      1.0  0.62172  0.62155  0.44408  1.0000
  H   H230      1.0  0.69134  0.86935  0.68978  1.0000
  C   C243      1.0  0.70309  0.92482  0.59310  1.0000
  H   H231      1.0  0.61564  0.70412  0.67814  1.0000
  H   H232      1.0  0.73491  0.70411  0.66692  1.0000
  H   H233      1.0  0.63106  0.91710  0.38724  1.0000
  H   H234      1.0  0.63147  0.95139  0.45353  1.0000
  N   N19       1.0  0.52469  0.59172  0.49708  1.0000
  H   H235      1.0  0.61321  0.96177  0.57828  1.0000
  N   N20       1.0  0.69641  0.74812  0.66819  1.0000
  H   H236      1.0  0.77410  0.87935  0.67312  1.0000
  C   C244      1.0  0.70819  0.98474  0.38355  1.0000
  C   C245      1.0  0.54109  0.57812  0.45563  1.0000
  H   H237      1.0  0.69881  0.70113  0.63981  1.0000
  S   S78       1.0  0.81626  0.51921  0.61754  1.0000
  C   C246      1.0  0.59452  0.61235  0.45906  1.0000
  C   C247      1.0  0.80833  0.97509  0.58104  1.0000
  C   C248      1.0  0.95102  0.54622  0.67435  1.0000
  H   H238      1.0  0.52634  0.56063  0.43792  1.0000
  C   C249      1.0  0.94964  0.57596  0.65486  1.0000
  H   H239      1.0  0.95458  0.56051  0.69287  1.0000
  H   H240      1.0  0.69246  0.49574  0.67400  1.0000
  C   C250      1.0  0.64255  0.97933  0.56411  1.0000
  H   H241      1.0  0.68936  0.97013  0.47062  1.0000
  H   H242      1.0  0.71589  0.98278  0.63787  1.0000
  S   S79       1.0  0.96510  0.67134  0.70360  1.0000
  C   C251      1.0  0.94775  0.49830  0.66973  1.0000
  C   C252      1.0  0.94222  0.50981  0.62709  1.0000
  H   H243      1.0  0.93805  0.49571  0.60853  1.0000
  H   H244      1.0  0.49202  0.62065  0.52247  1.0000
  C   C253      1.0  0.48823  0.58286  0.51704  1.0000
  H   H245      1.0  0.67683  0.98832  0.61396  1.0000
  H   H246      1.0  0.69636  0.48995  0.62879  1.0000
  Fe  Fe41      1.0  0.65541  0.88234  0.74741  1.0000
  S   S80       1.0  0.57234  0.81493  0.74655  1.0000
  H   H247      1.0  0.79148  0.71729  0.81086  1.0000
  Fe  Fe42      1.0  0.68358  0.83220  0.78988  1.0000
  S   S81       1.0  0.60237  0.76329  0.79207  1.0000
  S   S82       1.0  0.74849  0.83497  0.81325  1.0000
  Fe  Fe43      1.0  0.60838  0.76455  0.75126  1.0000
  H   H248      1.0  0.89748  0.58616  0.82881  1.0000
  Fe  Fe44      1.0  0.57461  0.82079  0.78740  1.0000
  S   S83       1.0  0.70142  0.56846  0.71223  1.0000
  S   S84       1.0  0.69092  0.83080  0.74886  1.0000
  S   S85       1.0  0.65627  0.89054  0.78830  1.0000
  Fe  Fe45      1.0  0.75275  0.65518  0.91963  1.0000
  S   S86       1.0  0.74050  0.57507  0.91304  1.0000
  S   S87       1.0  0.69514  0.67325  0.90092  1.0000
  Fe  Fe46      1.0  0.84051  0.68075  0.95724  1.0000
  S   S88       1.0  0.83441  0.60303  0.95290  1.0000
  S   S89       1.0  0.90178  0.74235  0.98210  1.0000
  Fe  Fe47      1.0  0.82869  0.61661  0.91286  1.0000
  S   S90       1.0  0.87693  0.61042  0.88273  1.0000
  Fe  Fe48      1.0  0.74691  0.56982  0.95381  1.0000
  S   S91       1.0  0.84025  0.69675  0.91700  1.0000
  S   S92       1.0  0.75381  0.64770  0.96052  1.0000
  C   C254      1.0  0.93206  0.72602  0.00572  1.0000
  H   H249      1.0  0.95307  0.72337  0.92329  1.0000
  H   H250      1.0  0.88834  0.64305  0.99965  1.0000
  C   C255      1.0  0.91799  0.67417  0.01057  1.0000
  C   C256      1.0  0.58886  0.60372  0.72494  1.0000
  C   C257      1.0  0.94495  0.64961  0.88694  1.0000
  H   H251      1.0  0.60280  0.96347  0.77482  1.0000
  C   C258      1.0  0.56506  0.93442  0.76633  1.0000
  H   H252      1.0  0.94690  0.60666  0.91838  1.0000
  C   C259      1.0  0.73362  0.79173  0.83842  1.0000
  C   C260      1.0  0.77414  0.78848  0.85020  1.0000
  C   C261      1.0  0.76318  0.75259  0.86948  1.0000
  C   C262      1.0  0.71157  0.72014  0.87732  1.0000
  C   C263      1.0  0.67126  0.72406  0.86581  1.0000
  C   C264      1.0  0.68216  0.75950  0.84642  1.0000
  H   H253      1.0  0.81410  0.81351  0.84424  1.0000
  H   H254      1.0  0.79459  0.75015  0.87829  1.0000
  H   H255      1.0  0.63132  0.69953  0.87192  1.0000
  H   H256      1.0  0.65075  0.76232  0.83794  1.0000
  N   N21       1.0  0.79755  0.60009  0.03954  1.0000
  H   H257      1.0  0.96353  0.66006  0.77708  1.0000
  H   H258      1.0  0.57563  0.64485  0.78184  1.0000
  H   H259      1.0  0.69199  0.72813  0.72619  1.0000
  C   C265      1.0  0.51914  0.94428  0.80100  1.0000
  H   H260      1.0  0.54923  0.94587  0.81294  1.0000
  H   H261      1.0  0.59642  0.51664  0.96797  1.0000
  H   H262      1.0  0.96833  0.70122  0.96492  1.0000
  C   C266      1.0  0.94140  0.66235  0.03007  1.0000
  S   S93       1.0  0.57892  0.68898  0.73094  1.0000
  C   C267      1.0  0.69770  0.65921  0.71978  1.0000
  S   S94       1.0  0.51590  0.82333  0.81343  1.0000
  H   H263      1.0  0.75610  0.60722  0.00933  1.0000
  C   C268      1.0  0.67008  0.60451  0.71781  1.0000
  H   H264      1.0  0.95601  0.69856  0.85562  1.0000
  N   N22       1.0  0.97224  0.63886  0.81317  1.0000
  C   C269      1.0  0.97514  0.68921  0.86999  1.0000
  H   H265      1.0  0.79472  0.70280  0.01399  1.0000
  C   C270      1.0  0.61578  0.57706  0.72078  1.0000
  C   C271      1.0  0.61597  0.65810  0.72708  1.0000
  H   H266      1.0  0.56934  0.94156  0.74628  1.0000
  C   C272      1.0  0.96993  0.63758  0.90542  1.0000
  N   N23       1.0  0.64255  0.65813  0.80267  1.0000
  C   C273      1.0  0.66098  0.64054  0.82116  1.0000
  C   C274      1.0  0.67659  0.69707  0.78732  1.0000
  C   C275      1.0  0.71475  0.66086  0.82414  1.0000
  C   C276      1.0  0.73056  0.71823  0.78974  1.0000
  C   C277      1.0  0.74966  0.69984  0.80824  1.0000
  C   C278      1.0  0.58611  0.63725  0.80036  1.0000
  H   H267      1.0  0.63422  0.61160  0.83412  1.0000
  H   H268      1.0  0.66220  0.71271  0.77338  1.0000
  H   H269      1.0  0.72924  0.64795  0.83929  1.0000
  H   H270      1.0  0.75736  0.75019  0.77798  1.0000
  H   H271      1.0  0.93220  0.54881  0.85859  1.0000
  H   H272      1.0  0.53580  0.48942  0.00243  1.0000
  H   H273      1.0  0.56414  0.59425  0.80318  1.0000
  H   H274      1.0  0.57329  0.65586  0.81408  1.0000
  S   S95       1.0  0.69462  0.50869  0.98206  1.0000
  H   H275      1.0  0.96872  0.70473  0.80064  1.0000
  C   C279      1.0  0.56219  0.49887  0.95542  1.0000
  H   H276      1.0  0.98229  0.80621  0.01633  1.0000
  H   H277      1.0  0.73979  0.68068  0.71777  1.0000
  C   C280      1.0  0.95849  0.57824  0.84564  1.0000
  H   H278      1.0  0.94086  0.74187  0.73008  1.0000
  C   C281      1.0  0.67068  0.68600  0.72474  1.0000
  H   H279      1.0  0.59418  0.53490  0.71938  1.0000
  H   H280      1.0  0.54665  0.58192  0.72655  1.0000
  C   C282      1.0  0.93904  0.59970  0.82869  1.0000
  S   S96       1.0  0.66582  0.94842  0.72220  1.0000
  C   C283      1.0  0.95215  0.66280  0.79609  1.0000
  H   H281      1.0  0.55843  0.89476  0.77006  1.0000
  H   H282      1.0  0.79155  0.53891  0.01749  1.0000
  H   H283      1.0  0.90882  0.64352  0.79668  1.0000
  C   C284      1.0  0.78325  0.62718  0.02415  1.0000
  C   C285      1.0  0.77672  0.54429  0.03522  1.0000
  N   N24       1.0  0.52146  0.93835  0.77638  1.0000
  C   C286      1.0  0.97087  0.76595  0.02006  1.0000
  C   C287      1.0  0.97595  0.74492  0.73780  1.0000
  H   H284      1.0  0.55270  0.52916  0.94982  1.0000
  C   C288      1.0  0.80443  0.68102  0.02688  1.0000
  H   H285      1.0  0.92954  0.62208  0.03402  1.0000
  H   H286      1.0  0.97847  0.78807  0.93538  1.0000
  H   H287      1.0  0.73325  0.52332  0.03422  1.0000
  H   H288      1.0  0.76544  0.95628  0.70826  1.0000
