data_image0
_chemical_formula_structural       FeS2FeS2FeSFeS3HCHSFeCH2CHCH2CHC4SH2C6H2C5HC3SNHCH3C2H2C2HSHCHC2H3CFeCH5CH3CHC4HCHC3HC4NHN2CH3CH2CHCHC2HSC4H2FeSHCSHCHFeS2FeS2FeCFeS3C6H4C3HC2H2C6H3C2NHSC3SHCH2CNCH4CNHC3SHCH4C2H2C3H2NSCH2CH2CH5C2H2C3FeNH2SHNHCHC3H3Fe2C2HSFeS3CHCFeS2CHC2HC2H2NCH2FeSHFeS2FeSFeSCS2HSH2CSHSCHSH3C9H2C2SC2NCH2CH3CH2CH2FeHCHCHS2HSHCHCNC2H2CHC2HCHFeH3SCHSCHCH5FeNC2HCH2NCSCFeSCFeS2FeS2FeHFeSH2C6H4FeH3S2FeS2FeS2FeSFeS2C6H2C4H3SCH3C2HC3H2NH9CSC3HC3H4CNC6H4NH3C2HC2H2CHSFeCH4C3HCH3CHCHCSFe2H2Fe3S3CH2FeS3CFeC2SHCHSCHNH3CH3CSCSC7HCH6FeCH2SC2SHC3H2CHNSCHC3HCHCH2CHC2H3C3HCHCHCHC4FeSHSNHFeSCFeS2FeSFeS2C6H4CHC6H2CHSH2CH2CH2CH4CH2S2H2C2SHCH2CH3NHCH5CH2NC6HC2H2C3SCNHC2H3C2HCHFeC2FeS2FeS2FeSFeS3CHNSFeHCSC2HC4H2CH4CSC4HCH2C3HC2H2FeHC3HC2H2C2HC4HC3HCHSH2CH2CNC6H8CH3CNCH5SHCSCHFeSH3CHCFeS2FeS2FeCFeS3C6H3SCHC2SCSHC4HCH5CFeC2NC3HC3S2H4C3H2FeHCH2NH3C2HCH2CSNC7HC3HCH2CH2CH3CH2C2SHC2HNHSHCFe2HNHCHCS2HC2FeSC6SH3C2H2FeS2FeS2FeSFeS4C2H2CHFeC4H5FeC6H2C2H3CHC2H2CH3CSCH2SFeNHCH4SCH2NHCHSFeCHCH2CH2C3H2CNC3HNCHSCHCHCHCHCSHNHCFeSHFeS2FeS2FeNFeSH2C6HCH2CSHS3FeS2FeS2FeSFeS2C6H2C6HCHSH2C2H2CNHC2H4C3H2NH5CHC2HCH4C2HC2H2CHC4H2CH6FeH2SCNSNHFeC4FeCS2HCSFeS2HCH2NHCFe2H2CSC4HCH2SH2C2HC3H2C6HS2H2CSH4SCH4C3H4C3HCSHCFeH2CHCH2S2HCHCH2C2HCFeC2HCH2CHNC2H2CNH3Fe2S3CNFeSHFeS2FeSFeS2C6H6C6H7CHC3HC2HC2HC2HC2SCH2C2SC2H2SCH4CH2CHFeNH3NHCSH3CH3C
_chemical_formula_sum              "Fe96 S192 H576 C576 N48"
_cell_length_a       42.5313
_cell_length_b       41.784
_cell_length_c       35.221
_cell_angle_alpha    89.9561
_cell_angle_beta     89.9959
_cell_angle_gamma    120.227

_space_group_name_H-M_alt    "P 1"
_space_group_IT_number       1

loop_
  _space_group_symop_operation_xyz
  'x, y, z'

loop_
  _atom_site_type_symbol
  _atom_site_label
  _atom_site_symmetry_multiplicity
  _atom_site_fract_x
  _atom_site_fract_y
  _atom_site_fract_z
  _atom_site_occupancy
  Fe  Fe1       1.0  0.40661  0.09997  0.29858  1.0000
  S   S1        1.0  0.36207  0.11140  0.28307  1.0000
  S   S2        1.0  0.45298  0.10810  0.25950  1.0000
  Fe  Fe2       1.0  0.38254  0.08518  0.38323  1.0000
  S   S3        1.0  0.33675  0.09634  0.37343  1.0000
  S   S4        1.0  0.40040  0.07857  0.44243  1.0000
  Fe  Fe3       1.0  0.32641  0.06256  0.32044  1.0000
  S   S5        1.0  0.04652  0.14539  0.02541  1.0000
  Fe  Fe4       1.0  0.37664  0.14422  0.33733  1.0000
  S   S6        1.0  0.37940  0.19977  0.33805  1.0000
  S   S7        1.0  0.37019  0.04832  0.33223  1.0000
  S   S8        1.0  0.42331  0.13580  0.35081  1.0000
  H   H1        1.0  0.02162  0.27155  0.37765  1.0000
  C   C1        1.0  0.42351  0.25905  0.25263  1.0000
  H   H2        1.0  0.02675  0.15416  0.20711  1.0000
  S   S9        1.0  0.05669  0.22441  0.05416  1.0000
  Fe  Fe5       1.0  0.09201  0.20444  0.02810  1.0000
  C   C2        1.0  0.48681  0.31005  0.34790  1.0000
  H   H3        1.0  0.06341  0.07896  0.48186  1.0000
  H   H4        1.0  0.41847  0.23727  0.08447  1.0000
  C   C3        1.0  0.22546  0.28318  0.13357  1.0000
  H   H5        1.0  0.41702  0.03533  0.11984  1.0000
  C   C4        1.0  0.45565  0.29325  0.25424  1.0000
  H   H6        1.0  0.46244  0.01083  0.05163  1.0000
  H   H7        1.0  0.39514  0.27473  0.34332  1.0000
  C   C5        1.0  0.99960  0.14978  0.15392  1.0000
  H   H8        1.0  0.40201  0.28593  0.07348  1.0000
  C   C6        1.0  0.49213  0.01289  0.48634  1.0000
  C   C7        1.0  0.18631  0.28505  0.02821  1.0000
  C   C8        1.0  0.03558  0.02059  0.46880  1.0000
  C   C9        1.0  0.45354  0.30922  0.34657  1.0000
  S   S10       1.0  0.13209  0.03129  0.33484  1.0000
  H   H9        1.0  0.39732  0.25756  0.25400  1.0000
  H   H10       1.0  0.16076  0.28438  0.02408  1.0000
  C   C10       1.0  0.45451  0.11462  0.20947  1.0000
  C   C11       1.0  0.42310  0.10465  0.18827  1.0000
  C   C12       1.0  0.42494  0.10714  0.14829  1.0000
  C   C13       1.0  0.45826  0.12048  0.12905  1.0000
  C   C14       1.0  0.21940  0.31867  0.02508  1.0000
  C   C15       1.0  0.18754  0.26448  0.13179  1.0000
  H   H11       1.0  0.39714  0.09374  0.20251  1.0000
  H   H12       1.0  0.40024  0.09801  0.13210  1.0000
  C   C16       1.0  0.45439  0.00635  0.37654  1.0000
  C   C17       1.0  0.48905  0.29454  0.25537  1.0000
  C   C18       1.0  0.42088  0.24160  0.34498  1.0000
  C   C19       1.0  0.42073  0.27512  0.34514  1.0000
  C   C20       1.0  0.04911  0.05119  0.49347  1.0000
  H   H13       1.0  0.21980  0.22899  0.05176  1.0000
  C   C21       1.0  0.17051  0.02767  0.32330  1.0000
  C   C22       1.0  0.45408  0.24238  0.34749  1.0000
  C   C23       1.0  0.16984  0.28396  0.12280  1.0000
  S   S11       1.0  0.45815  0.11799  0.07862  1.0000
  N   N1        1.0  0.46430  0.03198  0.10693  1.0000
  H   H14       1.0  0.45456  0.21681  0.34765  1.0000
  C   C24       1.0  0.23286  0.02221  0.30861  1.0000
  H   H15       1.0  0.48215  0.06077  0.05473  1.0000
  H   H16       1.0  0.01146  0.30635  0.07182  1.0000
  H   H17       1.0  0.27825  0.28822  0.04480  1.0000
  C   C25       1.0  0.20520  0.05637  0.33375  1.0000
  C   C26       1.0  0.23626  0.05353  0.32676  1.0000
  H   H18       1.0  0.20801  0.08067  0.34790  1.0000
  H   H19       1.0  0.26276  0.07551  0.33562  1.0000
  C   C27       1.0  0.38305  0.03869  0.47179  1.0000
  C   C28       1.0  0.44135  0.02294  0.31653  1.0000
  H   H20       1.0  0.43047  0.03378  0.46320  1.0000
  S   S12       1.0  0.14558  0.21140  0.04826  1.0000
  H   H21       1.0  0.47173  0.08956  0.34439  1.0000
  C   C29       1.0  0.46469  0.06908  0.36774  1.0000
  H   H22       1.0  0.23947  0.26806  0.13942  1.0000
  C   C30       1.0  0.25264  0.32002  0.03142  1.0000
  C   C31       1.0  0.48981  0.26144  0.25470  1.0000
  H   H23       1.0  0.48374  0.25503  0.08770  1.0000
  H   H24       1.0  0.45304  0.33477  0.34582  1.0000
  H   H25       1.0  0.14043  0.26931  0.12004  1.0000
  C   C32       1.0  0.99974  0.30701  0.36519  1.0000
  Fe  Fe6       1.0  0.01039  0.16640  0.04605  1.0000
  C   C33       1.0  0.47617  0.27610  0.08413  1.0000
  H   H26       1.0  0.44033  0.04310  0.29799  1.0000
  H   H27       1.0  0.43458  0.17000  0.24184  1.0000
  H   H28       1.0  0.03953  0.02488  0.43847  1.0000
  H   H29       1.0  0.17189  0.23467  0.13592  1.0000
  H   H30       1.0  0.05524  0.24197  0.31230  1.0000
  C   C34       1.0  0.02798  0.28084  0.28559  1.0000
  H   H31       1.0  0.02367  0.32961  0.27649  1.0000
  H   H32       1.0  0.45466  0.31864  0.25657  1.0000
  H   H33       1.0  0.02380  0.15871  0.13689  1.0000
  C   C35       1.0  0.40608  0.02472  0.47989  1.0000
  H   H34       1.0  0.40008  0.20002  0.25307  1.0000
  C   C36       1.0  0.18637  0.25284  0.03872  1.0000
  C   C37       1.0  0.48791  0.12840  0.19031  1.0000
  C   C38       1.0  0.48691  0.27650  0.34898  1.0000
  C   C39       1.0  0.42527  0.22650  0.25217  1.0000
  H   H35       1.0  0.05641  0.29700  0.29366  1.0000
  C   C40       1.0  0.45956  0.19373  0.25402  1.0000
  H   H36       1.0  0.48904  0.07932  0.38626  1.0000
  C   C41       1.0  0.21964  0.25391  0.04368  1.0000
  C   C42       1.0  0.43958  0.26615  0.08216  1.0000
  C   C43       1.0  0.43033  0.29339  0.07601  1.0000
  H   H37       1.0  0.43384  0.03068  0.05784  1.0000
  C   C44       1.0  0.48988  0.13169  0.15036  1.0000
  C   C45       1.0  0.19045  0.32205  0.11568  1.0000
  C   C46       1.0  0.35233  0.02781  0.49497  1.0000
  C   C47       1.0  0.49346  0.03046  0.12106  1.0000
  N   N2        1.0  0.00987  0.24294  0.28702  1.0000
  H   H38       1.0  0.44211  0.06802  0.38457  1.0000
  N   N3        1.0  0.45370  0.03209  0.35303  1.0000
  N   N4        1.0  0.45817  0.22804  0.25269  1.0000
  C   C48       1.0  0.25275  0.28734  0.03958  1.0000
  H   H39       1.0  0.46227  0.18693  0.28388  1.0000
  H   H40       1.0  0.01220  0.20040  0.31784  1.0000
  H   H41       1.0  0.46402  0.01345  0.40553  1.0000
  C   C49       1.0  0.02905  0.22337  0.29780  1.0000
  H   H42       1.0  0.03430  0.21124  0.27218  1.0000
  H   H43       1.0  0.27474  0.33526  0.12590  1.0000
  C   C50       1.0  0.00118  0.14713  0.19368  1.0000
  H   H44       1.0  0.48293  0.19628  0.23737  1.0000
  C   C51       1.0  0.46046  0.03357  0.06572  1.0000
  H   H45       1.0  0.33490  0.03928  0.48981  1.0000
  C   C52       1.0  0.45794  0.33030  0.07169  1.0000
  C   C53       1.0  0.24523  0.32123  0.12599  1.0000
  H   H46       1.0  0.17657  0.33688  0.10786  1.0000
  S   S13       1.0  0.27072  0.01607  0.30271  1.0000
  C   C54       1.0  0.43962  0.03312  0.13100  1.0000
  C   C55       1.0  0.00960  0.29954  0.27571  1.0000
  C   C56       1.0  0.47322  0.03064  0.18503  1.0000
  C   C57       1.0  0.44357  0.03221  0.17037  1.0000
  H   H47       1.0  0.47661  0.02973  0.21548  1.0000
  H   H48       1.0  0.42407  0.03334  0.18936  1.0000
  Fe  Fe7       1.0  0.03766  0.15971  0.96629  1.0000
  S   S14       1.0  0.08482  0.21801  0.96841  1.0000
  H   H49       1.0  0.22297  0.27302  0.74444  1.0000
  C   C58       1.0  0.46792  0.32088  0.97836  1.0000
  S   S15       1.0  0.48838  0.17747  0.98858  1.0000
  H   H50       1.0  0.46996  0.10167  0.58313  1.0000
  C   C59       1.0  0.00237  0.28400  0.97928  1.0000
  H   H51       1.0  0.01985  0.16052  0.86838  1.0000
  Fe  Fe8       1.0  0.06991  0.10714  0.70561  1.0000
  S   S16       1.0  0.12489  0.11600  0.72183  1.0000
  S   S17       1.0  0.03052  0.11443  0.74345  1.0000
  Fe  Fe9       1.0  0.07899  0.09321  0.62151  1.0000
  S   S18       1.0  0.13473  0.10175  0.63120  1.0000
  S   S19       1.0  0.05571  0.08517  0.56192  1.0000
  Fe  Fe10      1.0  0.11069  0.06744  0.68346  1.0000
  C   C60       1.0  0.16320  0.06115  0.54754  1.0000
  Fe  Fe11      1.0  0.14434  0.14976  0.66811  1.0000
  S   S20       1.0  0.19875  0.20265  0.66280  1.0000
  S   S21       1.0  0.05370  0.05552  0.67148  1.0000
  S   S22       1.0  0.09049  0.14425  0.65420  1.0000
  C   C61       1.0  0.20870  0.31687  0.66640  1.0000
  C   C62       1.0  0.17653  0.28559  0.67888  1.0000
  C   C63       1.0  0.17233  0.25001  0.67630  1.0000
  C   C64       1.0  0.20033  0.24561  0.66115  1.0000
  C   C65       1.0  0.23192  0.27675  0.64749  1.0000
  C   C66       1.0  0.23614  0.31224  0.65018  1.0000
  H   H52       1.0  0.15505  0.28892  0.69123  1.0000
  H   H53       1.0  0.14787  0.22616  0.68693  1.0000
  H   H54       1.0  0.25357  0.27348  0.63551  1.0000
  H   H55       1.0  0.45101  0.27988  0.89764  1.0000
  C   C67       1.0  0.22474  0.02410  0.66331  1.0000
  C   C68       1.0  0.22099  0.05544  0.65923  1.0000
  C   C69       1.0  0.18861  0.05430  0.67007  1.0000
  H   H56       1.0  0.10392  0.14331  0.97366  1.0000
  C   C70       1.0  0.15978  0.02177  0.68520  1.0000
  C   C71       1.0  0.25143  0.29276  0.73898  1.0000
  H   H57       1.0  0.24309  0.08064  0.64734  1.0000
  H   H58       1.0  0.18598  0.07856  0.66662  1.0000
  C   C72       1.0  0.03638  0.11886  0.79332  1.0000
  C   C73       1.0  0.04691  0.09708  0.81371  1.0000
  C   C74       1.0  0.04659  0.09731  0.85366  1.0000
  C   C75       1.0  0.03684  0.12011  0.87364  1.0000
  C   C76       1.0  0.02762  0.14298  0.85333  1.0000
  C   C77       1.0  0.02671  0.14177  0.81330  1.0000
  H   H59       1.0  0.05397  0.07897  0.79868  1.0000
  H   H60       1.0  0.05356  0.07935  0.86914  1.0000
  H   H61       1.0  0.40026  0.22078  0.90893  1.0000
  C   C78       1.0  0.12353  0.14487  0.95184  1.0000
  C   C79       1.0  0.17430  0.20874  0.95522  1.0000
  N   N5        1.0  0.45408  0.23040  0.89896  1.0000
  H   H62       1.0  0.37400  0.12304  0.52110  1.0000
  S   S23       1.0  0.11787  0.01854  0.69658  1.0000
  C   C80       1.0  0.27350  0.27981  0.72417  1.0000
  C   C81       1.0  0.18930  0.05098  0.55454  1.0000
  C   C82       1.0  0.35338  0.08960  0.57175  1.0000
  S   S24       1.0  0.26479  0.02596  0.64670  1.0000
  H   H63       1.0  0.26203  0.25050  0.71807  1.0000
  C   C83       1.0  0.43418  0.28811  0.97855  1.0000
  H   H64       1.0  0.49288  0.02096  0.89691  1.0000
  H   H65       1.0  0.42893  0.11737  0.51795  1.0000
  C   C84       1.0  0.04341  0.04614  0.53282  1.0000
  N   N6        1.0  0.41523  0.08312  0.56728  1.0000
  C   C85       1.0  0.35947  0.06886  0.59869  1.0000
  H   H66       1.0  0.21692  0.26618  0.95759  1.0000
  H   H67       1.0  0.19389  0.28406  0.90134  1.0000
  H   H68       1.0  0.14202  0.13650  0.96503  1.0000
  H   H69       1.0  0.48010  0.04011  0.53076  1.0000
  C   C86       1.0  0.46476  0.25326  0.99195  1.0000
  N   N7        1.0  0.26508  0.32984  0.74471  1.0000
  H   H70       1.0  0.07599  0.00941  0.61578  1.0000
  C   C87       1.0  0.00169  0.31725  0.97988  1.0000
  C   C88       1.0  0.43272  0.25431  0.98528  1.0000
  C   C89       1.0  0.37870  0.10743  0.54275  1.0000
  S   S25       1.0  0.39359  0.28826  0.96919  1.0000
  H   H71       1.0  0.38836  0.00618  0.80507  1.0000
  C   C90       1.0  0.47629  0.21551  0.89842  1.0000
  H   H72       1.0  0.40432  0.19286  0.87213  1.0000
  H   H73       1.0  0.13825  0.23616  0.86795  1.0000
  H   H74       1.0  0.33971  0.05466  0.62109  1.0000
  H   H75       1.0  0.18385  0.20135  0.98047  1.0000
  C   C91       1.0  0.13110  0.19220  0.90559  1.0000
  C   C92       1.0  0.14894  0.22871  0.89224  1.0000
  H   H76       1.0  0.20063  0.01220  0.58322  1.0000
  H   H77       1.0  0.43346  0.03284  0.75258  1.0000
  C   C93       1.0  0.18005  0.25550  0.91095  1.0000
  C   C94       1.0  0.41452  0.20569  0.90040  1.0000
  C   C95       1.0  0.46856  0.26798  0.89722  1.0000
  H   H78       1.0  0.46315  0.22720  0.99801  1.0000
  H   H79       1.0  0.40667  0.22889  0.98579  1.0000
  N   N8        1.0  0.14388  0.18264  0.93668  1.0000
  S   S26       1.0  0.03447  0.11713  0.92380  1.0000
  C   C96       1.0  0.30978  0.30504  0.71554  1.0000
  H   H80       1.0  0.10662  0.17173  0.89133  1.0000
  H   H81       1.0  0.32694  0.29543  0.70325  1.0000
  C   C97       1.0  0.47576  0.03077  0.78432  1.0000
  H   H82       1.0  0.39484  0.04895  0.61655  1.0000
  H   H83       1.0  0.21647  0.06715  0.54276  1.0000
  C   C98       1.0  0.39076  0.06592  0.59606  1.0000
  H   H84       1.0  0.32884  0.09142  0.57326  1.0000
  H   H85       1.0  0.21286  0.32460  0.75198  1.0000
  H   H86       1.0  0.01820  0.15846  0.79774  1.0000
  H   H87       1.0  0.45808  0.08324  0.53557  1.0000
  H   H88       1.0  0.10853  0.04873  0.55843  1.0000
  C   C99       1.0  0.44805  0.08006  0.56528  1.0000
  C   C100      1.0  0.19299  0.24548  0.94252  1.0000
  H   H89       1.0  0.40736  0.18348  0.92183  1.0000
  H   H90       1.0  0.44230  0.05233  0.57518  1.0000
  C   C101      1.0  0.12858  0.04045  0.56372  1.0000
  C   C102      1.0  0.44095  0.02558  0.77930  1.0000
  C   C103      1.0  0.18040  0.02010  0.57710  1.0000
  Fe  Fe12      1.0  0.04471  0.23237  0.99381  1.0000
  N   N9        1.0  0.45984  0.00635  0.84763  1.0000
  H   H91       1.0  0.00314  0.11436  0.66136  1.0000
  H   H92       1.0  0.26073  0.33595  0.63988  1.0000
  S   S27       1.0  0.04456  0.28543  0.98153  1.0000
  H   H93       1.0  0.10794  0.12448  0.92913  1.0000
  N   N10       1.0  0.12043  0.01087  0.58672  1.0000
  H   H94       1.0  0.01155  0.10405  0.61448  1.0000
  C   C104      1.0  0.40981  0.10410  0.54111  1.0000
  H   H95       1.0  0.46490  0.18569  0.89918  1.0000
  C   C105      1.0  0.48480  0.02098  0.81889  1.0000
  C   C106      1.0  0.02454  0.01016  0.54750  1.0000
  C   C107      1.0  0.41573  0.01088  0.80884  1.0000
  H   H96       1.0  0.16977  0.08517  0.53011  1.0000
  H   H97       1.0  0.49585  0.04251  0.76176  1.0000
  H   H98       1.0  0.01964  0.00592  0.57770  1.0000
  Fe  Fe13      1.0  0.10092  0.47455  0.30805  1.0000
  Fe  Fe14      1.0  0.04873  0.40263  0.34854  1.0000
  C   C108      1.0  0.44041  0.61997  0.14526  1.0000
  C   C109      1.0  0.16840  0.56455  0.36357  1.0000
  H   H99       1.0  0.01778  0.54208  0.50082  1.0000
  S   S28       1.0  0.48788  0.47278  0.43723  1.0000
  Fe  Fe15      1.0  0.06184  0.47677  0.37998  1.0000
  S   S29       1.0  0.08100  0.52266  0.42433  1.0000
  S   S30       1.0  0.05408  0.42054  0.28744  1.0000
  S   S31       1.0  0.09915  0.45469  0.36739  1.0000
  C   C110      1.0  0.44263  0.48901  0.33551  1.0000
  H   H100      1.0  0.16991  0.50991  0.40131  1.0000
  C   C111      1.0  0.47112  0.44414  0.20541  1.0000
  Fe  Fe16      1.0  0.42784  0.40651  0.03523  1.0000
  S   S32       1.0  0.47570  0.42996  0.07642  1.0000
  S   S33       1.0  0.05519  0.61736  0.03618  1.0000
  C   C112      1.0  0.19666  0.53176  0.39261  1.0000
  H   H101      1.0  0.16403  0.58071  0.38585  1.0000
  C   C113      1.0  0.44100  0.43648  0.18254  1.0000
  C   C114      1.0  0.47216  0.43283  0.12627  1.0000
  H   H102      1.0  0.48620  0.58526  0.38256  1.0000
  C   C115      1.0  0.41110  0.45884  0.39446  1.0000
  C   C116      1.0  0.36410  0.49250  0.47885  1.0000
  H   H103      1.0  0.14350  0.53681  0.36177  1.0000
  H   H104      1.0  0.37670  0.51965  0.42410  1.0000
  N   N11       1.0  0.49373  0.33967  0.07265  1.0000
  C   C117      1.0  0.09526  0.55269  0.49563  1.0000
  H   H105      1.0  0.22237  0.46146  0.33518  1.0000
  H   H106      1.0  0.16543  0.46093  0.31835  1.0000
  Fe  Fe17      1.0  0.43011  0.60662  0.29358  1.0000
  S   S34       1.0  0.38111  0.61215  0.28205  1.0000
  H   H107      1.0  0.00008  0.53061  0.12947  1.0000
  Fe  Fe18      1.0  0.41618  0.59821  0.38001  1.0000
  S   S35       1.0  0.36701  0.60453  0.37507  1.0000
  S   S36       1.0  0.43906  0.59339  0.43672  1.0000
  Fe  Fe19      1.0  0.35263  0.56643  0.32503  1.0000
  S   S37       1.0  0.29747  0.51435  0.32335  1.0000
  Fe  Fe20      1.0  0.39992  0.64981  0.33305  1.0000
  S   S38       1.0  0.40021  0.55742  0.33234  1.0000
  C   C118      1.0  0.24842  0.37987  0.10861  1.0000
  S   S39       1.0  0.06587  0.49906  0.32089  1.0000
  S   S40       1.0  0.15313  0.51412  0.27771  1.0000
  H   H108      1.0  0.28520  0.55364  0.39567  1.0000
  S   S41       1.0  0.48117  0.41439  0.34679  1.0000
  H   H109      1.0  0.41821  0.42517  0.12586  1.0000
  H   H110      1.0  0.02769  0.44993  0.21524  1.0000
  C   C119      1.0  0.07374  0.52064  0.47404  1.0000
  S   S42       1.0  0.39307  0.42914  0.01395  1.0000
  H   H111      1.0  0.24149  0.39560  0.12906  1.0000
  S   S43       1.0  0.47439  0.61452  0.25201  1.0000
  C   C120      1.0  0.44097  0.61586  0.18492  1.0000
  H   H112      1.0  0.41740  0.43556  0.19526  1.0000
  S   S44       1.0  0.29270  0.36338  0.03522  1.0000
  H   H113      1.0  0.22382  0.50418  0.41593  1.0000
  H   H114      1.0  0.17131  0.57768  0.33532  1.0000
  H   H115      1.0  0.41615  0.60556  0.20121  1.0000
  C   C121      1.0  0.47327  0.62349  0.20304  1.0000
  C   C122      1.0  0.03621  0.53602  0.17516  1.0000
  C   C123      1.0  0.46635  0.54304  0.09015  1.0000
  C   C124      1.0  0.25779  0.51472  0.30974  1.0000
  C   C125      1.0  0.22377  0.48455  0.31976  1.0000
  C   C126      1.0  0.19151  0.48425  0.31036  1.0000
  C   C127      1.0  0.19310  0.51377  0.29006  1.0000
  C   C128      1.0  0.22710  0.54373  0.27952  1.0000
  C   C129      1.0  0.25943  0.54441  0.28965  1.0000
  H   H116      1.0  0.22843  0.56656  0.26365  1.0000
  H   H117      1.0  0.28555  0.56767  0.28166  1.0000
  C   C130      1.0  0.41145  0.55639  0.46787  1.0000
  C   C131      1.0  0.46499  0.52060  0.31391  1.0000
  S   S45       1.0  0.04320  0.34713  0.36274  1.0000
  C   C132      1.0  0.01005  0.52599  0.23787  1.0000
  C   C133      1.0  0.04586  0.48932  0.49206  1.0000
  N   N12       1.0  0.43646  0.49209  0.37309  1.0000
  C   C134      1.0  0.47218  0.63228  0.12348  1.0000
  H   H118      1.0  0.01262  0.52382  0.26828  1.0000
  H   H119      1.0  0.44730  0.52860  0.41980  1.0000
  C   C135      1.0  0.37002  0.65849  0.01670  1.0000
  H   H120      1.0  0.41715  0.43622  0.38932  1.0000
  H   H121      1.0  0.41358  0.46400  0.42561  1.0000
  H   H122      1.0  0.11673  0.57716  0.48191  1.0000
  C   C136      1.0  0.47476  0.55827  0.36927  1.0000
  H   H123      1.0  0.06501  0.53852  0.22655  1.0000
  H   H124      1.0  0.02361  0.62929  0.15557  1.0000
  C   C137      1.0  0.45233  0.52613  0.39009  1.0000
  H   H125      1.0  0.29207  0.60876  0.36123  1.0000
  H   H126      1.0  0.46430  0.51131  0.48445  1.0000
  Fe  Fe21      1.0  0.01879  0.44359  0.30532  1.0000
  H   H127      1.0  0.35174  0.65860  0.03812  1.0000
  C   C138      1.0  0.23432  0.58936  0.36196  1.0000
  H   H128      1.0  0.02896  0.46454  0.47572  1.0000
  C   C139      1.0  0.39120  0.64237  0.02438  1.0000
  H   H129      1.0  0.24233  0.38487  0.07922  1.0000
  S   S46       1.0  0.47090  0.45555  0.25381  1.0000
  S   S47       1.0  0.46908  0.63199  0.07335  1.0000
  H   H130      1.0  0.02708  0.44765  0.14478  1.0000
  S   S48       1.0  0.01075  0.42288  0.36590  1.0000
  H   H131      1.0  0.43016  0.46203  0.32194  1.0000
  C   C140      1.0  0.38321  0.52273  0.45405  1.0000
  H   H132      1.0  0.23739  0.61300  0.34607  1.0000
  C   C141      1.0  0.44134  0.43048  0.14321  1.0000
  N   N13       1.0  0.20050  0.56156  0.37252  1.0000
  C   C142      1.0  0.47116  0.53862  0.19619  1.0000
  C   C143      1.0  0.00219  0.44003  0.16002  1.0000
  H   H133      1.0  0.45253  0.55042  0.06898  1.0000
  H   H134      1.0  0.02174  0.63786  0.22511  1.0000
  C   C144      1.0  0.26156  0.55642  0.39015  1.0000
  H   H135      1.0  0.46960  0.51808  0.28410  1.0000
  C   C145      1.0  0.26535  0.58722  0.37059  1.0000
  C   C146      1.0  0.48104  0.55542  0.33091  1.0000
  H   H136      1.0  0.05890  0.54211  0.15658  1.0000
  C   C147      1.0  0.22705  0.52855  0.40139  1.0000
  H   H137      1.0  0.38267  0.44965  0.38590  1.0000
  Fe  Fe22      1.0  0.01284  0.62583  0.06459  1.0000
  H   H138      1.0  0.45063  0.35133  0.06649  1.0000
  H   H139      1.0  0.41504  0.61278  0.13129  1.0000
  H   H140      1.0  0.44748  0.54251  0.20106  1.0000
  S   S49       1.0  0.45050  0.64693  0.34205  1.0000
  C   C148      1.0  0.03972  0.53422  0.21439  1.0000
  H   H141      1.0  0.21920  0.34389  0.01860  1.0000
  S   S50       1.0  0.38057  0.34880  0.04232  1.0000
  C   C149      1.0  0.45988  0.54484  0.12882  1.0000
  H   H142      1.0  0.44063  0.55332  0.13711  1.0000
  C   C150      1.0  0.49165  0.51915  0.49324  1.0000
  H   H143      1.0  0.38955  0.62964  0.05178  1.0000
  H   H144      1.0  0.27829  0.39096  0.10983  1.0000
  H   H145      1.0  0.34299  0.46624  0.46775  1.0000
  H   H146      1.0  0.49770  0.58014  0.31415  1.0000
  H   H147      1.0  0.46546  0.51276  0.21098  1.0000
  Fe  Fe23      1.0  0.34659  0.37030  0.01595  1.0000
  N   N14       1.0  0.47767  0.53622  0.15569  1.0000
  C   C151      1.0  0.00318  0.52937  0.15992  1.0000
  C   C152      1.0  0.00260  0.44131  0.19999  1.0000
  H   H148      1.0  0.02305  0.54678  0.43093  1.0000
  C   C153      1.0  0.49087  0.53189  0.07907  1.0000
  H   H149      1.0  0.49569  0.52970  0.04918  1.0000
  H   H150      1.0  0.49546  0.56248  0.20918  1.0000
  N   N15       1.0  0.22764  0.34014  0.11722  1.0000
  C   C154      1.0  0.05453  0.64592  0.82769  1.0000
  S   S51       1.0  0.44173  0.39777  0.97579  1.0000
  C   C155      1.0  0.47055  0.53195  0.84590  1.0000
  Fe  Fe24      1.0  0.40209  0.41468  0.95484  1.0000
  S   S52       1.0  0.40973  0.45717  0.90951  1.0000
  C   C156      1.0  0.03895  0.49059  0.53106  1.0000
  Fe  Fe25      1.0  0.33382  0.45735  0.60884  1.0000
  S   S53       1.0  0.28067  0.45441  0.62108  1.0000
  S   S54       1.0  0.34950  0.45626  0.54731  1.0000
  Fe  Fe26      1.0  0.34869  0.45273  0.69385  1.0000
  S   S55       1.0  0.29713  0.45076  0.71223  1.0000
  S   S56       1.0  0.38693  0.44300  0.73109  1.0000
  Fe  Fe27      1.0  0.27105  0.41073  0.66392  1.0000
  H   H151      1.0  0.21637  0.46332  0.64658  1.0000
  Fe  Fe28      1.0  0.31114  0.49456  0.66770  1.0000
  S   S57       1.0  0.32158  0.40982  0.64808  1.0000
  H   H152      1.0  0.20164  0.50233  0.75913  1.0000
  H   H153      1.0  0.25742  0.50454  0.73438  1.0000
  C   C157      1.0  0.39642  0.44583  0.86137  1.0000
  C   C158      1.0  0.41029  0.42797  0.83924  1.0000
  C   C159      1.0  0.40597  0.42619  0.79950  1.0000
  C   C160      1.0  0.38714  0.44156  0.78145  1.0000
  C   C161      1.0  0.37171  0.45787  0.80367  1.0000
  C   C162      1.0  0.37694  0.46058  0.84338  1.0000
  H   H154      1.0  0.42612  0.41734  0.85253  1.0000
  H   H155      1.0  0.41827  0.41380  0.78257  1.0000
  H   H156      1.0  0.36670  0.47507  0.86013  1.0000
  H   H157      1.0  0.40598  0.53311  0.56184  1.0000
  Fe  Fe29      1.0  0.04335  0.63884  0.98273  1.0000
  H   H158      1.0  0.44153  0.58568  0.51774  1.0000
  H   H159      1.0  0.27616  0.60068  0.76368  1.0000
  H   H160      1.0  0.40577  0.43703  0.53808  1.0000
  S   S58       1.0  0.30365  0.54426  0.67056  1.0000
  S   S59       1.0  0.36547  0.50041  0.65301  1.0000
  Fe  Fe30      1.0  0.09527  0.60725  0.71747  1.0000
  S   S60       1.0  0.15433  0.62555  0.72389  1.0000
  S   S61       1.0  0.06782  0.62952  0.75603  1.0000
  Fe  Fe31      1.0  0.08916  0.56702  0.64189  1.0000
  S   S62       1.0  0.14823  0.58367  0.64232  1.0000
  S   S63       1.0  0.04841  0.52488  0.60029  1.0000
  Fe  Fe32      1.0  0.13926  0.56860  0.70394  1.0000
  S   S64       1.0  0.16010  0.53461  0.73272  1.0000
  Fe  Fe33      1.0  0.15828  0.63934  0.66196  1.0000
  S   S65       1.0  0.07933  0.54860  0.70305  1.0000
  S   S66       1.0  0.09982  0.62426  0.65602  1.0000
  C   C163      1.0  0.26050  0.53583  0.68453  1.0000
  C   C164      1.0  0.24391  0.55207  0.66399  1.0000
  C   C165      1.0  0.21243  0.55087  0.67794  1.0000
  C   C166      1.0  0.19758  0.53370  0.71271  1.0000
  C   C167      1.0  0.21320  0.51594  0.73235  1.0000
  C   C168      1.0  0.24459  0.51692  0.71827  1.0000
  H   H161      1.0  0.25614  0.56665  0.63783  1.0000
  H   H162      1.0  0.20045  0.56423  0.66234  1.0000
  C   C169      1.0  0.06484  0.62440  0.80605  1.0000
  C   C170      1.0  0.07047  0.59802  0.82436  1.0000
  C   C171      1.0  0.06466  0.59242  0.86376  1.0000
  C   C172      1.0  0.05403  0.61367  0.88537  1.0000
  H   H163      1.0  0.32471  0.64736  0.65611  1.0000
  H   H164      1.0  0.24383  0.34423  0.79193  1.0000
  H   H165      1.0  0.07833  0.58123  0.80804  1.0000
  S   S67       1.0  0.21485  0.36147  0.67375  1.0000
  C   C173      1.0  0.25094  0.62574  0.73167  1.0000
  H   H166      1.0  0.23088  0.65069  0.69252  1.0000
  H   H167      1.0  0.35746  0.47015  0.79014  1.0000
  H   H168      1.0  0.02702  0.34342  0.98036  1.0000
  C   C174      1.0  0.06025  0.52289  0.55247  1.0000
  C   C175      1.0  0.39948  0.53002  0.53191  1.0000
  H   H169      1.0  0.10524  0.57887  0.55072  1.0000
  C   C176      1.0  0.27743  0.66917  0.63546  1.0000
  C   C177      1.0  0.24171  0.34297  0.76053  1.0000
  C   C178      1.0  0.32370  0.34271  0.72235  1.0000
  H   H170      1.0  0.31189  0.38400  0.74238  1.0000
  H   H171      1.0  0.10272  0.49664  0.60844  1.0000
  N   N16       1.0  0.46982  0.49317  0.60131  1.0000
  H   H172      1.0  0.04092  0.65712  0.88349  1.0000
  H   H173      1.0  0.35189  0.36270  0.71584  1.0000
  H   H174      1.0  0.32430  0.61570  0.71537  1.0000
  H   H175      1.0  0.17826  0.41652  0.64328  1.0000
  H   H176      1.0  0.14608  0.49287  0.56383  1.0000
  H   H177      1.0  0.12144  0.64367  0.96178  1.0000
  H   H178      1.0  0.49630  0.54960  0.61767  1.0000
  H   H179      1.0  0.09950  0.47626  0.67543  1.0000
  H   H180      1.0  0.18802  0.44216  0.68699  1.0000
  C   C179      1.0  0.30087  0.35466  0.73725  1.0000
  S   S68       1.0  0.04440  0.60327  0.93421  1.0000
  C   C180      1.0  0.37191  0.49602  0.51791  1.0000
  C   C181      1.0  0.04954  0.64090  0.86727  1.0000
  C   C182      1.0  0.47692  0.52180  0.62956  1.0000
  H   H181      1.0  0.44891  0.53154  0.86257  1.0000
  C   C183      1.0  0.30439  0.62441  0.71118  1.0000
  C   C184      1.0  0.46597  0.52626  0.80667  1.0000
  C   C185      1.0  0.43747  0.47599  0.58208  1.0000
  H   H182      1.0  0.41636  0.48253  0.58826  1.0000
  H   H183      1.0  0.06817  0.57126  0.87751  1.0000
  H   H184      1.0  0.46942  0.34701  0.97275  1.0000
  H   H185      1.0  0.01670  0.46658  0.54455  1.0000
  C   C186      1.0  0.45841  0.44186  0.54490  1.0000
  N   N17       1.0  0.16437  0.45888  0.64291  1.0000
  C   C187      1.0  0.14015  0.46032  0.66746  1.0000
  C   C188      1.0  0.16649  0.47018  0.60604  1.0000
  C   C189      1.0  0.11784  0.47412  0.65550  1.0000
  C   C190      1.0  0.14434  0.48385  0.59305  1.0000
  C   C191      1.0  0.11993  0.48587  0.61803  1.0000
  C   C192      1.0  0.18775  0.44445  0.65556  1.0000
  H   H186      1.0  0.13862  0.45180  0.69683  1.0000
  H   H187      1.0  0.18553  0.46877  0.58654  1.0000
  H   H188      1.0  0.45436  0.42270  0.52207  1.0000
  H   H189      1.0  0.48888  0.51737  0.65568  1.0000
  N   N18       1.0  0.27798  0.65122  0.67104  1.0000
  H   H190      1.0  0.45159  0.52150  0.63807  1.0000
  H   H191      1.0  0.22909  0.61821  0.75199  1.0000
  H   H192      1.0  0.48681  0.51828  0.91954  1.0000
  C   C193      1.0  0.49656  0.48519  0.59300  1.0000
  C   C194      1.0  0.43126  0.45007  0.55367  1.0000
  H   H193      1.0  0.43169  0.63076  0.00272  1.0000
  C   C195      1.0  0.08885  0.55372  0.53471  1.0000
  C   C196      1.0  0.30425  0.64207  0.67746  1.0000
  H   H194      1.0  0.44139  0.52214  0.79294  1.0000
  H   H195      1.0  0.01289  0.57106  0.70784  1.0000
  C   C197      1.0  0.27736  0.61594  0.73826  1.0000
  H   H196      1.0  0.49336  0.55694  0.53562  1.0000
  S   S69       1.0  0.35412  0.35683  0.95621  1.0000
  Fe  Fe34      1.0  0.39293  0.34098  0.98214  1.0000
  C   C198      1.0  0.49124  0.45937  0.56478  1.0000
  H   H197      1.0  0.25023  0.65328  0.62179  1.0000
  H   H198      1.0  0.43751  0.66216  0.94118  1.0000
  H   H199      1.0  0.24961  0.37092  0.74931  1.0000
  H   H200      1.0  0.01604  0.52133  0.92669  1.0000
  C   C199      1.0  0.41509  0.64314  0.99681  1.0000
  C   C200      1.0  0.41806  0.66073  0.96206  1.0000
  C   C201      1.0  0.25179  0.64364  0.69777  1.0000
  H   H201      1.0  0.04981  0.66618  0.81368  1.0000
  C   C202      1.0  0.41961  0.55982  0.50684  1.0000
  H   H202      1.0  0.17767  0.66427  0.99982  1.0000
  H   H203      1.0  0.01830  0.48852  0.95768  1.0000
  H   H204      1.0  0.00589  0.53922  0.78168  1.0000
  C   C203      1.0  0.99955  0.49695  0.94527  1.0000
  H   H205      1.0  0.49025  0.52196  0.75471  1.0000
  C   C204      1.0  0.49325  0.52577  0.78523  1.0000
  H   H206      1.0  0.29805  0.67106  0.61481  1.0000
  C   C205      1.0  0.14519  0.67079  0.95692  1.0000
  S   S70       1.0  0.39798  0.70285  0.33032  1.0000
  Fe  Fe35      1.0  0.07628  0.98022  0.33775  1.0000
  Fe  Fe36      1.0  0.03211  0.89660  0.34413  1.0000
  H   H207      1.0  0.03063  0.73427  0.12396  1.0000
  H   H208      1.0  0.02784  0.88881  0.08071  1.0000
  Fe  Fe37      1.0  0.09452  0.67706  0.04888  1.0000
  Fe  Fe38      1.0  0.03974  0.70008  0.02675  1.0000
  Fe  Fe39      1.0  0.01360  0.94517  0.39370  1.0000
  S   S71       1.0  0.15062  0.69169  0.06880  1.0000
  S   S72       1.0  0.04876  0.93524  0.29409  1.0000
  S   S73       1.0  0.06400  0.94135  0.38672  1.0000
  C   C206      1.0  0.03070  0.87953  0.05278  1.0000
  H   H209      1.0  0.47305  0.72358  0.34763  1.0000
  H   H210      1.0  0.42120  0.98047  0.27324  1.0000
  Fe  Fe40      1.0  0.41732  0.90118  0.03177  1.0000
  S   S74       1.0  0.46594  0.94080  0.06834  1.0000
  S   S75       1.0  0.37077  0.84761  0.05312  1.0000
  S   S76       1.0  0.03129  0.74854  0.03798  1.0000
  C   C207      1.0  0.19827  0.99404  0.29698  1.0000
  Fe  Fe41      1.0  0.99871  0.93831  0.30741  1.0000
  C   C208      1.0  0.24477  0.80546  0.03401  1.0000
  C   C209      1.0  0.22266  0.74494  0.06271  1.0000
  S   S77       1.0  0.02744  0.98697  0.34723  1.0000
  H   H211      1.0  0.42605  0.73449  0.04230  1.0000
  C   C210      1.0  0.18652  0.73621  0.05698  1.0000
  H   H212      1.0  0.40498  0.69001  0.23688  1.0000
  S   S78       1.0  0.47386  0.95376  0.24860  1.0000
  C   C211      1.0  0.43298  0.71214  0.24011  1.0000
  H   H213      1.0  0.46846  0.83837  0.32529  1.0000
  N   N19       1.0  0.49550  0.73177  0.25355  1.0000
  H   H214      1.0  0.14562  0.98035  0.39064  1.0000
  H   H215      1.0  0.11295  0.91291  0.37434  1.0000
  H   H216      1.0  0.22874  0.97784  0.37859  1.0000
  C   C212      1.0  0.46643  0.93841  0.11871  1.0000
  H   H217      1.0  0.42319  0.93387  0.31523  1.0000
  H   H218      1.0  0.46523  0.00079  0.47415  1.0000
  H   H219      1.0  0.20314  0.81729  0.01648  1.0000
  C   C213      1.0  0.00490  0.71110  0.17787  1.0000
  S   S79       1.0  0.28023  0.84813  0.01702  1.0000
  C   C214      1.0  0.43561  0.92992  0.14031  1.0000
  S   S80       1.0  0.03683  0.84529  0.33809  1.0000
  C   C215      1.0  0.43849  0.74605  0.33515  1.0000
  C   C216      1.0  0.43743  0.77875  0.32950  1.0000
  C   C217      1.0  0.46958  0.81349  0.33050  1.0000
  C   C218      1.0  0.43815  0.93352  0.18015  1.0000
  C   C219      1.0  0.44145  0.74902  0.23914  1.0000
  C   C220      1.0  0.47189  0.74842  0.34269  1.0000
  C   C221      1.0  0.17960  0.76241  0.04029  1.0000
  H   H220      1.0  0.06450  0.85776  0.07175  1.0000
  C   C222      1.0  0.47124  0.94467  0.19903  1.0000
  H   H221      1.0  0.01393  0.92786  0.14618  1.0000
  H   H222      1.0  0.19551  0.96989  0.28260  1.0000
  H   H223      1.0  0.14050  0.97437  0.29632  1.0000
  H   H224      1.0  0.41442  0.92827  0.19639  1.0000
  H   H225      1.0  0.41170  0.77719  0.32374  1.0000
  H   H226      1.0  0.41013  0.92213  0.12622  1.0000
  Fe  Fe42      1.0  0.33679  0.85666  0.01024  1.0000
  C   C223      1.0  0.20699  0.92716  0.34721  1.0000
  H   H227      1.0  0.02895  0.72884  0.19454  1.0000
  H   H228      1.0  0.16244  0.96717  0.43152  1.0000
  S   S81       1.0  0.38827  0.77133  0.01824  1.0000
  C   C224      1.0  0.01524  0.98465  0.48326  1.0000
  C   C225      1.0  0.20402  0.95305  0.36977  1.0000
  S   S82       1.0  0.05327  0.68346  0.08237  1.0000
  H   H229      1.0  0.27956  0.78568  0.05476  1.0000
  C   C226      1.0  0.25176  0.77932  0.05077  1.0000
  C   C227      1.0  0.14147  0.89056  0.34461  1.0000
  C   C228      1.0  0.46049  0.70396  0.24749  1.0000
  H   H230      1.0  0.01631  0.76905  0.32533  1.0000
  H   H231      1.0  0.11663  0.86626  0.33502  1.0000
  C   C229      1.0  0.16785  0.97611  0.40141  1.0000
  H   H232      1.0  0.22815  0.72482  0.07580  1.0000
  N   N20       1.0  0.17057  0.94828  0.37858  1.0000
  S   S83       1.0  0.49229  0.91647  0.34085  1.0000
  C   C230      1.0  0.05378  0.84991  0.01153  1.0000
  H   H233      1.0  0.01221  0.93567  0.21587  1.0000
  C   C231      1.0  0.44310  0.97057  0.36342  1.0000
  C   C232      1.0  0.00593  0.71403  0.13836  1.0000
  C   C233      1.0  0.05121  0.86224  0.04774  1.0000
  H   H234      1.0  0.23366  0.93216  0.33880  1.0000
  C   C234      1.0  0.17547  0.89577  0.33451  1.0000
  H   H235      1.0  0.15188  0.75612  0.03618  1.0000
  C   C235      1.0  0.16710  0.99647  0.30478  1.0000
  H   H236      1.0  0.17741  0.87569  0.31665  1.0000
  H   H237      1.0  0.47374  0.72610  0.01137  1.0000
  C   C236      1.0  0.47723  0.77722  0.24530  1.0000
  H   H238      1.0  0.45356  0.67521  0.24920  1.0000
  C   C237      1.0  0.20866  0.79705  0.02921  1.0000
  C   C238      1.0  0.13952  0.91718  0.36690  1.0000
  H   H239      1.0  0.46508  0.81264  0.09107  1.0000
  H   H240      1.0  0.42007  0.75566  0.23517  1.0000
  H   H241      1.0  0.44402  0.95031  0.38196  1.0000
  C   C239      1.0  0.43112  0.96124  0.32609  1.0000
  C   C240      1.0  0.43815  0.74866  0.01591  1.0000
  C   C241      1.0  0.01336  0.88453  0.02169  1.0000
  H   H242      1.0  0.48385  0.80593  0.24623  1.0000
  C   C242      1.0  0.48418  0.86385  0.06071  1.0000
  H   H243      1.0  0.19317  0.00361  0.39950  1.0000
  C   C243      1.0  0.43010  0.98749  0.30246  1.0000
  H   H244      1.0  0.46577  0.87086  0.07495  1.0000
  C   C244      1.0  0.48395  0.83127  0.06989  1.0000
  H   H245      1.0  0.06904  0.83567  0.00804  1.0000
  C   C245      1.0  0.99823  0.80334  0.35219  1.0000
  C   C246      1.0  0.20691  0.71752  0.97197  1.0000
  C   C247      1.0  0.47994  0.76113  0.96372  1.0000
  C   C248      1.0  0.44176  0.78916  0.96488  1.0000
  Fe  Fe43      1.0  0.39277  0.88162  0.94755  1.0000
  S   S84       1.0  0.40735  0.89912  0.88558  1.0000
  H   H246      1.0  0.25973  0.78407  0.95953  1.0000
  S   S85       1.0  0.43215  0.87476  0.98472  1.0000
  N   N21       1.0  0.03593  0.85421  0.98136  1.0000
  H   H247      1.0  0.11916  0.68615  0.91409  1.0000
  Fe  Fe44      1.0  0.32485  0.95387  0.62393  1.0000
  S   S86       1.0  0.26909  0.94135  0.60719  1.0000
  C   C249      1.0  0.43971  0.94334  0.55602  1.0000
  Fe  Fe45      1.0  0.30633  0.94216  0.70948  1.0000
  S   S87       1.0  0.24943  0.93061  0.69781  1.0000
  S   S88       1.0  0.31454  0.93933  0.77335  1.0000
  Fe  Fe46      1.0  0.24984  0.89527  0.65004  1.0000
  S   S89       1.0  0.19930  0.83897  0.64333  1.0000
  Fe  Fe47      1.0  0.27419  0.97773  0.65644  1.0000
  S   S90       1.0  0.30542  0.90450  0.66332  1.0000
  S   S91       1.0  0.20920  0.69243  0.64586  1.0000
  C   C250      1.0  0.20276  0.79864  0.64160  1.0000
  C   C251      1.0  0.23650  0.80044  0.64177  1.0000
  C   C252      1.0  0.23820  0.76768  0.64255  1.0000
  C   C253      1.0  0.20620  0.73298  0.64343  1.0000
  C   C254      1.0  0.17249  0.73119  0.64296  1.0000
  C   C255      1.0  0.17080  0.76391  0.64182  1.0000
  H   H248      1.0  0.26128  0.82700  0.64104  1.0000
  H   H249      1.0  0.26439  0.76929  0.64254  1.0000
  H   H250      1.0  0.14767  0.70465  0.64326  1.0000
  H   H251      1.0  0.14461  0.76232  0.64147  1.0000
  C   C256      1.0  0.01621  0.87162  0.98597  1.0000
  H   H252      1.0  0.19866  0.96735  0.68195  1.0000
  C   C257      1.0  0.37907  0.90656  0.85401  1.0000
  C   C258      1.0  0.35042  0.91079  0.86735  1.0000
  C   C259      1.0  0.33054  0.91997  0.84198  1.0000
  C   C260      1.0  0.33849  0.92431  0.80290  1.0000
  C   C261      1.0  0.36651  0.91908  0.78932  1.0000
  C   C262      1.0  0.38692  0.91062  0.81486  1.0000
  H   H253      1.0  0.34420  0.90801  0.89739  1.0000
  H   H254      1.0  0.30911  0.92422  0.85284  1.0000
  C   C263      1.0  0.46868  0.78428  0.94730  1.0000
  H   H255      1.0  0.37320  0.92269  0.75941  1.0000
  S   S92       1.0  0.36876  0.96968  0.57915  1.0000
  H   H256      1.0  0.23123  0.72620  0.98880  1.0000
  H   H257      1.0  0.24596  0.78294  0.91110  1.0000
  C   C264      1.0  0.37034  0.99244  0.53587  1.0000
  H   H258      1.0  0.28272  0.69763  0.64127  1.0000
  H   H259      1.0  0.39627  0.71919  0.92194  1.0000
  C   C265      1.0  0.37347  0.67564  0.98155  1.0000
  H   H260      1.0  0.48006  0.79766  0.92038  1.0000
  H   H261      1.0  0.24007  0.85688  0.71698  1.0000
  C   C266      1.0  0.19605  0.99166  0.67876  1.0000
  H   H262      1.0  0.40576  0.98956  0.86567  1.0000
  H   H263      1.0  0.41195  0.93438  0.54746  1.0000
  H   H264      1.0  0.11415  0.70901  0.73485  1.0000
  H   H265      1.0  0.11614  0.76948  0.73014  1.0000
  C   C267      1.0  0.16371  0.99057  0.68977  1.0000
  H   H266      1.0  0.42968  0.70796  0.90734  1.0000
  H   H267      1.0  0.32335  0.99806  0.54574  1.0000
  S   S93       1.0  0.34574  0.82578  0.96331  1.0000
  S   S94       1.0  0.33136  0.99260  0.67158  1.0000
  H   H268      1.0  0.43227  0.80603  0.95139  1.0000
  H   H269      1.0  0.04283  0.81698  0.94561  1.0000
  C   C268      1.0  0.49021  0.97700  0.59880  1.0000
  C   C269      1.0  0.03906  0.84140  0.94356  1.0000
  S   S95       1.0  0.08489  0.69856  0.99444  1.0000
  H   H270      1.0  0.17272  0.74915  0.90550  1.0000
  C   C270      1.0  0.46137  0.93404  0.53426  1.0000
  H   H271      1.0  0.43774  0.97308  0.60497  1.0000
  H   H272      1.0  0.22872  0.79967  0.94862  1.0000
  C   C271      1.0  0.14390  0.69479  0.93025  1.0000
  H   H273      1.0  0.40919  0.90763  0.80429  1.0000
  H   H274      1.0  0.08355  0.97246  0.62776  1.0000
  H   H275      1.0  0.24905  0.84651  0.76406  1.0000
  N   N22       1.0  0.20520  0.74119  0.94629  1.0000
  H   H276      1.0  0.01371  0.83230  0.92684  1.0000
  C   C272      1.0  0.17422  0.73027  0.92554  1.0000
  H   H277      1.0  0.26359  0.83203  0.72231  1.0000
  H   H278      1.0  0.06240  0.86401  0.92806  1.0000
  H   H279      1.0  0.06399  0.97222  0.58197  1.0000
  H   H280      1.0  0.17191  0.70799  0.73842  1.0000
  H   H281      1.0  0.44701  0.98304  0.90370  1.0000
  C   C273      1.0  0.49726  0.94642  0.54548  1.0000
  H   H282      1.0  0.00170  0.87465  0.96216  1.0000
  H   H283      1.0  0.17553  0.82786  0.72953  1.0000
  N   N23       1.0  0.20655  0.80080  0.73440  1.0000
  C   C274      1.0  0.20573  0.76770  0.73709  1.0000
  C   C275      1.0  0.17483  0.80164  0.73256  1.0000
  C   C276      1.0  0.17252  0.73425  0.73749  1.0000
  C   C277      1.0  0.14115  0.76871  0.73278  1.0000
  C   C278      1.0  0.14006  0.73482  0.73530  1.0000
  C   C279      1.0  0.24153  0.83565  0.73466  1.0000
  H   H284      1.0  0.23085  0.76698  0.73788  1.0000
  C   C280      1.0  0.45419  0.96504  0.58843  1.0000
  C   C281      1.0  0.23638  0.77866  0.94098  1.0000
  H   H285      1.0  0.45088  0.91832  0.50820  1.0000
  H   H286      1.0  0.14151  0.96533  0.70150  1.0000
  C   C282      1.0  0.46529  0.74406  0.99854  1.0000
  C   C283      1.0  0.01003  0.97956  0.52273  1.0000
  C   C284      1.0  0.40147  0.69577  0.91864  1.0000
  S   S96       1.0  0.38233  0.91319  0.99263  1.0000
  C   C285      1.0  0.08411  0.99005  0.60372  1.0000
  N   N24       1.0  0.39779  0.67720  0.95508  1.0000
  H   H287      1.0  0.47858  0.97525  0.87776  1.0000
  C   C286      1.0  0.47013  0.99604  0.88334  1.0000
  C   C287      1.0  0.42580  0.77055  0.99871  1.0000
  H   H288      1.0  0.13919  0.97671  0.61120  1.0000
  H   H289      1.0  0.41821  0.99197  0.51772  1.0000
  H   H290      1.0  0.35779  0.68920  0.97633  1.0000
  C   C288      1.0  0.17684  0.68219  0.97799  1.0000
  C   C289      1.0  0.39944  0.00142  0.51125  1.0000
  H   H291      1.0  0.38209  0.67575  0.89769  1.0000
  C   C290      1.0  0.42572  0.00143  0.84307  1.0000
  H   H292      1.0  0.99960  0.72907  0.96215  1.0000
  Fe  Fe48      1.0  0.38412  0.82186  0.00438  1.0000
  C   C291      1.0  0.34598  0.00474  0.52699  1.0000
  C   C292      1.0  0.14557  0.00017  0.59298  1.0000
  Fe  Fe49      1.0  0.92267  0.11281  0.30242  1.0000
  S   S97       1.0  0.88247  0.13097  0.28973  1.0000
  S   S98       1.0  0.97227  0.12958  0.26548  1.0000
  Fe  Fe50      1.0  0.88448  0.07449  0.37722  1.0000
  S   S99       1.0  0.84218  0.09124  0.37045  1.0000
  S   S100      1.0  0.87595  0.02879  0.41851  1.0000
  Fe  Fe51      1.0  0.83986  0.07466  0.30968  1.0000
  S   S101      1.0  0.78787  0.03977  0.27705  1.0000
  Fe  Fe52      1.0  0.88850  0.14640  0.35130  1.0000
  S   S102      1.0  0.88887  0.19994  0.36111  1.0000
  S   S103      1.0  0.87955  0.05476  0.31681  1.0000
  S   S104      1.0  0.93156  0.13150  0.36346  1.0000
  C   C293      1.0  0.55189  0.01965  0.48769  1.0000
  H   H293      1.0  0.99243  0.09613  0.46351  1.0000
  N   N25       1.0  0.96288  0.02368  0.18955  1.0000
  S   S105      1.0  0.55334  0.20971  0.05375  1.0000
  Fe  Fe53      1.0  0.50470  0.15484  0.03818  1.0000
  H   H294      1.0  0.96177  0.21347  0.37591  1.0000
  C   C294      1.0  0.96665  0.04274  0.43584  1.0000
  S   S106      1.0  0.64849  0.04381  0.33059  1.0000
  C   C295      1.0  0.68386  0.01760  0.28614  1.0000
  C   C296      1.0  0.50307  0.31325  0.07939  1.0000
  H   H295      1.0  0.77129  0.27610  0.02225  1.0000
  C   C297      1.0  0.95441  0.24064  0.26843  1.0000
  C   C298      1.0  0.97535  0.24753  0.07255  1.0000
  C   C299      1.0  0.71541  0.01770  0.27406  1.0000
  C   C300      1.0  0.89530  0.06298  0.48916  1.0000
  H   H296      1.0  0.90959  0.27654  0.35232  1.0000
  H   H297      1.0  0.95765  0.29356  0.26162  1.0000
  C   C301      1.0  0.74499  0.30328  0.04783  1.0000
  H   H298      1.0  0.88315  0.20542  0.07041  1.0000
  H   H299      1.0  0.96970  0.33462  0.35285  1.0000
  H   H300      1.0  0.71079  0.32277  0.07121  1.0000
  H   H301      1.0  0.94007  0.05883  0.19325  1.0000
  C   C302      1.0  0.96976  0.13478  0.21599  1.0000
  S   S107      1.0  0.96222  0.13925  0.08635  1.0000
  C   C303      1.0  0.91136  0.22739  0.07192  1.0000
  C   C304      1.0  0.96646  0.13977  0.13627  1.0000
  C   C305      1.0  0.93514  0.12772  0.15865  1.0000
  C   C306      1.0  0.93679  0.12542  0.19837  1.0000
  H   H302      1.0  0.89842  0.27090  0.07108  1.0000
  C   C307      1.0  0.94827  0.04361  0.17472  1.0000
  H   H303      1.0  0.90934  0.11963  0.14515  1.0000
  H   H304      1.0  0.91234  0.11551  0.21520  1.0000
  C   C308      1.0  0.93164  0.24096  0.36362  1.0000
  C   C309      1.0  0.93402  0.27536  0.35773  1.0000
  C   C310      1.0  0.96802  0.30830  0.35817  1.0000
  H   H305      1.0  0.51254  0.27693  0.35025  1.0000
  C   C311      1.0  0.99720  0.27268  0.37199  1.0000
  C   C312      1.0  0.96334  0.23973  0.37082  1.0000
  H   H306      1.0  0.90897  0.08911  0.47414  1.0000
  H   H307      1.0  0.53142  0.32045  0.07948  1.0000
  Fe  Fe54      1.0  0.58383  0.19415  0.01219  1.0000
  H   H308      1.0  0.51238  0.13601  0.20637  1.0000
  C   C313      1.0  0.74811  0.03777  0.29422  1.0000
  C   C314      1.0  0.98323  0.28435  0.07273  1.0000
  C   C315      1.0  0.67908  0.23871  0.02901  1.0000
  H   H309      1.0  0.51563  0.14148  0.13600  1.0000
  C   C316      1.0  0.71738  0.05657  0.33924  1.0000
  C   C317      1.0  0.74881  0.05666  0.32719  1.0000
  H   H310      1.0  0.71839  0.07212  0.36423  1.0000
  H   H311      1.0  0.77370  0.07219  0.34292  1.0000
  C   C318      1.0  0.87613  0.02989  0.46882  1.0000
  C   C319      1.0  0.97250  0.27927  0.26755  1.0000
  H   H312      1.0  0.92541  0.22458  0.26296  1.0000
  C   C320      1.0  0.68510  0.03776  0.31832  1.0000
  C   C321      1.0  0.67850  0.26821  0.04705  1.0000
  C   C322      1.0  0.74557  0.27399  0.02936  1.0000
  C   C323      1.0  0.93919  0.21892  0.07206  1.0000
  H   H313      1.0  0.94985  0.02495  0.08099  1.0000
  C   C324      1.0  0.95349  0.02455  0.11145  1.0000
  C   C325      1.0  0.71139  0.30021  0.05684  1.0000
  C   C326      1.0  0.94369  0.04466  0.13545  1.0000
  H   H314      1.0  0.93286  0.19027  0.07100  1.0000
  C   C327      1.0  0.97742  0.06634  0.46730  1.0000
  H   H315      1.0  0.71328  0.21886  0.00654  1.0000
  S   S108      1.0  0.63861  0.19768  0.01697  1.0000
  H   H316      1.0  0.97309  0.05465  0.40759  1.0000
  H   H317      1.0  0.51275  0.02910  0.10192  1.0000
  C   C328      1.0  0.96630  0.02170  0.23081  1.0000
  H   H318      1.0  0.65273  0.26607  0.05402  1.0000
  H   H319      1.0  0.93252  0.06086  0.12368  1.0000
  C   C329      1.0  0.96418  0.33107  0.07282  1.0000
  N   N26       1.0  0.77308  0.13491  0.28425  1.0000
  C   C330      1.0  0.73830  0.12806  0.28924  1.0000
  C   C331      1.0  0.79930  0.15459  0.31083  1.0000
  C   C332      1.0  0.72873  0.13992  0.32214  1.0000
  C   C333      1.0  0.79074  0.16703  0.34397  1.0000
  C   C334      1.0  0.75516  0.15947  0.34968  1.0000
  C   C335      1.0  0.78260  0.12227  0.24959  1.0000
  H   H320      1.0  0.71732  0.11213  0.26843  1.0000
  H   H321      1.0  0.82701  0.16048  0.30680  1.0000
  H   H322      1.0  0.70071  0.13298  0.32663  1.0000
  H   H323      1.0  0.81165  0.18226  0.36513  1.0000
  H   H324      1.0  0.74802  0.16851  0.37550  1.0000
  H   H325      1.0  0.75905  0.09602  0.23904  1.0000
  H   H326      1.0  0.79139  0.14377  0.22716  1.0000
  H   H327      1.0  0.80476  0.11609  0.25505  1.0000
  C   C336      1.0  0.92019  0.26451  0.07235  1.0000
  H   H328      1.0  0.95962  0.19281  0.27869  1.0000
  H   H329      1.0  0.57153  0.01304  0.47621  1.0000
  H   H330      1.0  0.51578  0.26259  0.25709  1.0000
  C   C337      1.0  0.97377  0.22282  0.27783  1.0000
  N   N27       1.0  0.95576  0.29242  0.07244  1.0000
  C   C338      1.0  0.71269  0.24166  0.02039  1.0000
  H   H331      1.0  0.99040  0.01920  0.23823  1.0000
  H   H332      1.0  0.51405  0.32092  0.25883  1.0000
  H   H333      1.0  0.96967  0.04700  0.24514  1.0000
  H   H334      1.0  0.52144  0.02844  0.17142  1.0000
  H   H335      1.0  0.77145  0.01428  0.43077  1.0000
  S   S109      1.0  0.54458  0.00565  0.33238  1.0000
  H   H336      1.0  0.94654  0.33499  0.05232  1.0000
  C   C339      1.0  0.96831  0.05120  0.50368  1.0000
  S   S110      1.0  0.87819  0.33862  0.06047  1.0000
  C   C340      1.0  0.49849  0.03001  0.16027  1.0000
  H   H337      1.0  0.99712  0.24119  0.07156  1.0000
  Fe  Fe55      1.0  0.52460  0.16548  0.95192  1.0000
  S   S111      1.0  0.57372  0.22120  0.96237  1.0000
  H   H338      1.0  0.70659  0.32154  0.72901  1.0000
  H   H339      1.0  0.73296  0.12464  0.67624  1.0000
  H   H340      1.0  0.94043  0.04338  0.94834  1.0000
  C   C341      1.0  0.95971  0.04554  0.68241  1.0000
  H   H341      1.0  0.53821  0.12429  0.76279  1.0000
  C   C342      1.0  0.67651  0.01093  0.67190  1.0000
  Fe  Fe56      1.0  0.59517  0.09171  0.71322  1.0000
  S   S112      1.0  0.65222  0.10243  0.70510  1.0000
  S   S113      1.0  0.57740  0.08391  0.77546  1.0000
  Fe  Fe57      1.0  0.58220  0.08651  0.62667  1.0000
  S   S114      1.0  0.63825  0.09805  0.61309  1.0000
  S   S115      1.0  0.53960  0.07266  0.58075  1.0000
  Fe  Fe58      1.0  0.62919  0.05845  0.66046  1.0000
  C   C343      1.0  0.68921  0.22220  0.74208  1.0000
  Fe  Fe59      1.0  0.65644  0.14126  0.65876  1.0000
  S   S116      1.0  0.71102  0.19401  0.65546  1.0000
  S   S117      1.0  0.57165  0.04411  0.67175  1.0000
  S   S118      1.0  0.60078  0.13351  0.66924  1.0000
  C   C344      1.0  0.71522  0.30507  0.64140  1.0000
  C   C345      1.0  0.68180  0.27183  0.63884  1.0000
  C   C346      1.0  0.68023  0.23750  0.64210  1.0000
  C   C347      1.0  0.71216  0.23626  0.64754  1.0000
  C   C348      1.0  0.74571  0.26946  0.64867  1.0000
  C   C349      1.0  0.74724  0.30377  0.64568  1.0000
  H   H342      1.0  0.65696  0.27265  0.63517  1.0000
  H   H343      1.0  0.65428  0.21208  0.64080  1.0000
  H   H344      1.0  0.77054  0.26866  0.65250  1.0000
  S   S119      1.0  0.77453  0.01190  0.72704  1.0000
  C   C350      1.0  0.52621  0.13639  0.81902  1.0000
  H   H345      1.0  0.96956  0.22460  0.97726  1.0000
  C   C351      1.0  0.69440  0.03435  0.70258  1.0000
  C   C352      1.0  0.94663  0.06447  0.89133  1.0000
  S   S120      1.0  0.89309  0.28083  0.98466  1.0000
  C   C353      1.0  0.65980  0.22791  0.73766  1.0000
  S   S121      1.0  0.99674  0.17505  0.98652  1.0000
  H   H346      1.0  0.68585  0.05321  0.71264  1.0000
  C   C354      1.0  0.56204  0.10693  0.80619  1.0000
  C   C355      1.0  0.56638  0.10507  0.84558  1.0000
  C   C356      1.0  0.55118  0.11917  0.87156  1.0000
  C   C357      1.0  0.53050  0.13439  0.85844  1.0000
  H   H347      1.0  0.74179  0.13725  0.62672  1.0000
  C   C358      1.0  0.77115  0.32809  0.91009  1.0000
  H   H348      1.0  0.58133  0.09225  0.85615  1.0000
  H   H349      1.0  0.55459  0.11728  0.90177  1.0000
  H   H350      1.0  0.82602  0.09626  0.68571  1.0000
  H   H351      1.0  0.91093  0.22368  0.97796  1.0000
  H   H352      1.0  0.96788  0.04174  0.78653  1.0000
  C   C359      1.0  0.49854  0.28599  0.99157  1.0000
  Fe  Fe60      1.0  0.88983  0.33163  0.99966  1.0000
  C   C360      1.0  0.73707  0.30241  0.92467  1.0000
  C   C361      1.0  0.94138  0.03784  0.91840  1.0000
  N   N28       1.0  0.73058  0.28784  0.73744  1.0000
  C   C362      1.0  0.93623  0.24989  0.97842  1.0000
  C   C363      1.0  0.94839  0.01283  0.50819  1.0000
  C   C364      1.0  0.50049  0.03505  0.51876  1.0000
  H   H353      1.0  0.72164  0.27490  0.91246  1.0000
  C   C365      1.0  0.73202  0.11387  0.64715  1.0000
  C   C366      1.0  0.94830  0.05712  0.85287  1.0000
  C   C367      1.0  0.53400  0.04887  0.53705  1.0000
  S   S122      1.0  0.53598  0.13722  0.99994  1.0000
  S   S123      1.0  0.88992  0.02795  0.59810  1.0000
  H   H354      1.0  0.58643  0.05257  0.53452  1.0000
  H   H355      1.0  0.95024  0.09099  0.90017  1.0000
  H   H356      1.0  0.75930  0.03018  0.59323  1.0000
  H   H357      1.0  0.69662  0.29228  0.96719  1.0000
  C   C368      1.0  0.88146  0.02829  0.54887  1.0000
  C   C369      1.0  0.76787  0.31950  0.73781  1.0000
  C   C370      1.0  0.72463  0.25268  0.74207  1.0000
  H   H358      1.0  0.56350  0.01103  0.59411  1.0000
  H   H359      1.0  0.77317  0.32917  0.64700  1.0000
  Fe  Fe61      1.0  0.53834  0.23122  0.00223  1.0000
  H   H360      1.0  0.78252  0.32093  0.88620  1.0000
  C   C371      1.0  0.54231  0.12321  0.79296  1.0000
  H   H361      1.0  0.63227  0.20438  0.73677  1.0000
  H   H362      1.0  0.51002  0.14784  0.80858  1.0000
  N   N29       1.0  0.75407  0.09601  0.64423  1.0000
  H   H363      1.0  0.74732  0.24785  0.74450  1.0000
  H   H364      1.0  0.53158  0.22649  0.89745  1.0000
  H   H365      1.0  0.96853  0.10116  0.62503  1.0000
  C   C372      1.0  0.74591  0.06953  0.61710  1.0000
  C   C373      1.0  0.97088  0.03178  0.62020  1.0000
  H   H366      1.0  0.78934  0.12707  0.68979  1.0000
  C   C374      1.0  0.51410  0.23845  0.89750  1.0000
  H   H367      1.0  0.73776  0.05202  0.74359  1.0000
  H   H368      1.0  0.64354  0.26863  0.72890  1.0000
  C   C375      1.0  0.72372  0.03357  0.72014  1.0000
  S   S124      1.0  0.53927  0.28598  0.00078  1.0000
  N   N30       1.0  0.97381  0.05697  0.64682  1.0000
  C   C376      1.0  0.70188  0.29374  0.73352  1.0000
  C   C377      1.0  0.96949  0.25034  0.97816  1.0000
  C   C378      1.0  0.89837  0.06210  0.52899  1.0000
  C   C379      1.0  0.72299  0.31215  0.95544  1.0000
  C   C380      1.0  0.76663  0.05216  0.61376  1.0000
  C   C381      1.0  0.52916  0.27679  0.89714  1.0000
  C   C382      1.0  0.78306  0.10637  0.66803  1.0000
  H   H369      1.0  0.51774  0.32152  0.89674  1.0000
  C   C383      1.0  0.80418  0.08939  0.66563  1.0000
  C   C384      1.0  0.56018  0.04171  0.52100  1.0000
  C   C385      1.0  0.50631  0.29173  0.89657  1.0000
  H   H370      1.0  0.78757  0.31178  0.72657  1.0000
  C   C386      1.0  0.79586  0.06213  0.63831  1.0000
  H   H371      1.0  0.55848  0.29482  0.89777  1.0000
  H   H372      1.0  0.91438  0.08772  0.54438  1.0000
  C   C387      1.0  0.66610  0.26389  0.73341  1.0000
  H   H373      1.0  0.81139  0.04800  0.63696  1.0000
  H   H374      1.0  0.72243  0.06074  0.59881  1.0000
  C   C388      1.0  0.73539  0.00953  0.70703  1.0000
  H   H375      1.0  0.68465  0.19425  0.74425  1.0000
  H   H376      1.0  0.95261  0.07804  0.83197  1.0000
  H   H377      1.0  0.77596  0.33037  0.76711  1.0000
  C   C389      1.0  0.93550  0.28303  0.98022  1.0000
  H   H378      1.0  0.70296  0.09366  0.64116  1.0000
  H   H379      1.0  0.97634  0.06924  0.52826  1.0000
  C   C390      1.0  0.49999  0.31979  0.98476  1.0000
  C   C391      1.0  0.96837  0.31679  0.98042  1.0000
  S   S125      1.0  0.64198  0.01345  0.64673  1.0000
  H   H380      1.0  0.96144  0.06544  0.70328  1.0000
  C   C392      1.0  0.99002  0.09610  0.63639  1.0000
  C   C393      1.0  0.94598  0.01689  0.80123  1.0000
  H   H381      1.0  0.51202  0.02526  0.82259  1.0000
  N   N31       1.0  0.94527  0.02432  0.84178  1.0000
  H   H382      1.0  0.98140  0.04085  0.59182  1.0000
  S   S126      1.0  0.50748  0.14868  0.89026  1.0000
  H   H383      1.0  0.91919  0.00906  0.78838  1.0000
  C   C394      1.0  0.94276  0.00806  0.69232  1.0000
  Fe  Fe62      1.0  0.58274  0.48994  0.33994  1.0000
  Fe  Fe63      1.0  0.52986  0.40704  0.34439  1.0000
  H   H384      1.0  0.92762  0.52632  0.05038  1.0000
  N   N32       1.0  0.73774  0.48140  0.37127  1.0000
  H   H385      1.0  0.64989  0.63586  0.48653  1.0000
  C   C395      1.0  0.54568  0.51424  0.48711  1.0000
  H   H386      1.0  0.95722  0.48998  0.06743  1.0000
  C   C396      1.0  0.50233  0.52603  0.14509  1.0000
  S   S127      1.0  0.55630  0.44587  0.29490  1.0000
  S   S128      1.0  0.56060  0.45037  0.38899  1.0000
  H   H387      1.0  0.90223  0.48620  0.49271  1.0000
  C   C397      1.0  0.99670  0.62065  0.20980  1.0000
  C   C398      1.0  0.88329  0.54577  0.49142  1.0000
  Fe  Fe64      1.0  0.92160  0.39793  0.05184  1.0000
  S   S129      1.0  0.97129  0.42976  0.08945  1.0000
  C   C399      1.0  0.56251  0.58406  0.42653  1.0000
  C   C400      1.0  0.97084  0.43246  0.22001  1.0000
  C   C401      1.0  0.93856  0.42167  0.19971  1.0000
  C   C402      1.0  0.93795  0.41959  0.15974  1.0000
  C   C403      1.0  0.96989  0.42908  0.13972  1.0000
  C   C404      1.0  0.74563  0.50506  0.40124  1.0000
  S   S130      1.0  0.88230  0.41527  0.03198  1.0000
  H   H388      1.0  0.91387  0.41484  0.21497  1.0000
  H   H389      1.0  0.91294  0.41129  0.14445  1.0000
  H   H390      1.0  0.90114  0.57003  0.47479  1.0000
  C   C405      1.0  0.76618  0.47561  0.35497  1.0000
  C   C406      1.0  0.68340  0.49169  0.40239  1.0000
  H   H391      1.0  0.70230  0.49607  0.26275  1.0000
  H   H392      1.0  0.64726  0.49432  0.28946  1.0000
  Fe  Fe65      1.0  0.91291  0.59968  0.31133  1.0000
  S   S131      1.0  0.88083  0.62705  0.29550  1.0000
  S   S132      1.0  0.96347  0.61067  0.27876  1.0000
  Fe  Fe66      1.0  0.86678  0.56272  0.38288  1.0000
  S   S133      1.0  0.83246  0.58864  0.37285  1.0000
  S   S134      1.0  0.84417  0.51492  0.42508  1.0000
  Fe  Fe67      1.0  0.83151  0.57298  0.31209  1.0000
  S   S135      1.0  0.77848  0.54080  0.28005  1.0000
  Fe  Fe68      1.0  0.88468  0.64042  0.35767  1.0000
  S   S136      1.0  0.86346  0.54435  0.32217  1.0000
  S   S137      1.0  0.91960  0.61608  0.37325  1.0000
  S   S138      1.0  0.53757  0.50311  0.34024  1.0000
  S   S139      1.0  0.63944  0.53855  0.34896  1.0000
  C   C407      1.0  0.99322  0.53057  0.48382  1.0000
  C   C408      1.0  0.62374  0.59796  0.44003  1.0000
  H   H393      1.0  0.69686  0.44322  0.33350  1.0000
  H   H394      1.0  0.53026  0.64226  0.19511  1.0000
  C   C409      1.0  0.51048  0.50424  0.47476  1.0000
  H   H395      1.0  0.99051  0.47651  0.01852  1.0000
  Fe  Fe69      1.0  0.51432  0.46136  0.38711  1.0000
  C   C410      1.0  0.96343  0.60358  0.22943  1.0000
  C   C411      1.0  0.93123  0.58108  0.20954  1.0000
  C   C412      1.0  0.93245  0.57553  0.17028  1.0000
  C   C413      1.0  0.96570  0.59318  0.15056  1.0000
  H   H396      1.0  0.80679  0.46141  0.48315  1.0000
  H   H397      1.0  0.91821  0.64027  0.18788  1.0000
  H   H398      1.0  0.90549  0.56757  0.22451  1.0000
  H   H399      1.0  0.90752  0.55755  0.15514  1.0000
  H   H400      1.0  0.79363  0.49967  0.36060  1.0000
  Fe  Fe70      1.0  0.50882  0.45541  0.29955  1.0000
  C   C414      1.0  0.73999  0.54118  0.29825  1.0000
  C   C415      1.0  0.70517  0.51545  0.28473  1.0000
  C   C416      1.0  0.67400  0.51442  0.29979  1.0000
  C   C417      1.0  0.67762  0.53953  0.32811  1.0000
  C   C418      1.0  0.71246  0.56567  0.34106  1.0000
  C   C419      1.0  0.74350  0.56636  0.32637  1.0000
  H   H401      1.0  0.71548  0.58534  0.36274  1.0000
  H   H402      1.0  0.77016  0.58679  0.33643  1.0000
  C   C420      1.0  0.85299  0.51602  0.47429  1.0000
  C   C421      1.0  0.92880  0.49957  0.47931  1.0000
  H   H403      1.0  0.90628  0.49307  0.42298  1.0000
  H   H404      1.0  0.59716  0.64390  0.49933  1.0000
  H   H405      1.0  0.95523  0.53352  0.26916  1.0000
  C   C422      1.0  0.67535  0.46665  0.37272  1.0000
  H   H406      1.0  0.76340  0.47278  0.32356  1.0000
  C   C423      1.0  0.94298  0.52103  0.02925  1.0000
  C   C424      1.0  0.50515  0.63640  0.18137  1.0000
  H   H407      1.0  0.76485  0.45060  0.36754  1.0000
  H   H408      1.0  0.54834  0.38098  0.05840  1.0000
  C   C425      1.0  0.62561  0.62149  0.46917  1.0000
  H   H409      1.0  0.52508  0.45183  0.20581  1.0000
  H   H410      1.0  0.64664  0.59403  0.43415  1.0000
  H   H411      1.0  0.53773  0.56857  0.41025  1.0000
  C   C426      1.0  0.83017  0.48464  0.49621  1.0000
  S   S140      1.0  0.97099  0.43673  0.27008  1.0000
  C   C427      1.0  0.59205  0.57913  0.41852  1.0000
  H   H412      1.0  0.66240  0.49664  0.41347  1.0000
  H   H413      1.0  0.92311  0.50763  0.23255  1.0000
  S   S141      1.0  0.52867  0.35219  0.34508  1.0000
  Fe  Fe71      1.0  0.51802  0.66674  0.03525  1.0000
  N   N33       1.0  0.56453  0.60716  0.45519  1.0000
  H   H414      1.0  0.93905  0.48449  0.26345  1.0000
  C   C428      1.0  0.96497  0.52008  0.42215  1.0000
  H   H415      1.0  0.94836  0.51538  0.17203  1.0000
  H   H416      1.0  0.52779  0.51417  0.09832  1.0000
  H   H417      1.0  0.96704  0.52277  0.39147  1.0000
  H   H418      1.0  0.53644  0.63641  0.44487  1.0000
  S   S142      1.0  0.96628  0.58464  0.10162  1.0000
  C   C429      1.0  0.59568  0.62600  0.47621  1.0000
  H   H419      1.0  0.77299  0.51986  0.41285  1.0000
  H   H420      1.0  0.64808  0.45199  0.36089  1.0000
  N   N34       1.0  0.95971  0.51306  0.50079  1.0000
  H   H421      1.0  0.52641  0.44275  0.13630  1.0000
  C   C430      1.0  0.93093  0.50316  0.43975  1.0000
  H   H422      1.0  0.72535  0.53062  0.43984  1.0000
  S   S143      1.0  0.57277  0.67088  0.02887  1.0000
  Fe  Fe72      1.0  0.83956  0.35501  0.03543  1.0000
  C   C431      1.0  0.71871  0.51093  0.41693  1.0000
  H   H423      1.0  0.59035  0.56048  0.39611  1.0000
  C   C432      1.0  0.70306  0.46191  0.35730  1.0000
  H   H424      1.0  0.56033  0.50258  0.47322  1.0000
  H   H425      1.0  0.52593  0.39429  0.09359  1.0000
  C   C433      1.0  0.50472  0.64108  0.14180  1.0000
  H   H426      1.0  0.91720  0.61572  0.10145  1.0000
  H   H427      1.0  0.52928  0.65025  0.12532  1.0000
  C   C434      1.0  0.95957  0.50062  0.03882  1.0000
  C   C435      1.0  0.94722  0.51083  0.24816  1.0000
  C   C436      1.0  0.97400  0.52088  0.18422  1.0000
  H   H428      1.0  0.51402  0.39128  0.04410  1.0000
  H   H429      1.0  0.79580  0.40545  0.00777  1.0000
  C   C437      1.0  0.52203  0.37843  0.06702  1.0000
  N   N35       1.0  0.94395  0.66419  0.13497  1.0000
  C   C438      1.0  0.99637  0.53375  0.44426  1.0000
  C   C439      1.0  0.91270  0.63817  0.11201  1.0000
  C   C440      1.0  0.97845  0.49317  0.01098  1.0000
  H   H430      1.0  0.50739  0.58789  0.45586  1.0000
  N   N36       1.0  0.97779  0.51959  0.22269  1.0000
  C   C441      1.0  0.53384  0.61309  0.46237  1.0000
  H   H431      1.0  0.88701  0.62545  0.12867  1.0000
  S   S144      1.0  0.99701  0.64220  0.01023  1.0000
  C   C442      1.0  0.94258  0.66133  0.17373  1.0000
  H   H432      1.0  0.99272  0.35051  0.06405  1.0000
  C   C443      1.0  0.50908  0.52343  0.10666  1.0000
  H   H433      1.0  0.90904  0.65252  0.08725  1.0000
  C   C444      1.0  0.50219  0.44027  0.14917  1.0000
  H   H434      1.0  0.53260  0.61945  0.49285  1.0000
  C   C445      1.0  0.50156  0.44550  0.18862  1.0000
  H   H435      1.0  0.51644  0.51922  0.16642  1.0000
  C   C446      1.0  0.99781  0.61596  0.17039  1.0000
  S   S145      1.0  0.78556  0.34488  0.05828  1.0000
  H   H436      1.0  0.95970  0.33890  0.10161  1.0000
  N   N37       1.0  0.96887  0.52504  0.73594  1.0000
  H   H437      1.0  0.76353  0.50885  0.59765  1.0000
  C   C447      1.0  0.73338  0.56710  0.62272  1.0000
  Fe  Fe73      1.0  0.89193  0.40195  0.97289  1.0000
  S   S146      1.0  0.89692  0.44402  0.92885  1.0000
  H   H438      1.0  0.54646  0.53151  0.78647  1.0000
  Fe  Fe74      1.0  0.83862  0.46844  0.63987  1.0000
  S   S147      1.0  0.78095  0.45645  0.63909  1.0000
  S   S148      1.0  0.88173  0.50756  0.59815  1.0000
  Fe  Fe75      1.0  0.82831  0.42852  0.71665  1.0000
  S   S149      1.0  0.77033  0.41499  0.72200  1.0000
  S   S150      1.0  0.85167  0.40261  0.75593  1.0000
  Fe  Fe76      1.0  0.76635  0.39969  0.66036  1.0000
  N   N38       1.0  0.98123  0.50630  0.97477  1.0000
  Fe  Fe77      1.0  0.79028  0.47274  0.70043  1.0000
  S   S151      1.0  0.82338  0.41018  0.65571  1.0000
  H   H439      1.0  0.65889  0.46057  0.66272  1.0000
  H   H440      1.0  0.71536  0.46141  0.68243  1.0000
  C   C448      1.0  0.88318  0.43161  0.88117  1.0000
  C   C449      1.0  0.87810  0.39847  0.86586  1.0000
  C   C450      1.0  0.86806  0.38985  0.82754  1.0000
  C   C451      1.0  0.86223  0.41381  0.80443  1.0000
  C   C452      1.0  0.86651  0.44657  0.81995  1.0000
  C   C453      1.0  0.87732  0.45559  0.85810  1.0000
  H   H441      1.0  0.88270  0.37987  0.88329  1.0000
  C   C454      1.0  0.74372  0.34717  0.97194  1.0000
  H   H442      1.0  0.88104  0.48120  0.86980  1.0000
  H   H443      1.0  0.50024  0.56645  0.91210  1.0000
  C   C455      1.0  0.79095  0.36298  0.92708  1.0000
  S   S152      1.0  0.93542  0.39006  0.99211  1.0000
  H   H444      1.0  0.96020  0.52653  0.79580  1.0000
  S   S153      1.0  0.50625  0.65909  0.97231  1.0000
  S   S154      1.0  0.77882  0.51610  0.72395  1.0000
  S   S155      1.0  0.84902  0.48779  0.70052  1.0000
  Fe  Fe78      1.0  0.59582  0.60630  0.70695  1.0000
  S   S156      1.0  0.65010  0.61040  0.71521  1.0000
  S   S157      1.0  0.55991  0.61277  0.75050  1.0000
  Fe  Fe79      1.0  0.59753  0.59744  0.61993  1.0000
  S   S158      1.0  0.65269  0.60267  0.62139  1.0000
  S   S159      1.0  0.56393  0.59240  0.56766  1.0000
  Fe  Fe80      1.0  0.63082  0.56475  0.67189  1.0000
  S   S160      1.0  0.63467  0.51278  0.67138  1.0000
  Fe  Fe81      1.0  0.66733  0.64808  0.66417  1.0000
  S   S161      1.0  0.57452  0.55697  0.66804  1.0000
  S   S162      1.0  0.61416  0.64650  0.65833  1.0000
  C   C456      1.0  0.73787  0.51404  0.71081  1.0000
  C   C457      1.0  0.73218  0.54328  0.72073  1.0000
  C   C458      1.0  0.70043  0.54310  0.70915  1.0000
  C   C459      1.0  0.67401  0.51335  0.68805  1.0000
  C   C460      1.0  0.67936  0.48374  0.67888  1.0000
  C   C461      1.0  0.71133  0.48420  0.68994  1.0000
  H   H445      1.0  0.75257  0.56633  0.73706  1.0000
  H   H446      1.0  0.69644  0.56594  0.71650  1.0000
  C   C462      1.0  0.56954  0.62347  0.79932  1.0000
  C   C463      1.0  0.59751  0.62124  0.81777  1.0000
  C   C464      1.0  0.60197  0.62659  0.85737  1.0000
  C   C465      1.0  0.57918  0.63513  0.87869  1.0000
  C   C466      1.0  0.98848  0.54416  0.70468  1.0000
  C   C467      1.0  0.97737  0.52938  0.66823  1.0000
  H   H447      1.0  0.61495  0.61428  0.80175  1.0000
  C   C468      1.0  0.52856  0.53686  0.84236  1.0000
  H   H448      1.0  0.92323  0.47513  0.75674  1.0000
  S   S163      1.0  0.58361  0.63830  0.92878  1.0000
  H   H449      1.0  0.86208  0.46523  0.80244  1.0000
  H   H450      1.0  0.76439  0.61716  0.65505  1.0000
  C   C469      1.0  0.54318  0.55529  0.53501  1.0000
  C   C470      1.0  0.89133  0.54339  0.52983  1.0000
  H   H451      1.0  0.70850  0.51465  0.59374  1.0000
  H   H452      1.0  0.96711  0.53656  0.93643  1.0000
  C   C471      1.0  0.86878  0.51163  0.55148  1.0000
  N   N39       1.0  0.77759  0.37170  0.95826  1.0000
  H   H453      1.0  0.91536  0.56605  0.54261  1.0000
  C   C472      1.0  0.79498  0.58957  0.64388  1.0000
  C   C473      1.0  0.82704  0.55583  0.63058  1.0000
  H   H454      1.0  0.81859  0.60982  0.65958  1.0000
  H   H455      1.0  0.82776  0.53765  0.60794  1.0000
  H   H456      1.0  0.82702  0.54363  0.65863  1.0000
  H   H457      1.0  0.86511  0.36461  0.81564  1.0000
  C   C474      1.0  0.92659  0.47523  0.69602  1.0000
  C   C475      1.0  0.83776  0.48259  0.53471  1.0000
  C   C476      1.0  0.50597  0.54414  0.90420  1.0000
  H   H458      1.0  0.53419  0.55344  0.91381  1.0000
  H   H459      1.0  0.58933  0.54789  0.52646  1.0000
  N   N40       1.0  0.79483  0.55987  0.62733  1.0000
  H   H460      1.0  0.55347  0.54169  0.85588  1.0000
  H   H461      1.0  0.82033  0.45788  0.55098  1.0000
  H   H462      1.0  0.85246  0.58305  0.62784  1.0000
  H   H463      1.0  0.93344  0.55047  0.98466  1.0000
  H   H464      1.0  0.96819  0.34252  0.98121  1.0000
  C   C477      1.0  0.55189  0.63837  0.86005  1.0000
  H   H465      1.0  0.98911  0.57067  0.77405  1.0000
  C   C478      1.0  0.54688  0.63216  0.82064  1.0000
  C   C479      1.0  0.96526  0.52658  0.96526  1.0000
  H   H466      1.0  0.52602  0.34523  0.98439  1.0000
  C   C480      1.0  0.56191  0.53953  0.51754  1.0000
  H   H467      1.0  0.79013  0.42723  0.96576  1.0000
  H   H468      1.0  0.62300  0.62378  0.87161  1.0000
  H   H469      1.0  0.70900  0.56931  0.62195  1.0000
  H   H470      1.0  0.90237  0.44814  0.69310  1.0000
  C   C481      1.0  0.76423  0.53315  0.60947  1.0000
  C   C482      1.0  0.76445  0.59388  0.64144  1.0000
  H   H471      1.0  0.73307  0.35414  0.99660  1.0000
  C   C483      1.0  0.73311  0.53639  0.60684  1.0000
  C   C484      1.0  0.94605  0.53440  0.99235  1.0000
  H   H472      1.0  0.53403  0.64469  0.87614  1.0000
  H   H473      1.0  0.52508  0.63377  0.80661  1.0000
  C   C485      1.0  0.94598  0.49486  0.66394  1.0000
  H   H474      1.0  0.95782  0.53579  0.55390  1.0000
  C   C486      1.0  0.79901  0.40802  0.97636  1.0000
  C   C487      1.0  0.93854  0.49075  0.73203  1.0000
  C   C488      1.0  0.50802  0.54478  0.52268  1.0000
  C   C489      1.0  0.98153  0.54099  0.77377  1.0000
  H   H475      1.0  0.97969  0.50816  0.55488  1.0000
  H   H476      1.0  0.93670  0.48332  0.63582  1.0000
  C   C490      1.0  0.52470  0.53088  0.80313  1.0000
  H   H477      1.0  0.99308  0.54453  0.64349  1.0000
  H   H478      1.0  0.51287  0.45387  0.55754  1.0000
  H   H479      1.0  0.52262  0.49965  0.60743  1.0000
  H   H480      1.0  0.81750  0.38268  0.91584  1.0000
  H   H481      1.0  0.82857  0.42026  0.97049  1.0000
  H   H482      1.0  0.97884  0.47382  0.92770  1.0000
  Fe  Fe82      1.0  0.56296  0.66873  0.96555  1.0000
  H   H483      1.0  0.77035  0.34224  0.71932  1.0000
  H   H484      1.0  0.93109  0.48604  0.55158  1.0000
  S   S164      1.0  0.71568  0.34752  0.64163  1.0000
  C   C491      1.0  0.95701  0.51066  0.54232  1.0000
  N   N41       1.0  0.50179  0.53770  0.86313  1.0000
  S   S165      1.0  0.84707  0.34262  0.97529  1.0000
  N   N42       1.0  0.90578  0.78623  0.30067  1.0000
  H   H485      1.0  0.99737  0.89788  0.02545  1.0000
  Fe  Fe83      1.0  0.54214  0.91168  0.33405  1.0000
  C   C492      1.0  0.71987  0.80692  0.04593  1.0000
  C   C493      1.0  0.66223  0.95693  0.36600  1.0000
  C   C494      1.0  0.68151  0.74021  0.04698  1.0000
  C   C495      1.0  0.75653  0.99907  0.40574  1.0000
  Fe  Fe84      1.0  0.52623  0.96446  0.38006  1.0000
  C   C496      1.0  0.97300  0.68469  0.19577  1.0000
  S   S166      1.0  0.56387  0.94999  0.28357  1.0000
  S   S167      1.0  0.57410  0.95603  0.37718  1.0000
  H   H486      1.0  0.65479  0.71572  0.04775  1.0000
  C   C497      1.0  0.98285  0.77287  0.03391  1.0000
  S   S168      1.0  0.95460  0.93022  0.26538  1.0000
  Fe  Fe85      1.0  0.91523  0.87552  0.04541  1.0000
  S   S169      1.0  0.96120  0.90968  0.08727  1.0000
  S   S170      1.0  0.89225  0.81398  0.04212  1.0000
  H   H487      1.0  0.77778  0.82789  0.04346  1.0000
  C   C498      1.0  0.71808  0.96026  0.34195  1.0000
  H   H488      1.0  0.70602  0.99439  0.42345  1.0000
  H   H489      1.0  0.97321  0.82929  0.38270  1.0000
  N   N43       1.0  0.70101  0.96897  0.36959  1.0000
  H   H490      1.0  0.70985  0.70954  0.04775  1.0000
  C   C499      1.0  0.50765  0.82256  0.05102  1.0000
  Fe  Fe86      1.0  0.51529  0.95717  0.29238  1.0000
  Fe  Fe87      1.0  0.59467  0.73207  0.02217  1.0000
  H   H491      1.0  0.98981  0.78077  0.06330  1.0000
  H   H492      1.0  0.84415  0.97039  0.47330  1.0000
  C   C500      1.0  0.49945  0.94903  0.13757  1.0000
  S   S171      1.0  0.54432  0.85858  0.33563  1.0000
  C   C501      1.0  0.95563  0.91998  0.21674  1.0000
  C   C502      1.0  0.92420  0.90804  0.19453  1.0000
  C   C503      1.0  0.92489  0.90277  0.15506  1.0000
  C   C504      1.0  0.95730  0.91016  0.13735  1.0000
  H   H493      1.0  0.91187  0.84025  0.30125  1.0000
  C   C505      1.0  0.52327  0.72237  0.26384  1.0000
  H   H494      1.0  0.89928  0.90339  0.20778  1.0000
  H   H495      1.0  0.90068  0.89425  0.13818  1.0000
  S   S172      1.0  0.50084  0.96975  0.43505  1.0000
  H   H496      1.0  0.99672  0.83137  0.24561  1.0000
  H   H497      1.0  0.86717  0.74369  0.33732  1.0000
  C   C506      1.0  0.93455  0.73611  0.36986  1.0000
  C   C507      1.0  0.93872  0.76998  0.38198  1.0000
  H   H498      1.0  0.96972  0.86926  0.26562  1.0000
  C   C508      1.0  0.98770  0.92605  0.19924  1.0000
  C   C509      1.0  0.74750  0.76830  0.04508  1.0000
  C   C510      1.0  0.96277  0.73578  0.34975  1.0000
  H   H499      1.0  0.72273  0.83415  0.04561  1.0000
  H   H500      1.0  0.55106  0.74529  0.25689  1.0000
  C   C511      1.0  0.97035  0.80345  0.37308  1.0000
  C   C512      1.0  0.50794  0.88725  0.03283  1.0000
  C   C513      1.0  0.85887  0.99615  0.48878  1.0000
  C   C514      1.0  0.95221  0.78052  0.26778  1.0000
  C   C515      1.0  0.68504  0.77532  0.04637  1.0000
  C   C516      1.0  0.95571  0.83982  0.27168  1.0000
  H   H501      1.0  0.91719  0.77037  0.39798  1.0000
  S   S173      1.0  0.98032  0.89682  0.35492  1.0000
  S   S174      1.0  0.86150  0.87198  0.03281  1.0000
  H   H502      1.0  0.95982  0.70972  0.34047  1.0000
  H   H503      1.0  0.64549  0.93097  0.38232  1.0000
  C   C517      1.0  0.93845  0.99006  0.47614  1.0000
  S   S175      1.0  0.89250  0.69537  0.37752  1.0000
  H   H504      1.0  0.97214  0.68138  0.22644  1.0000
  H   H505      1.0  0.51907  0.69745  0.24805  1.0000
  H   H506      1.0  0.52746  0.96054  0.19165  1.0000
  H   H507      1.0  0.52357  0.95606  0.12114  1.0000
  S   S176      1.0  0.78563  0.76254  0.04130  1.0000
  C   C518      1.0  0.71270  0.73677  0.04701  1.0000
  H   H508      1.0  0.90571  0.73536  0.29473  1.0000
  H   H509      1.0  0.52980  0.78474  0.34933  1.0000
  H   H510      1.0  0.52165  0.71647  0.29478  1.0000
  H   H511      1.0  0.93267  0.95329  0.41420  1.0000
  C   C519      1.0  0.91943  0.76471  0.28797  1.0000
  C   C520      1.0  0.75106  0.80344  0.04470  1.0000
  C   C521      1.0  0.92298  0.82318  0.29197  1.0000
  H   H512      1.0  0.95729  0.99277  0.38445  1.0000
  H   H513      1.0  0.92326  0.96025  0.47987  1.0000
  H   H514      1.0  0.96385  0.76372  0.25946  1.0000
  H   H515      1.0  0.94170  0.99695  0.24228  1.0000
  C   C522      1.0  0.71963  0.98778  0.40140  1.0000
  C   C523      1.0  0.87194  0.76945  0.32273  1.0000
  C   C524      1.0  0.50404  0.76804  0.25280  1.0000
  H   H516      1.0  0.84853  0.76257  0.30377  1.0000
  C   C525      1.0  0.50404  0.78315  0.34374  1.0000
  S   S177      1.0  0.64644  0.78043  0.04460  1.0000
  H   H517      1.0  0.91030  0.97754  0.39636  1.0000
  C   C526      1.0  0.99468  0.76937  0.34117  1.0000
  Fe  Fe88      1.0  0.84008  0.81110  0.02426  1.0000
  H   H518      1.0  0.70350  0.94560  0.31658  1.0000
  H   H519      1.0  0.97493  0.98748  0.10857  1.0000
  C   C527      1.0  0.93637  0.98095  0.40720  1.0000
  H   H520      1.0  0.50823  0.91269  0.02563  1.0000
  C   C528      1.0  0.97064  0.81843  0.26005  1.0000
  H   H521      1.0  0.87336  0.78861  0.34542  1.0000
  H   H522      1.0  0.95138  0.80002  0.02890  1.0000
  S   S178      1.0  0.99241  0.94595  0.45281  1.0000
  S   S179      1.0  0.54103  0.72829  0.03407  1.0000
  H   H523      1.0  0.65314  0.95181  0.33588  1.0000
  C   C529      1.0  0.75498  0.97129  0.34530  1.0000
  H   H524      1.0  0.65666  0.97867  0.37661  1.0000
  C   C530      1.0  0.99740  0.75374  0.01499  1.0000
  H   H525      1.0  0.97650  0.69174  0.08644  1.0000
  H   H526      1.0  0.50728  0.79717  0.05838  1.0000
  C   C531      1.0  0.50174  0.95159  0.17757  1.0000
  C   C532      1.0  0.98861  0.92166  0.15966  1.0000
  H   H527      1.0  0.53137  0.79012  0.25947  1.0000
  C   C533      1.0  0.96096  0.78376  0.01446  1.0000
  Fe  Fe89      1.0  0.59128  0.99488  0.32753  1.0000
  C   C534      1.0  0.77427  0.99083  0.37741  1.0000
  C   C535      1.0  0.50306  0.81579  0.33731  1.0000
  H   H528      1.0  0.76879  0.96562  0.32264  1.0000
  C   C536      1.0  0.97514  0.68995  0.11721  1.0000
  H   H529      1.0  0.54852  0.80704  0.00955  1.0000
  H   H530      1.0  0.58324  0.85522  0.01034  1.0000
  C   C537      1.0  0.53067  0.87727  0.01388  1.0000
  H   H531      1.0  0.98364  0.98776  0.17793  1.0000
  N   N44       1.0  0.53015  0.84515  0.02294  1.0000
  C   C538      1.0  0.97243  0.00381  0.16619  1.0000
  C   C539      1.0  0.96776  0.00378  0.12687  1.0000
  H   H532      1.0  0.71471  0.00296  0.24851  1.0000
  H   H533      1.0  0.65903  0.00321  0.26972  1.0000
  C   C540      1.0  0.51737  0.00464  0.47063  1.0000
  N   N45       1.0  0.94801  0.00513  0.44059  1.0000
  H   H534      1.0  0.80300  0.99979  0.38021  1.0000
  H   H535      1.0  0.66703  0.69470  0.72418  1.0000
  H   H536      1.0  0.51409  0.93980  0.52778  1.0000
  Fe  Fe90      1.0  0.90702  0.82379  0.98058  1.0000
  Fe  Fe91      1.0  0.87730  0.87676  0.97087  1.0000
  S   S180      1.0  0.86195  0.91120  0.93319  1.0000
  S   S181      1.0  0.85299  0.81574  0.96210  1.0000
  S   S182      1.0  0.58803  0.73016  0.95904  1.0000
  C   C541      1.0  0.65932  0.71552  0.73239  1.0000
  N   N46       1.0  0.71750  0.75356  0.95363  1.0000
  Fe  Fe92      1.0  0.84916  0.98349  0.63819  1.0000
  S   S183      1.0  0.78939  0.96375  0.63773  1.0000
  H   H537      1.0  0.56448  0.97552  0.56696  1.0000
  Fe  Fe93      1.0  0.84381  0.94355  0.71399  1.0000
  S   S184      1.0  0.78380  0.92153  0.71947  1.0000
  S   S185      1.0  0.87753  0.92941  0.75349  1.0000
  Fe  Fe94      1.0  0.78204  0.90892  0.65723  1.0000
  S   S186      1.0  0.73469  0.85581  0.63472  1.0000
  Fe  Fe95      1.0  0.79599  0.97780  0.69963  1.0000
  S   S187      1.0  0.84150  0.92738  0.65243  1.0000
  S   S188      1.0  0.72235  0.70050  0.66734  1.0000
  C   C542      1.0  0.73271  0.81301  0.64151  1.0000
  C   C543      1.0  0.76246  0.81104  0.65553  1.0000
  C   C544      1.0  0.75930  0.77632  0.66222  1.0000
  C   C545      1.0  0.72633  0.74345  0.65537  1.0000
  C   C546      1.0  0.69683  0.74548  0.64075  1.0000
  C   C547      1.0  0.70007  0.78014  0.63373  1.0000
  H   H538      1.0  0.78779  0.83623  0.66141  1.0000
  H   H539      1.0  0.78231  0.77496  0.67334  1.0000
  H   H540      1.0  0.67151  0.72043  0.63481  1.0000
  H   H541      1.0  0.67707  0.78152  0.62261  1.0000
  H   H542      1.0  0.71937  0.84313  0.72739  1.0000
  H   H543      1.0  0.72517  0.96636  0.66714  1.0000
  C   C548      1.0  0.86314  0.91230  0.88285  1.0000
  C   C549      1.0  0.88086  0.89753  0.86200  1.0000
  C   C550      1.0  0.88433  0.90229  0.82226  1.0000
  C   C551      1.0  0.86941  0.92101  0.80289  1.0000
  C   C552      1.0  0.85076  0.93480  0.82363  1.0000
  C   C553      1.0  0.84795  0.93073  0.86343  1.0000
  H   H544      1.0  0.89282  0.88342  0.87657  1.0000
  H   H545      1.0  0.89895  0.89164  0.80649  1.0000
  H   H546      1.0  0.83434  0.94242  0.87933  1.0000
  H   H547      1.0  0.77946  0.79190  0.76612  1.0000
  H   H548      1.0  0.72481  0.73022  0.75603  1.0000
  H   H549      1.0  0.54858  0.89528  0.99173  1.0000
  H   H550      1.0  0.93682  0.97170  0.85934  1.0000
  C   C554      1.0  0.68744  0.98608  0.65960  1.0000
  H   H551      1.0  0.77695  0.84881  0.75180  1.0000
  C   C555      1.0  0.72322  0.75497  0.75084  1.0000
  C   C556      1.0  0.75281  0.82169  0.74848  1.0000
  C   C557      1.0  0.96666  0.75492  0.95741  1.0000
  H   H552      1.0  0.94037  0.00077  0.53624  1.0000
  C   C558      1.0  0.98835  0.74370  0.97700  1.0000
  C   C559      1.0  0.93981  0.98219  0.66549  1.0000
  H   H553      1.0  0.74997  0.85809  0.94807  1.0000
  C   C560      1.0  0.70535  0.71395  0.95570  1.0000
  C   C561      1.0  0.74072  0.82869  0.94894  1.0000
  H   H554      1.0  0.95130  0.97410  0.60785  1.0000
  C   C562      1.0  0.86107  0.99534  0.52865  1.0000
  C   C563      1.0  0.69249  0.76499  0.95402  1.0000
  H   H555      1.0  0.55090  0.83634  0.97150  1.0000
  C   C564      1.0  0.75423  0.78974  0.75652  1.0000
  C   C565      1.0  0.93764  0.00419  0.90677  1.0000
  S   S189      1.0  0.93288  0.88568  0.98392  1.0000
  C   C566      1.0  0.70369  0.80270  0.95207  1.0000
  H   H556      1.0  0.79484  0.83685  0.94576  1.0000
  H   H557      1.0  0.64324  0.70636  0.75910  1.0000
  C   C567      1.0  0.54891  0.98066  0.58907  1.0000
  C   C568      1.0  0.93979  0.99792  0.86811  1.0000
  S   S190      1.0  0.93296  0.79580  0.94899  1.0000
  C   C569      1.0  0.76597  0.81674  0.94774  1.0000
  C   C570      1.0  0.68999  0.78337  0.72985  1.0000
  H   H558      1.0  0.70300  0.70260  0.92670  1.0000
  H   H559      1.0  0.84817  0.96912  0.54355  1.0000
  S   S191      1.0  0.85649  0.00116  0.69946  1.0000
  C   C571      1.0  0.71680  0.98539  0.67707  1.0000
  H   H560      1.0  0.68380  0.81162  0.95417  1.0000
  H   H561      1.0  0.67351  0.96765  0.63610  1.0000
  H   H562      1.0  0.66526  0.78126  0.71862  1.0000
  H   H563      1.0  0.50159  0.99465  0.62350  1.0000
  C   C572      1.0  0.75380  0.77882  0.95013  1.0000
  H   H564      1.0  0.64175  0.71586  0.70921  1.0000
  H   H565      1.0  0.96105  0.74861  0.92753  1.0000
  C   C573      1.0  0.95372  0.77583  0.97584  1.0000
  H   H566      1.0  0.93282  0.98294  0.92750  1.0000
  Fe  Fe96      1.0  0.53242  0.72100  0.97143  1.0000
  N   N47       1.0  0.51126  0.96770  0.57738  1.0000
  H   H567      1.0  0.77360  0.76971  0.95029  1.0000
  H   H568      1.0  0.83934  0.94948  0.80916  1.0000
  H   H569      1.0  0.66377  0.74501  0.95719  1.0000
  N   N48       1.0  0.69172  0.75217  0.73743  1.0000
  H   H570      1.0  0.72487  0.70938  0.97263  1.0000
  C   C574      1.0  0.72050  0.81855  0.73504  1.0000
  S   S192      1.0  0.51054  0.75214  0.93911  1.0000
  H   H571      1.0  0.92615  0.95298  0.67289  1.0000
  H   H572      1.0  0.54942  0.96661  0.61568  1.0000
  H   H573      1.0  0.67846  0.69817  0.97007  1.0000
  C   C575      1.0  0.95391  0.99404  0.62911  1.0000
  H   H574      1.0  0.99406  0.95180  0.53404  1.0000
  H   H575      1.0  0.93138  0.99894  0.72038  1.0000
  H   H576      1.0  0.95129  0.99372  0.79639  1.0000
  C   C576      1.0  0.55445  0.83556  0.00273  1.0000
