data_image0
_chemical_formula_structural       FeS2FeSHFeSFeS3H2FeHSHC2FeSHSHFeS2FeS2FeSFeS3CH2C2SCNSC6H3C3HC2H4C6H4C4H4CHC4H4NC4HCH3C6H6C3H2FeSCHCHNH2C3HC3SHCHCHC3HC2HCNHC2SHCHFeCHFeHCSHC2H2CH4CH2C2HNCH4CHC2HC2H2SHSH2C2NCH2FeS2FeS2FeSFeS3FeSFeS2CSFeSCHCHCHC4SH4C8HCHC6H4C2HC2H2CHC2HCHS2HCH3SC5H3C2HNCFeHSC3SH3CH3NH2CH2FeHCH2NC2H3C2SC2H3C3SH4CH3C2HSC4SCHC2NHC2FeHFeS2FeSCHSFeSHFeS2FeSFeS3FeS2FeS2FeSFeS4HSC3SHCSFeHCHCH3C3NHC3HC3HCH2C6HC3HNC2HCHC6H4C2H3CHNCHC6H3FeCH2C2HNH2SHNH4NCHSCH3C3H2CHCHC2H2NHFeC2HCHCHCFeHC2H2C2HCHNC6H8CHCSC3H7CH2CH3C2HCH2C2H2FeSFeS2FeSFeS2FeSFeS2FeSHFeSFeHS3H2SHCH4C2SCH5CHSCHC6H4C6H5FeCHC2HCHCHNC3HCHC2H3CHC4HC3H2NCNC2HCH3CHNCSHCNHCHC2H2S3H3C3HC3HCHCH4CHCHCHCHCHCHCFeHCH2CH3C2HCH2FeS2FeSHFeSFeS3CNFeHSHC2FeSCSHFeS2FeS2FeSFeS3HCHCHSCHSC8HC2NHC2H4C6H6C2HC2H3CHC3H4C5H4C6H6C2H2C4HCH3NHCH3CH3CHCSHNFeHCHSC3HCH3C3SH2C2H2CFeH3NHC2HC3H2SCNHC2NH2FeH3CHCHSCHCH2FeS2FeS2FeSFeS3FeSFeS2HCFeSHC2HC4H6S2HC6H3C6H4CHC5SHC6H3CSH3CH2C2HCHC2H2FeCNSC2HSHCH2NH3C2NC3H2CHSCH2NC2HC2H2CSCNC2HCH6C2HCSHFe2SFeS2FeSC2SFeSFe2S2FeSFeS3FeS2FeS2FeSFeS4FeCSFeNSH2SC2H4C2H2CH2C7HCH2C6H2C2HC4H2C6H4C2HC3HCH2C6H3SH2NCHSC2HCNHCHCFeHCNC6NHCH4SHC2H2CH2SH2NCH3C2HC2H7CHNHCH2C2H2CHCH5C2H3CH3FeC2H2CNCH2CSCHCHCFeSFeS2FeS4FeSFeS2FeSNFeSFeHS3C2H6C2HSC2H6C2NC6H4C6H4NC4H3CHS2H4SCHC3H2CH2C2H2C2H2NSCFeC2HNCHCH2CH2CH5CHCHCFeHC2HC3HCH2C2HCH3CH3FeS2HSCFeSFeS3CHFeHSCHSFeSHSCFeS2FeSCFeSFeS3HCHCHSHCSNCSC3H3C4HC2H3C6H4CHC2HCH5C5HSHC4H5C4HCH5CH2CNHFeC2HC2HC3FeHNCHC2HC3H2SNH2C3HCHCFeCH2CNC2HC3H4C3NC2H3C3HC2H5C2HCFeS2FeS2FeSFeS3FeSFeS2HNFeSCHS2CH2C2H6C8HNHC6H4C6SH2CH3C3H2CHCH2C4FeCHCHCH2NHSCH4SH3C3HSHC3H2C2HSCH5C2NFeHFeCSCH2CHNCHC2HCHCHC5HNH4CSCSHC5H6CHCHNCHFeSFeS2FeSFe2SFeSCFeS2FeSFeS3FeS2FeS2FeSFeS4CHSH2CH2SHC2H4CFeN2H2C7H4C2HCHCHC7HCHC6H4C2H2C2HCSC7H3SH3CHCH3C2FeCHCHC2H2CH4CH5NCHCHC3H2CN2S2C3H3CNC6H8SH2NC2H3CH4CH2C3HC2HCH2C2H2FeSFeS2FeSFeS2FeSFeS2FeSHFeSFeHS3H2CHCH4C2HC2SH5CH2C6H4C6H5NC4SH5CH2SC3HSC4HCHCH3CHNH2CSCSHNC2HC4HCH4CHC3H2NHSHCH2CHCH3FeC2HC2HSHSC2H2NC2H3CN2H2FeCHFeS2FeSCFeSFeS3HCFeHSC3FeS3NFeS2FeS2FeSFeS3HSH2CH3SCFeC6HC3HC2H2CHC6H6C2SHC2HCHC3H7C4SHC7H2CH2SC3HC2FeHCFeH3CSCH2SC2SHCH3CHCH2C2HC2H3CHCNC2HCHNHCH3NH2CH3CHCHC2H2C6HCHFe2S2FeS2FeSFeS3FeSFeS2CHFeSFeSHC6H3SH2SHC6HCHC6H4CHC3HC2HCSC4SH2CHC4S2H2C4HC2HC3SHCHC2H2CH2CHCSHC2H3NH3CNHCH3CH5C2SHC2H3C3NH4NCHFeSFeS2FeSC2SFeSCFeS2FeSFeS3FeS2FeS2FeSFeS4CFeCNCSH2CHCH2C6HCH2CHNSC2H4C3H2CHNCSH2C3H2C6H4C2H3CH4C6H3CHCFeCHC2H3C3H2NC6H12CHCNH3CHCH4SHCH2C3HC2HC3NC3FeCSHCHC2H7CNH2FeSFeS2FeSFeS2FeSFeS2FeSFe2SFeHS3HCSHCSH2C6H3NS2CHC7H4C6H4CSNC6H10C2HNC5H2C2H4C2HCH2CHNHSH3CFeHCH2CH4SH4C2HCH3SC2HFeH4CH3NHC2HC2H4CNCHC
_chemical_formula_sum              "Fe192 S384 H1152 C1152 N96"
_cell_length_a       56.6969
_cell_length_b       56.7496
_cell_length_c       42.5007
_cell_angle_alpha    90.0622
_cell_angle_beta     89.8538
_cell_angle_gamma    120.069

_space_group_name_H-M_alt    "P 1"
_space_group_IT_number       1

loop_
  _space_group_symop_operation_xyz
  'x, y, z'

loop_
  _atom_site_type_symbol
  _atom_site_label
  _atom_site_symmetry_multiplicity
  _atom_site_fract_x
  _atom_site_fract_y
  _atom_site_fract_z
  _atom_site_occupancy
  Fe  Fe1       1.0  0.39302  0.15117  0.04462  1.0000
  S   S1        1.0  0.40033  0.13223  0.08736  1.0000
  S   S2        1.0  0.39795  0.19315  0.04105  1.0000
  Fe  Fe2       1.0  0.38670  0.10581  0.00035  1.0000
  S   S3        1.0  0.39453  0.08414  0.03923  1.0000
  H   H1        1.0  0.45834  0.21430  0.04684  1.0000
  Fe  Fe3       1.0  0.36615  0.09292  0.06723  1.0000
  S   S4        1.0  0.33325  0.05611  0.09277  1.0000
  Fe  Fe4       1.0  0.42798  0.12524  0.05542  1.0000
  S   S5        1.0  0.47073  0.13205  0.06386  1.0000
  S   S6        1.0  0.35665  0.11264  0.02728  1.0000
  S   S7        1.0  0.42245  0.14620  0.01377  1.0000
  H   H2        1.0  0.35696  0.04435  0.99145  1.0000
  H   H3        1.0  0.32614  0.09044  0.44982  1.0000
  Fe  Fe5       1.0  0.10550  0.21209  0.12866  1.0000
  H   H4        1.0  0.10361  0.02200  0.41379  1.0000
  S   S8        1.0  0.07369  0.19078  0.09035  1.0000
  H   H5        1.0  0.13808  0.10796  0.33184  1.0000
  C   C1        1.0  0.32941  0.11140  0.44787  1.0000
  C   C2        1.0  0.39132  0.03638  0.35008  1.0000
  Fe  Fe6       1.0  0.12559  0.21746  0.19661  1.0000
  S   S9        1.0  0.12031  0.20219  0.24691  1.0000
  H   H6        1.0  0.30239  0.11185  0.39658  1.0000
  S   S10       1.0  0.12702  0.19392  0.15507  1.0000
  H   H7        1.0  0.11476  0.08798  0.38242  1.0000
  Fe  Fe7       1.0  0.21077  0.18601  0.39795  1.0000
  S   S11       1.0  0.23570  0.18891  0.35571  1.0000
  S   S12       1.0  0.20353  0.22113  0.40635  1.0000
  Fe  Fe8       1.0  0.19308  0.12583  0.40880  1.0000
  S   S13       1.0  0.21598  0.12444  0.36637  1.0000
  S   S14       1.0  0.16853  0.09052  0.44224  1.0000
  Fe  Fe9       1.0  0.24948  0.16480  0.38424  1.0000
  S   S15       1.0  0.29362  0.17562  0.38122  1.0000
  Fe  Fe10      1.0  0.19981  0.14889  0.34229  1.0000
  S   S16       1.0  0.18480  0.14319  0.29200  1.0000
  S   S17       1.0  0.22749  0.16516  0.42807  1.0000
  S   S18       1.0  0.17404  0.14687  0.38325  1.0000
  C   C3        1.0  0.49072  0.17132  0.11114  1.0000
  H   H8        1.0  0.25533  0.07178  0.00308  1.0000
  H   H9        1.0  0.43035  0.05013  0.41549  1.0000
  C   C4        1.0  0.29168  0.11032  0.41834  1.0000
  C   C5        1.0  0.12117  0.07662  0.36760  1.0000
  S   S19       1.0  0.37613  0.08439  0.43672  1.0000
  C   C6        1.0  0.49618  0.15596  0.08968  1.0000
  N   N1        1.0  0.30318  0.11065  0.44673  1.0000
  S   S20       1.0  0.40801  0.15990  0.45213  1.0000
  C   C7        1.0  0.25059  0.01192  0.08690  1.0000
  C   C8        1.0  0.13849  0.04834  0.32978  1.0000
  C   C9        1.0  0.16293  0.02063  0.40835  1.0000
  C   C10       1.0  0.17065  0.04826  0.41191  1.0000
  C   C11       1.0  0.16194  0.05668  0.43821  1.0000
  C   C12       1.0  0.14609  0.03736  0.46124  1.0000
  H   H10       1.0  0.45060  0.08332  0.02475  1.0000
  H   H11       1.0  0.09834  0.24469  0.05598  1.0000
  H   H12       1.0  0.18282  0.06290  0.39400  1.0000
  C   C13       1.0  0.31197  0.17727  0.41540  1.0000
  C   C14       1.0  0.30179  0.17686  0.44553  1.0000
  C   C15       1.0  0.40745  0.05102  0.37563  1.0000
  H   H13       1.0  0.06232  0.22950  0.04893  1.0000
  C   C16       1.0  0.35184  0.17860  0.43885  1.0000
  C   C17       1.0  0.33722  0.17856  0.41218  1.0000
  H   H14       1.0  0.28249  0.17613  0.44832  1.0000
  H   H15       1.0  0.23305  0.10678  0.44401  1.0000
  H   H16       1.0  0.37118  0.17945  0.43601  1.0000
  H   H17       1.0  0.34535  0.17915  0.38894  1.0000
  C   C18       1.0  0.13641  0.18381  0.25898  1.0000
  C   C19       1.0  0.13903  0.18028  0.29125  1.0000
  C   C20       1.0  0.15372  0.16781  0.30167  1.0000
  C   C21       1.0  0.16543  0.15818  0.27985  1.0000
  C   C22       1.0  0.16202  0.16086  0.24759  1.0000
  C   C23       1.0  0.14780  0.17382  0.23718  1.0000
  H   H18       1.0  0.13020  0.18783  0.30829  1.0000
  H   H19       1.0  0.15608  0.16585  0.32658  1.0000
  H   H20       1.0  0.17079  0.15327  0.23052  1.0000
  H   H21       1.0  0.14575  0.17616  0.21227  1.0000
  C   C24       1.0  0.37770  0.01502  0.45811  1.0000
  C   C25       1.0  0.38214  0.04177  0.45959  1.0000
  C   C26       1.0  0.36894  0.05015  0.43846  1.0000
  C   C27       1.0  0.35062  0.03123  0.41654  1.0000
  H   H22       1.0  0.15417  0.08298  0.29848  1.0000
  H   H23       1.0  0.44935  0.18585  0.07161  1.0000
  H   H24       1.0  0.26296  0.24036  0.04194  1.0000
  H   H25       1.0  0.34038  0.03757  0.40003  1.0000
  C   C28       1.0  0.27727  0.20532  0.12218  1.0000
  H   H26       1.0  0.38850  0.00893  0.47410  1.0000
  C   C29       1.0  0.23408  0.06591  0.99677  1.0000
  C   C30       1.0  0.02720  0.18284  0.12161  1.0000
  C   C31       1.0  0.03844  0.17937  0.09388  1.0000
  C   C32       1.0  0.02131  0.16669  0.06795  1.0000
  H   H27       1.0  0.42918  0.20956  0.16957  1.0000
  H   H28       1.0  0.29853  0.22683  0.35689  1.0000
  H   H29       1.0  0.04012  0.19248  0.14176  1.0000
  H   H30       1.0  0.02987  0.16395  0.04640  1.0000
  N   N2        1.0  0.45460  0.22129  0.09546  1.0000
  C   C33       1.0  0.24358  0.03144  0.07842  1.0000
  C   C34       1.0  0.26430  0.05839  0.07304  1.0000
  C   C35       1.0  0.29187  0.06592  0.07630  1.0000
  C   C36       1.0  0.29891  0.04665  0.08574  1.0000
  H   H31       1.0  0.38248  0.04535  0.33505  1.0000
  C   C37       1.0  0.20705  0.22981  0.31963  1.0000
  H   H32       1.0  0.25902  0.07367  0.06695  1.0000
  H   H33       1.0  0.30761  0.08686  0.07276  1.0000
  H   H34       1.0  0.24353  0.24188  0.07493  1.0000
  C   C38       1.0  0.38961  0.20746  0.07292  1.0000
  C   C39       1.0  0.37920  0.19319  0.10105  1.0000
  C   C40       1.0  0.37434  0.20589  0.12667  1.0000
  C   C41       1.0  0.38006  0.23292  0.12435  1.0000
  C   C42       1.0  0.30566  0.21994  0.12426  1.0000
  C   C43       1.0  0.39463  0.23424  0.07035  1.0000
  H   H35       1.0  0.37514  0.17248  0.10317  1.0000
  H   H36       1.0  0.36662  0.19489  0.14855  1.0000
  H   H37       1.0  0.25987  0.23974  0.42211  1.0000
  H   H38       1.0  0.42070  0.00324  0.40471  1.0000
  H   H39       1.0  0.10449  0.02958  0.07481  1.0000
  H   H40       1.0  0.28352  0.00469  0.09850  1.0000
  C   C44       1.0  0.14342  0.07398  0.32034  1.0000
  C   C45       1.0  0.18066  0.24924  0.30021  1.0000
  C   C46       1.0  0.41286  0.01265  0.38885  1.0000
  H   H41       1.0  0.24187  0.20380  0.10179  1.0000
  H   H42       1.0  0.47250  0.12699  0.99608  1.0000
  Fe  Fe11      1.0  0.44798  0.17872  0.47775  1.0000
  S   S21       1.0  0.20307  0.22819  0.13835  1.0000
  C   C47       1.0  0.34608  0.00444  0.41516  1.0000
  H   H43       1.0  0.19177  0.22546  0.21538  1.0000
  C   C48       1.0  0.26635  0.10894  0.41693  1.0000
  H   H44       1.0  0.33131  0.23888  0.40064  1.0000
  N   N3        1.0  0.27860  0.23895  0.08670  1.0000
  H   H45       1.0  0.48381  0.21416  0.07266  1.0000
  H   H46       1.0  0.21231  0.21227  0.22956  1.0000
  C   C49       1.0  0.38626  0.00992  0.34446  1.0000
  C   C50       1.0  0.31661  0.17726  0.47223  1.0000
  C   C51       1.0  0.12461  0.03720  0.35805  1.0000
  H   H47       1.0  0.34194  0.12120  0.42656  1.0000
  C   C52       1.0  0.21276  0.22603  0.28857  1.0000
  C   C53       1.0  0.32034  0.24404  0.10728  1.0000
  C   C54       1.0  0.44623  0.08345  0.99990  1.0000
  S   S22       1.0  0.48933  0.21251  0.46217  1.0000
  H   H48       1.0  0.23328  0.08424  0.98910  1.0000
  C   C55       1.0  0.26443  0.24851  0.06605  1.0000
  H   H49       1.0  0.22118  0.05813  0.01829  1.0000
  C   C56       1.0  0.41844  0.03918  0.39505  1.0000
  H   H50       1.0  0.22461  0.21612  0.28434  1.0000
  C   C57       1.0  0.27819  0.01962  0.09095  1.0000
  C   C58       1.0  0.31059  0.24790  0.36435  1.0000
  C   C59       1.0  0.25263  0.10760  0.44477  1.0000
  H   H51       1.0  0.41081  0.07122  0.38094  1.0000
  C   C60       1.0  0.09432  0.01094  0.06115  1.0000
  C   C61       1.0  0.13841  0.00972  0.45771  1.0000
  H   H52       1.0  0.40267  0.24534  0.04859  1.0000
  C   C62       1.0  0.26442  0.10776  0.47361  1.0000
  N   N4        1.0  0.11644  0.05149  0.37671  1.0000
  H   H53       1.0  0.14534  0.03718  0.31528  1.0000
  C   C63       1.0  0.44455  0.20806  0.12345  1.0000
  C   C64       1.0  0.43795  0.22041  0.14777  1.0000
  S   S23       1.0  0.20930  0.02343  0.07548  1.0000
  H   H54       1.0  0.13928  0.04370  0.48170  1.0000
  C   C65       1.0  0.41371  0.03442  0.00272  1.0000
  H   H55       1.0  0.39626  0.05608  0.47657  1.0000
  Fe  Fe12      1.0  0.16576  0.23247  0.14334  1.0000
  C   C66       1.0  0.10138  0.03947  0.40594  1.0000
  H   H56       1.0  0.44111  0.18764  0.12692  1.0000
  Fe  Fe13      1.0  0.40067  0.11954  0.47100  1.0000
  H   H57       1.0  0.26564  0.18659  0.13539  1.0000
  C   C67       1.0  0.46204  0.20837  0.07046  1.0000
  S   S24       1.0  0.10044  0.23239  0.17151  1.0000
  H   H58       1.0  0.25779  0.10964  0.39438  1.0000
  C   C68       1.0  0.34144  0.17765  0.46898  1.0000
  C   C69       1.0  0.26399  0.21510  0.10301  1.0000
  H   H59       1.0  0.31637  0.21273  0.13903  1.0000
  H   H60       1.0  0.47044  0.16845  0.11256  1.0000
  C   C70       1.0  0.28985  0.10926  0.47417  1.0000
  H   H61       1.0  0.07941  0.03229  0.40252  1.0000
  H   H62       1.0  0.39505  0.03280  0.01349  1.0000
  H   H63       1.0  0.12075  0.01720  0.36518  1.0000
  H   H64       1.0  0.16939  0.01419  0.38768  1.0000
  C   C71       1.0  0.13449  0.08811  0.33918  1.0000
  H   H65       1.0  0.21449  0.22323  0.33922  1.0000
  H   H66       1.0  0.07933  0.24285  0.11138  1.0000
  C   C72       1.0  0.44194  0.24653  0.14342  1.0000
  C   C73       1.0  0.20898  0.22994  0.23146  1.0000
  H   H67       1.0  0.21116  0.01248  0.00478  1.0000
  N   N5        1.0  0.20257  0.23367  0.26393  1.0000
  C   C74       1.0  0.38996  0.24699  0.09601  1.0000
  H   H68       1.0  0.46601  0.23671  0.42252  1.0000
  H   H69       1.0  0.34165  0.12352  0.46833  1.0000
  H   H70       1.0  0.15401  0.01650  0.00719  1.0000
  H   H71       1.0  0.10941  0.05476  0.42527  1.0000
  C   C75       1.0  0.18709  0.24557  0.26945  1.0000
  H   H72       1.0  0.42675  0.03367  0.02173  1.0000
  C   C76       1.0  0.09866  0.01151  0.02874  1.0000
  C   C77       1.0  0.45889  0.24704  0.09113  1.0000
  H   H73       1.0  0.18543  0.24327  0.34947  1.0000
  C   C78       1.0  0.49363  0.24543  0.46117  1.0000
  C   C79       1.0  0.19070  0.24123  0.32543  1.0000
  H   H74       1.0  0.25440  0.23959  0.16314  1.0000
  H   H75       1.0  0.22743  0.24857  0.22302  1.0000
  S   S25       1.0  0.37587  0.24888  0.15774  1.0000
  H   H76       1.0  0.40752  0.01642  0.98729  1.0000
  S   S26       1.0  0.14481  0.24860  0.11247  1.0000
  H   H77       1.0  0.17751  0.06512  0.99158  1.0000
  H   H78       1.0  0.11214  0.03060  0.01692  1.0000
  C   C80       1.0  0.08193  0.24912  0.04956  1.0000
  C   C81       1.0  0.14656  0.00118  0.43104  1.0000
  N   N6        1.0  0.42821  0.05989  0.98485  1.0000
  C   C82       1.0  0.00388  0.24801  0.48257  1.0000
  H   H79       1.0  0.36701  0.06104  0.89225  1.0000
  H   H80       1.0  0.40732  0.04180  0.94202  1.0000
  Fe  Fe14      1.0  0.21497  0.07407  0.82639  1.0000
  S   S27       1.0  0.23965  0.09501  0.86899  1.0000
  S   S28       1.0  0.20543  0.03068  0.82060  1.0000
  Fe  Fe15      1.0  0.20202  0.11974  0.81362  1.0000
  S   S29       1.0  0.22459  0.14281  0.85688  1.0000
  S   S30       1.0  0.18795  0.13839  0.77571  1.0000
  Fe  Fe16      1.0  0.25676  0.13344  0.84083  1.0000
  S   S31       1.0  0.30118  0.16605  0.84502  1.0000
  Fe  Fe17      1.0  0.20504  0.10173  0.88084  1.0000
  S   S32       1.0  0.19053  0.09172  0.93140  1.0000
  S   S33       1.0  0.23525  0.11189  0.79662  1.0000
  S   S34       1.0  0.17946  0.07950  0.83900  1.0000
  Fe  Fe18      1.0  0.42413  0.14476  0.53580  1.0000
  S   S35       1.0  0.43514  0.13946  0.58560  1.0000
  Fe  Fe19      1.0  0.07817  0.20530  0.68574  1.0000
  S   S36       1.0  0.05370  0.18307  0.72811  1.0000
  S   S37       1.0  0.06739  0.18656  0.63724  1.0000
  C   C83       1.0  0.32275  0.11543  0.85145  1.0000
  S   S38       1.0  0.09060  0.23910  0.76805  1.0000
  Fe  Fe20      1.0  0.09388  0.20262  0.75361  1.0000
  S   S39       1.0  0.10361  0.18037  0.79122  1.0000
  C   C84       1.0  0.31375  0.08963  0.83858  1.0000
  H   H81       1.0  0.07081  0.11109  0.78300  1.0000
  C   C85       1.0  0.29879  0.22695  0.75101  1.0000
  H   H82       1.0  0.46124  0.12821  0.93975  1.0000
  C   C86       1.0  0.46863  0.16221  0.59855  1.0000
  H   H83       1.0  0.30793  0.08581  0.81402  1.0000
  C   C87       1.0  0.02608  0.16718  0.59375  1.0000
  C   C88       1.0  0.03271  0.16986  0.62584  1.0000
  C   C89       1.0  0.08899  0.13332  0.70789  1.0000
  C   C90       1.0  0.34905  0.01875  0.90521  1.0000
  S   S40       1.0  0.43118  0.18586  0.52213  1.0000
  H   H84       1.0  0.04220  0.17523  0.57633  1.0000
  H   H85       1.0  0.06096  0.13507  0.74093  1.0000
  H   H86       1.0  0.45914  0.15048  0.64718  1.0000
  H   H87       1.0  0.47499  0.23410  0.78233  1.0000
  C   C91       1.0  0.49451  0.11690  0.61726  1.0000
  C   C92       1.0  0.08063  0.11430  0.76021  1.0000
  C   C93       1.0  0.31912  0.18180  0.81016  1.0000
  C   C94       1.0  0.34373  0.20664  0.81197  1.0000
  C   C95       1.0  0.35765  0.22029  0.78441  1.0000
  C   C96       1.0  0.34720  0.20894  0.75491  1.0000
  C   C97       1.0  0.32312  0.18364  0.75320  1.0000
  C   C98       1.0  0.30902  0.17021  0.78070  1.0000
  H   H88       1.0  0.35181  0.21561  0.83471  1.0000
  C   C99       1.0  0.48930  0.17838  0.57723  1.0000
  H   H89       1.0  0.29036  0.15090  0.77899  1.0000
  C   C100      1.0  0.16675  0.15257  0.78204  1.0000
  C   C101      1.0  0.16361  0.16749  0.75764  1.0000
  C   C102      1.0  0.14501  0.17696  0.76050  1.0000
  C   C103      1.0  0.12936  0.17155  0.78785  1.0000
  C   C104      1.0  0.13303  0.15726  0.81257  1.0000
  C   C105      1.0  0.15167  0.14781  0.80973  1.0000
  H   H90       1.0  0.17527  0.17132  0.73617  1.0000
  H   H91       1.0  0.14232  0.18785  0.74128  1.0000
  H   H92       1.0  0.12101  0.15301  0.83383  1.0000
  H   H93       1.0  0.15388  0.13633  0.82867  1.0000
  C   C106      1.0  0.13363  0.10313  0.72122  1.0000
  C   C107      1.0  0.33915  0.14757  0.89554  1.0000
  H   H94       1.0  0.30852  0.17673  0.49548  1.0000
  C   C108      1.0  0.17144  0.05688  0.94186  1.0000
  C   C109      1.0  0.15990  0.03643  0.91900  1.0000
  H   H95       1.0  0.42853  0.08519  0.91272  1.0000
  H   H96       1.0  0.30540  0.04877  0.84780  1.0000
  C   C110      1.0  0.09990  0.10621  0.75487  1.0000
  H   H97       1.0  0.16188  0.04182  0.89437  1.0000
  C   C111      1.0  0.23213  0.02427  0.81283  1.0000
  C   C112      1.0  0.16867  0.04945  0.97374  1.0000
  H   H98       1.0  0.49614  0.10182  0.67620  1.0000
  C   C113      1.0  0.47507  0.16294  0.63058  1.0000
  H   H99       1.0  0.10460  0.09639  0.77377  1.0000
  S   S41       1.0  0.38146  0.12269  0.51602  1.0000
  S   S42       1.0  0.44281  0.13821  0.49227  1.0000
  H   H100      1.0  0.31860  0.05823  0.90422  1.0000
  C   C114      1.0  0.34430  0.00948  0.96110  1.0000
  H   H101      1.0  0.38433  0.23733  0.60024  1.0000
  H   H102      1.0  0.21733  0.03857  0.89279  1.0000
  H   H103      1.0  0.48048  0.21142  0.66949  1.0000
  S   S43       1.0  0.37847  0.09139  0.94968  1.0000
  C   C115      1.0  0.27833  0.20968  0.81113  1.0000
  C   C116      1.0  0.36041  0.04668  0.91155  1.0000
  C   C117      1.0  0.27422  0.03490  0.78613  1.0000
  C   C118      1.0  0.25424  0.04172  0.79387  1.0000
  C   C119      1.0  0.21284  0.01827  0.98017  1.0000
  H   H104      1.0  0.32352  0.13132  0.83654  1.0000
  H   H105      1.0  0.29090  0.04801  0.77068  1.0000
  H   H106      1.0  0.30705  0.23319  0.72745  1.0000
  C   C120      1.0  0.40545  0.24089  0.54437  1.0000
  C   C121      1.0  0.32906  0.10036  0.90119  1.0000
  H   H107      1.0  0.34980  0.16378  0.87753  1.0000
  N   N7        1.0  0.11340  0.11160  0.72670  1.0000
  C   C122      1.0  0.31228  0.06889  0.85756  1.0000
  Fe  Fe21      1.0  0.39059  0.16358  0.49797  1.0000
  H   H108      1.0  0.32096  0.14846  0.90369  1.0000
  S   S44       1.0  0.01267  0.21850  0.74890  1.0000
  C   C123      1.0  0.10809  0.12485  0.70330  1.0000
  C   C124      1.0  0.15527  0.02185  0.98263  1.0000
  C   C125      1.0  0.30295  0.23394  0.80629  1.0000
  S   S45       1.0  0.11880  0.22196  0.71018  1.0000
  H   H109      1.0  0.12621  0.08690  0.70308  1.0000
  H   H110      1.0  0.26309  0.19027  0.73484  1.0000
  H   H111      1.0  0.35342  0.15228  0.91556  1.0000
  C   C126      1.0  0.03303  0.22956  0.62013  1.0000
  H   H112      1.0  0.34682  0.01172  0.88114  1.0000
  H   H113      1.0  0.15330  0.12081  0.71344  1.0000
  H   H114      1.0  0.02143  0.22186  0.66887  1.0000
  N   N8        1.0  0.22402  0.04508  0.97206  1.0000
  H   H115      1.0  0.11891  0.12927  0.68105  1.0000
  H   H116      1.0  0.27093  0.20268  0.83480  1.0000
  C   C127      1.0  0.21653  0.03281  0.91731  1.0000
  H   H117      1.0  0.05471  0.23930  0.62490  1.0000
  H   H118      1.0  0.49098  0.09757  0.60653  1.0000
  Fe  Fe22      1.0  0.05314  0.22166  0.73775  1.0000
  H   H119      1.0  0.48056  0.22472  0.70816  1.0000
  C   C128      1.0  0.22639  0.05255  0.94109  1.0000
  H   H120      1.0  0.31505  0.17463  0.73046  1.0000
  H   H121      1.0  0.33524  0.10435  0.92569  1.0000
  N   N9        1.0  0.33058  0.12061  0.88229  1.0000
  C   C129      1.0  0.35506  0.03737  0.96742  1.0000
  C   C130      1.0  0.36334  0.05609  0.94264  1.0000
  H   H122      1.0  0.13816  0.09532  0.74305  1.0000
  H   H123      1.0  0.25410  0.10712  0.49540  1.0000
  H   H124      1.0  0.25540  0.05993  0.78427  1.0000
  C   C131      1.0  0.42012  0.24271  0.51706  1.0000
  C   C132      1.0  0.31978  0.07420  0.88915  1.0000
  S   S46       1.0  0.36279  0.22619  0.71967  1.0000
  C   C133      1.0  0.07525  0.12798  0.73659  1.0000
  C   C134      1.0  0.14572  0.00883  0.92797  1.0000
  H   H125      1.0  0.47595  0.11304  0.63048  1.0000
  H   H126      1.0  0.08515  0.14430  0.68954  1.0000
  H   H127      1.0  0.01642  0.16109  0.67292  1.0000
  C   C135      1.0  0.49331  0.22701  0.68719  1.0000
  C   C136      1.0  0.01165  0.15936  0.64814  1.0000
  C   C137      1.0  0.27264  0.01115  0.79816  1.0000
  S   S47       1.0  0.29802  0.00322  0.78818  1.0000
  H   H128      1.0  0.23486  0.07378  0.93471  1.0000
  H   H129      1.0  0.37641  0.23956  0.78602  1.0000
  H   H130      1.0  0.31431  0.24577  0.82655  1.0000
  H   H131      1.0  0.38453  0.22434  0.54645  1.0000
  C   C138      1.0  0.43423  0.08482  0.93699  1.0000
  H   H132      1.0  0.48458  0.17798  0.55249  1.0000
  H   H133      1.0  0.24492  0.17494  0.78874  1.0000
  H   H134      1.0  0.03800  0.23311  0.56964  1.0000
  C   C139      1.0  0.20434  0.00538  0.92542  1.0000
  C   C140      1.0  0.02369  0.22601  0.58917  1.0000
  H   H135      1.0  0.49722  0.13135  0.59802  1.0000
  S   S48       1.0  0.35853  0.17612  0.50292  1.0000
  C   C141      1.0  0.01415  0.21938  0.64486  1.0000
  C   C142      1.0  0.27402  0.20266  0.75500  1.0000
  C   C143      1.0  0.42220  0.06032  0.95378  1.0000
  C   C144      1.0  0.14365  0.00140  0.95977  1.0000
  S   S49       1.0  0.07575  0.24292  0.69412  1.0000
  C   C145      1.0  0.26381  0.19401  0.78528  1.0000
  H   H136      1.0  0.29917  0.10991  0.49668  1.0000
  C   C146      1.0  0.00706  0.24499  0.73697  1.0000
  C   C147      1.0  0.45242  0.10896  0.95222  1.0000
  N   N10       1.0  0.31297  0.24214  0.77652  1.0000
  H   H137      1.0  0.41069  0.22771  0.49846  1.0000
  C   C148      1.0  0.23042  0.00039  0.82460  1.0000
  C   C149      1.0  0.45865  0.10831  0.98381  1.0000
  Fe  Fe23      1.0  0.16223  0.46976  0.05155  1.0000
  H   H138      1.0  0.08150  0.29566  0.03887  1.0000
  Fe  Fe24      1.0  0.10139  0.43307  0.06927  1.0000
  S   S50       1.0  0.09348  0.40578  0.02764  1.0000
  S   S51       1.0  0.06862  0.42801  0.10414  1.0000
  Fe  Fe25      1.0  0.13291  0.40811  0.04180  1.0000
  S   S52       1.0  0.13701  0.37032  0.03900  1.0000
  C   C150      1.0  0.01422  0.30080  0.46815  1.0000
  H   H139      1.0  0.43605  0.40633  0.24682  1.0000
  S   S53       1.0  0.14004  0.43411  0.08472  1.0000
  Fe  Fe26      1.0  0.38388  0.29208  0.15457  1.0000
  S   S54       1.0  0.38438  0.31371  0.11014  1.0000
  H   H140      1.0  0.47866  0.40450  0.16497  1.0000
  Fe  Fe27      1.0  0.39075  0.33872  0.19658  1.0000
  S   S55       1.0  0.39246  0.36411  0.15540  1.0000
  S   S56       1.0  0.39189  0.35099  0.24750  1.0000
  Fe  Fe28      1.0  0.35745  0.32533  0.13681  1.0000
  S   S57       1.0  0.32147  0.32639  0.11556  1.0000
  Fe  Fe29      1.0  0.41954  0.35037  0.13275  1.0000
  S   S58       1.0  0.45530  0.38077  0.10297  1.0000
  S   S59       1.0  0.35410  0.30081  0.17947  1.0000
  S   S60       1.0  0.42079  0.32796  0.17574  1.0000
  Fe  Fe30      1.0  0.31266  0.40744  0.33697  1.0000
  S   S61       1.0  0.33773  0.41277  0.38015  1.0000
  S   S62       1.0  0.32734  0.41136  0.28659  1.0000
  Fe  Fe31      1.0  0.26081  0.39074  0.37501  1.0000
  S   S63       1.0  0.28161  0.39341  0.42067  1.0000
  S   S64       1.0  0.21671  0.37995  0.37038  1.0000
  Fe  Fe32      1.0  0.31578  0.43293  0.40158  1.0000
  S   S65       1.0  0.32967  0.46739  0.43733  1.0000
  Fe  Fe33      1.0  0.30130  0.37317  0.39508  1.0000
  S   S66       1.0  0.30724  0.33919  0.41358  1.0000
  S   S67       1.0  0.29376  0.43107  0.35691  1.0000
  S   S68       1.0  0.27751  0.36692  0.35083  1.0000
  S   S69       1.0  0.14736  0.31081  0.16022  1.0000
  H   H141      1.0  0.01619  0.46815  0.07333  1.0000
  S   S70       1.0  0.16503  0.25532  0.18579  1.0000
  C   C151      1.0  0.46570  0.41073  0.17684  1.0000
  C   C152      1.0  0.11010  0.32413  0.45490  1.0000
  C   C153      1.0  0.45654  0.42578  0.16003  1.0000
  S   S71       1.0  0.10156  0.46713  0.43247  1.0000
  H   H142      1.0  0.47428  0.37671  0.20868  1.0000
  C   C154      1.0  0.22999  0.46163  0.45380  1.0000
  S   S72       1.0  0.09736  0.39584  0.44259  1.0000
  Fe  Fe34      1.0  0.06000  0.37041  0.47224  1.0000
  H   H143      1.0  0.07845  0.31589  0.13536  1.0000
  C   C155      1.0  0.01646  0.41905  0.99724  1.0000
  H   H144      1.0  0.21660  0.47500  0.07793  1.0000
  C   C156      1.0  0.28408  0.27877  0.14466  1.0000
  H   H145      1.0  0.36151  0.49788  0.38235  1.0000
  H   H146      1.0  0.16949  0.44385  0.42237  1.0000
  H   H147      1.0  0.28768  0.45413  0.01764  1.0000
  C   C157      1.0  0.03513  0.29703  0.47977  1.0000
  C   C158      1.0  0.23926  0.28059  0.11983  1.0000
  C   C159      1.0  0.43959  0.43367  0.17484  1.0000
  N   N11       1.0  0.21152  0.45706  0.43051  1.0000
  H   H148      1.0  0.14011  0.38312  0.10603  1.0000
  C   C160      1.0  0.43230  0.42675  0.20629  1.0000
  C   C161      1.0  0.20106  0.38533  0.40329  1.0000
  C   C162      1.0  0.21307  0.39022  0.43301  1.0000
  H   H149      1.0  0.45092  0.37194  0.23967  1.0000
  C   C163      1.0  0.17464  0.39210  0.45580  1.0000
  C   C164      1.0  0.16272  0.38768  0.42601  1.0000
  C   C165      1.0  0.17587  0.38415  0.39982  1.0000
  H   H150      1.0  0.23234  0.39109  0.43604  1.0000
  C   C166      1.0  0.49660  0.37246  0.12527  1.0000
  H   H151      1.0  0.14324  0.38655  0.42318  1.0000
  H   H152      1.0  0.16646  0.38038  0.37684  1.0000
  C   C167      1.0  0.27812  0.30651  0.41227  1.0000
  C   C168      1.0  0.25276  0.30297  0.40361  1.0000
  C   C169      1.0  0.22991  0.27666  0.40215  1.0000
  C   C170      1.0  0.14094  0.31840  0.41918  1.0000
  C   C171      1.0  0.19984  0.39345  0.45917  1.0000
  C   C172      1.0  0.28049  0.28365  0.41931  1.0000
  H   H153      1.0  0.25068  0.32050  0.39855  1.0000
  C   C173      1.0  0.13111  0.49985  0.43175  1.0000
  C   C174      1.0  0.28839  0.30084  0.12602  1.0000
  C   C175      1.0  0.34126  0.30182  0.38312  1.0000
  H   H154      1.0  0.11267  0.33771  0.47510  1.0000
  N   N12       1.0  0.02797  0.44481  0.04533  1.0000
  C   C176      1.0  0.31937  0.31581  0.34309  1.0000
  C   C177      1.0  0.34460  0.28184  0.39845  1.0000
  H   H155      1.0  0.30118  0.27759  0.15380  1.0000
  C   C178      1.0  0.45261  0.26004  0.11500  1.0000
  H   H156      1.0  0.26864  0.46467  0.46550  1.0000
  C   C179      1.0  0.37355  0.36744  0.25801  1.0000
  C   C180      1.0  0.36822  0.36944  0.28988  1.0000
  C   C181      1.0  0.35385  0.38264  0.29893  1.0000
  C   C182      1.0  0.34545  0.39466  0.27617  1.0000
  C   C183      1.0  0.35135  0.39321  0.24437  1.0000
  C   C184      1.0  0.36490  0.37923  0.23525  1.0000
  H   H157      1.0  0.37520  0.36070  0.30764  1.0000
  H   H158      1.0  0.34966  0.38391  0.32352  1.0000
  H   H159      1.0  0.34511  0.40267  0.22667  1.0000
  H   H160      1.0  0.36897  0.37794  0.21065  1.0000
  C   C185      1.0  0.03372  0.40294  0.10063  1.0000
  C   C186      1.0  0.02336  0.38756  0.07319  1.0000
  H   H161      1.0  0.24408  0.44794  0.36882  1.0000
  H   H162      1.0  0.06305  0.47457  0.47131  1.0000
  H   H163      1.0  0.06938  0.47644  0.05009  1.0000
  C   C187      1.0  0.01556  0.40006  0.12492  1.0000
  H   H164      1.0  0.03706  0.38962  0.05429  1.0000
  N   N13       1.0  0.13519  0.32331  0.44895  1.0000
  C   C188      1.0  0.04329  0.43491  0.98675  1.0000
  H   H165      1.0  0.02339  0.41186  0.14626  1.0000
  C   C189      1.0  0.14237  0.35562  0.07289  1.0000
  C   C190      1.0  0.14519  0.33252  0.06947  1.0000
  C   C191      1.0  0.14700  0.31875  0.09604  1.0000
  C   C192      1.0  0.14644  0.32824  0.12625  1.0000
  C   C193      1.0  0.14454  0.35185  0.12966  1.0000
  C   C194      1.0  0.14230  0.36539  0.10309  1.0000
  H   H166      1.0  0.14540  0.32493  0.04617  1.0000
  H   H167      1.0  0.14870  0.30076  0.09308  1.0000
  H   H168      1.0  0.14416  0.35937  0.15295  1.0000
  Fe  Fe35      1.0  0.09656  0.43211  0.46302  1.0000
  C   C195      1.0  0.25788  0.25729  0.41669  1.0000
  H   H169      1.0  0.08301  0.46854  0.99742  1.0000
  H   H170      1.0  0.43599  0.25596  0.16167  1.0000
  C   C196      1.0  0.30645  0.25335  0.08850  1.0000
  C   C197      1.0  0.00901  0.42455  0.02660  1.0000
  H   H171      1.0  0.03606  0.45591  0.09363  1.0000
  N   N14       1.0  0.45796  0.40351  0.20746  1.0000
  H   H172      1.0  0.41893  0.43252  0.21806  1.0000
  H   H173      1.0  0.48495  0.40137  0.24020  1.0000
  S   S73       1.0  0.02009  0.33351  0.45863  1.0000
  H   H174      1.0  0.33297  0.33647  0.35292  1.0000
  N   N15       1.0  0.29384  0.48937  0.99265  1.0000
  H   H175      1.0  0.29812  0.31152  0.34640  1.0000
  H   H176      1.0  0.27539  0.27115  0.06506  1.0000
  H   H177      1.0  0.39460  0.26787  0.09401  1.0000
  H   H178      1.0  0.48215  0.35902  0.14262  1.0000
  N   N16       1.0  0.32300  0.29492  0.35899  1.0000
  C   C198      1.0  0.28673  0.47301  0.02146  1.0000
  H   H179      1.0  0.16996  0.31494  0.38921  1.0000
  S   S74       1.0  0.12440  0.47152  0.04111  1.0000
  C   C199      1.0  0.23248  0.25378  0.40841  1.0000
  H   H180      1.0  0.17977  0.45110  0.46242  1.0000
  H   H181      1.0  0.45520  0.28011  0.11116  1.0000
  H   H182      1.0  0.35281  0.32276  0.39120  1.0000
  C   C200      1.0  0.18662  0.45787  0.43785  1.0000
  C   C201      1.0  0.17615  0.32561  0.46815  1.0000
  C   C202      1.0  0.48082  0.25234  0.43786  1.0000
  H   H183      1.0  0.47923  0.28504  0.41400  1.0000
  H   H184      1.0  0.27779  0.45629  0.41088  1.0000
  C   C203      1.0  0.15225  0.32658  0.47338  1.0000
  H   H185      1.0  0.00109  0.43285  0.08499  1.0000
  C   C204      1.0  0.07825  0.27830  0.12706  1.0000
  H   H186      1.0  0.20097  0.35154  0.18676  1.0000
  C   C205      1.0  0.07815  0.30184  0.11781  1.0000
  C   C206      1.0  0.07879  0.30778  0.08587  1.0000
  H   H187      1.0  0.46210  0.43065  0.13543  1.0000
  H   H188      1.0  0.21021  0.27405  0.39617  1.0000
  N   N17       1.0  0.08038  0.26736  0.07288  1.0000
  H   H189      1.0  0.26918  0.31898  0.09953  1.0000
  Fe  Fe36      1.0  0.14051  0.26804  0.15642  1.0000
  C   C207      1.0  0.16480  0.31758  0.41307  1.0000
  C   C208      1.0  0.07997  0.29024  0.06356  1.0000
  H   H190      1.0  0.26233  0.48254  0.09235  1.0000
  C   C209      1.0  0.32912  0.25471  0.38895  1.0000
  H   H191      1.0  0.12745  0.31581  0.39979  1.0000
  C   C210      1.0  0.44195  0.41179  0.22242  1.0000
  H   H192      1.0  0.35884  0.28732  0.41781  1.0000
  C   C211      1.0  0.21667  0.45279  0.40018  1.0000
  Fe  Fe37      1.0  0.11965  0.44450  0.00054  1.0000
  H   H193      1.0  0.16729  0.25746  0.30431  1.0000
  C   C212      1.0  0.23514  0.25783  0.13699  1.0000
  C   C213      1.0  0.48852  0.38508  0.10292  1.0000
  H   H194      1.0  0.20201  0.44899  0.38172  1.0000
  H   H195      1.0  0.07969  0.32654  0.07843  1.0000
  C   C214      1.0  0.25414  0.46154  0.44704  1.0000
  C   C215      1.0  0.25935  0.45684  0.41627  1.0000
  H   H196      1.0  0.43191  0.44487  0.16186  1.0000
  C   C216      1.0  0.26591  0.30197  0.11411  1.0000
  H   H197      1.0  0.29977  0.28630  0.42715  1.0000
  N   N18       1.0  0.23935  0.35295  0.18691  1.0000
  C   C217      1.0  0.24761  0.36560  0.21549  1.0000
  C   C218      1.0  0.25272  0.34110  0.17319  1.0000
  C   C219      1.0  0.26929  0.36589  0.23154  1.0000
  C   C220      1.0  0.27451  0.34106  0.18855  1.0000
  C   C221      1.0  0.28265  0.35336  0.21802  1.0000
  C   C222      1.0  0.21704  0.35347  0.17014  1.0000
  H   H198      1.0  0.23748  0.37561  0.22603  1.0000
  H   H199      1.0  0.24661  0.33166  0.15020  1.0000
  H   H200      1.0  0.27593  0.37604  0.25418  1.0000
  H   H201      1.0  0.28521  0.33179  0.17755  1.0000
  H   H202      1.0  0.29943  0.35340  0.23025  1.0000
  H   H203      1.0  0.22488  0.37279  0.15677  1.0000
  H   H204      1.0  0.20679  0.33613  0.15341  1.0000
  H   H205      1.0  0.07850  0.27387  0.15186  1.0000
  C   C223      1.0  0.46760  0.38767  0.22485  1.0000
  H   H206      1.0  0.32398  0.31641  0.31759  1.0000
  C   C224      1.0  0.25752  0.25723  0.14995  1.0000
  S   S75       1.0  0.15807  0.44375  0.00996  1.0000
  C   C225      1.0  0.24053  0.45239  0.39265  1.0000
  C   C226      1.0  0.06224  0.45594  0.00565  1.0000
  C   C227      1.0  0.01987  0.45079  0.07574  1.0000
  H   H207      1.0  0.08655  0.25814  0.02559  1.0000
  H   H208      1.0  0.26583  0.46750  0.02916  1.0000
  H   H209      1.0  0.34237  0.25544  0.10881  1.0000
  H   H210      1.0  0.22205  0.28095  0.10939  1.0000
  H   H211      1.0  0.17853  0.25117  0.25008  1.0000
  H   H212      1.0  0.30113  0.48442  0.04089  1.0000
  H   H213      1.0  0.19024  0.47887  0.43476  1.0000
  C   C228      1.0  0.18250  0.32124  0.43774  1.0000
  H   H214      1.0  0.15279  0.49149  0.46742  1.0000
  H   H215      1.0  0.09301  0.30330  0.46002  1.0000
  C   C229      1.0  0.07913  0.26107  0.10411  1.0000
  H   H216      1.0  0.10460  0.33244  0.43428  1.0000
  H   H217      1.0  0.31807  0.27240  0.07582  1.0000
  H   H218      1.0  0.20134  0.32119  0.43317  1.0000
  C   C230      1.0  0.48846  0.27973  0.43293  1.0000
  C   C231      1.0  0.05430  0.46047  0.03519  1.0000
  H   H219      1.0  0.29309  0.26286  0.33070  1.0000
  C   C232      1.0  0.30772  0.26836  0.34960  1.0000
  H   H220      1.0  0.22584  0.46483  0.47787  1.0000
  H   H221      1.0  0.46660  0.25743  0.06885  1.0000
  C   C233      1.0  0.23460  0.49457  0.07365  1.0000
  C   C234      1.0  0.26049  0.49889  0.08181  1.0000
  H   H222      1.0  0.20915  0.39683  0.48217  1.0000
  H   H223      1.0  0.05531  0.31435  0.48288  1.0000
  Fe  Fe38      1.0  0.31013  0.44302  0.86794  1.0000
  S   S76       1.0  0.32943  0.45239  0.91633  1.0000
  Fe  Fe39      1.0  0.25900  0.40465  0.83052  1.0000
  S   S77       1.0  0.27554  0.42820  0.78558  1.0000
  S   S78       1.0  0.21904  0.36519  0.83634  1.0000
  Fe  Fe40      1.0  0.31420  0.42868  0.79937  1.0000
  S   S79       1.0  0.33850  0.42049  0.76253  1.0000
  Fe  Fe41      1.0  0.29010  0.46541  0.81635  1.0000
  S   S80       1.0  0.29693  0.40340  0.84277  1.0000
  S   S81       1.0  0.27042  0.44166  0.86024  1.0000
  Fe  Fe42      1.0  0.08205  0.40709  0.52896  1.0000
  S   S82       1.0  0.07170  0.41073  0.57942  1.0000
  Fe  Fe43      1.0  0.40712  0.32646  0.74133  1.0000
  S   S83       1.0  0.38551  0.30050  0.69930  1.0000
  S   S84       1.0  0.38616  0.34050  0.77672  1.0000
  Fe  Fe44      1.0  0.45420  0.31430  0.73463  1.0000
  S   S85       1.0  0.43486  0.28645  0.69366  1.0000
  H   H224      1.0  0.35056  0.26561  0.75228  1.0000
  Fe  Fe45      1.0  0.42702  0.31908  0.67643  1.0000
  S   S86       1.0  0.43610  0.32909  0.62460  1.0000
  Fe  Fe46      1.0  0.39568  0.27050  0.72052  1.0000
  H   H225      1.0  0.27591  0.45465  0.96235  1.0000
  S   S87       1.0  0.44796  0.34801  0.71652  1.0000
  S   S88       1.0  0.41575  0.29535  0.76345  1.0000
  S   S89       1.0  0.14688  0.30138  0.71862  1.0000
  H   H226      1.0  0.23947  0.47444  0.78135  1.0000
  H   H227      1.0  0.18857  0.49825  0.98193  1.0000
  S   S90       1.0  0.08324  0.36981  0.51440  1.0000
  H   H228      1.0  0.45277  0.29558  0.58356  1.0000
  C   C235      1.0  0.08411  0.32687  0.76687  1.0000
  H   H229      1.0  0.04650  0.26929  0.71555  1.0000
  H   H230      1.0  0.38073  0.46478  0.81061  1.0000
  H   H231      1.0  0.41732  0.39260  0.81348  1.0000
  H   H232      1.0  0.04957  0.43101  0.96407  1.0000
  C   C236      1.0  0.03701  0.39565  0.58996  1.0000
  C   C237      1.0  0.02998  0.39483  0.62174  1.0000
  S   S91       1.0  0.33061  0.46839  0.82548  1.0000
  C   C238      1.0  0.47079  0.34669  0.61311  1.0000
  H   H233      1.0  0.47958  0.29984  0.53553  1.0000
  H   H234      1.0  0.02507  0.34150  0.64116  1.0000
  H   H235      1.0  0.04582  0.40331  0.63943  1.0000
  H   H236      1.0  0.23866  0.32223  0.82005  1.0000
  H   H237      1.0  0.46154  0.34572  0.56378  1.0000
  C   C239      1.0  0.19894  0.28592  0.74492  1.0000
  H   H238      1.0  0.02197  0.31256  0.79170  1.0000
  S   S92       1.0  0.49730  0.32493  0.74621  1.0000
  C   C240      1.0  0.02737  0.26800  0.72152  1.0000
  H   H239      1.0  0.10103  0.30031  0.77093  1.0000
  C   C241      1.0  0.34916  0.39604  0.76562  1.0000
  C   C242      1.0  0.36398  0.39327  0.74071  1.0000
  C   C243      1.0  0.37448  0.37546  0.74309  1.0000
  C   C244      1.0  0.37045  0.36042  0.77061  1.0000
  C   C245      1.0  0.35521  0.36282  0.79531  1.0000
  C   C246      1.0  0.34449  0.38042  0.79281  1.0000
  H   H240      1.0  0.36769  0.40526  0.71957  1.0000
  H   H241      1.0  0.38628  0.37393  0.72396  1.0000
  H   H242      1.0  0.35209  0.35136  0.81676  1.0000
  H   H243      1.0  0.33326  0.38242  0.81222  1.0000
  C   C247      1.0  0.19746  0.34909  0.80399  1.0000
  C   C248      1.0  0.17483  0.32294  0.80799  1.0000
  C   C249      1.0  0.15875  0.30832  0.78211  1.0000
  C   C250      1.0  0.16504  0.31993  0.75208  1.0000
  C   C251      1.0  0.18705  0.34648  0.74825  1.0000
  C   C252      1.0  0.20328  0.36102  0.77411  1.0000
  H   H244      1.0  0.17020  0.31364  0.83108  1.0000
  H   H245      1.0  0.14195  0.28788  0.78537  1.0000
  H   H246      1.0  0.19191  0.35565  0.72510  1.0000
  H   H247      1.0  0.22044  0.38128  0.77083  1.0000
  H   H248      1.0  0.41448  0.26472  0.61739  1.0000
  Fe  Fe47      1.0  0.11346  0.25746  0.72330  1.0000
  C   C253      1.0  0.38099  0.42308  0.86776  1.0000
  H   H249      1.0  0.17569  0.46393  0.93960  1.0000
  C   C254      1.0  0.22131  0.31241  0.74364  1.0000
  C   C255      1.0  0.20579  0.28533  0.80083  1.0000
  H   H250      1.0  0.14783  0.33072  0.49694  1.0000
  C   C256      1.0  0.01719  0.32708  0.58172  1.0000
  H   H251      1.0  0.10179  0.34240  0.75432  1.0000
  C   C257      1.0  0.00252  0.38280  0.63092  1.0000
  H   H252      1.0  0.03991  0.30839  0.70477  1.0000
  N   N19       1.0  0.03976  0.45522  0.54575  1.0000
  C   C258      1.0  0.02363  0.29022  0.71553  1.0000
  C   C259      1.0  0.06265  0.35487  0.76155  1.0000
  C   C260      1.0  0.49332  0.26986  0.67883  1.0000
  H   H253      1.0  0.18525  0.47899  0.88371  1.0000
  C   C261      1.0  0.44356  0.28060  0.56499  1.0000
  H   H254      1.0  0.22677  0.32302  0.72125  1.0000
  C   C262      1.0  0.00403  0.32431  0.63731  1.0000
  C   C263      1.0  0.37543  0.44168  0.85297  1.0000
  H   H255      1.0  0.04596  0.35720  0.77214  1.0000
  H   H256      1.0  0.48672  0.35104  0.66002  1.0000
  H   H257      1.0  0.40815  0.44806  0.78390  1.0000
  C   C264      1.0  0.03929  0.45957  0.51414  1.0000
  H   H258      1.0  0.18712  0.27640  0.72389  1.0000
  C   C265      1.0  0.06342  0.47152  0.49651  1.0000
  C   C266      1.0  0.01429  0.44340  0.56385  1.0000
  C   C267      1.0  0.47757  0.35194  0.58106  1.0000
  C   C268      1.0  0.34759  0.48665  0.92905  1.0000
  H   H259      1.0  0.28705  0.48187  0.91360  1.0000
  C   C269      1.0  0.19115  0.27233  0.77373  1.0000
  C   C270      1.0  0.06392  0.46278  0.56059  1.0000
  C   C271      1.0  0.01640  0.38486  0.56729  1.0000
  H   H260      1.0  0.12555  0.48133  0.89073  1.0000
  H   H261      1.0  0.20351  0.48624  0.77052  1.0000
  N   N20       1.0  0.40626  0.42291  0.82229  1.0000
  C   C272      1.0  0.01078  0.32290  0.54965  1.0000
  N   N21       1.0  0.41731  0.25962  0.56800  1.0000
  C   C273      1.0  0.45880  0.28307  0.53795  1.0000
  C   C274      1.0  0.22797  0.31189  0.79872  1.0000
  H   H262      1.0  0.45851  0.26553  0.49285  1.0000
  C   C275      1.0  0.40148  0.25832  0.59597  1.0000
  H   H263      1.0  0.02664  0.32860  0.53211  1.0000
  H   H264      1.0  0.06438  0.45909  0.58557  1.0000
  H   H265      1.0  0.44512  0.42751  0.81280  1.0000
  C   C276      1.0  0.38545  0.45083  0.82273  1.0000
  H   H266      1.0  0.08228  0.37340  0.76742  1.0000
  N   N22       1.0  0.23530  0.32515  0.77040  1.0000
  C   C277      1.0  0.18598  0.48545  0.93382  1.0000
  S   S93       1.0  0.12182  0.43610  0.50537  1.0000
  H   H267      1.0  0.27801  0.35240  0.76653  1.0000
  C   C278      1.0  0.03000  0.27068  0.48675  1.0000
  N   N23       1.0  0.06231  0.33033  0.77299  1.0000
  H   H268      1.0  0.37309  0.41579  0.89122  1.0000
  C   C279      1.0  0.33862  0.26775  0.77170  1.0000
  H   H269      1.0  0.02055  0.27022  0.80885  1.0000
  C   C280      1.0  0.08381  0.30309  0.77623  1.0000
  C   C281      1.0  0.13224  0.49699  0.90857  1.0000
  H   H270      1.0  0.25707  0.36435  0.74846  1.0000
  H   H271      1.0  0.03837  0.33634  0.58877  1.0000
  S   S94       1.0  0.15851  0.39519  0.48963  1.0000
  S   S95       1.0  0.11214  0.45477  0.95132  1.0000
  S   S96       1.0  0.05681  0.40637  0.48833  1.0000
  H   H272      1.0  0.25979  0.36465  0.79016  1.0000
  H   H273      1.0  0.02150  0.38530  0.54273  1.0000
  H   H274      1.0  0.06002  0.26384  0.79851  1.0000
  C   C282      1.0  0.40100  0.44127  0.80769  1.0000
  C   C283      1.0  0.03976  0.31041  0.78812  1.0000
  C   C284      1.0  0.44696  0.26391  0.51392  1.0000
  H   H275      1.0  0.46409  0.27054  0.77126  1.0000
  C   C285      1.0  0.39666  0.41394  0.85204  1.0000
  C   C286      1.0  0.42340  0.41383  0.80661  1.0000
  C   C287      1.0  0.49166  0.35489  0.63526  1.0000
  H   H276      1.0  0.40088  0.39944  0.86365  1.0000
  C   C288      1.0  0.25874  0.35291  0.76874  1.0000
  H   H277      1.0  0.35182  0.27377  0.79291  1.0000
  C   C289      1.0  0.12789  0.48960  0.94050  1.0000
  H   H278      1.0  0.47558  0.26249  0.69400  1.0000
  H   H279      1.0  0.34668  0.47575  0.97778  1.0000
  H   H280      1.0  0.17343  0.25201  0.77517  1.0000
  H   H281      1.0  0.36323  0.44884  0.86491  1.0000
  C   C290      1.0  0.06095  0.28274  0.79181  1.0000
  H   H282      1.0  0.05966  0.35359  0.73564  1.0000
  C   C291      1.0  0.03879  0.28639  0.79785  1.0000
  H   H283      1.0  0.42116  0.41361  0.78060  1.0000
  C   C292      1.0  0.48370  0.27321  0.76447  1.0000
  H   H284      1.0  0.33452  0.28443  0.76578  1.0000
  C   C293      1.0  0.28621  0.47669  0.96402  1.0000
  H   H285      1.0  0.00824  0.45897  0.56795  1.0000
  C   C294      1.0  0.24118  0.49286  0.79107  1.0000
  H   H286      1.0  0.01633  0.43553  0.58706  1.0000
  C   C295      1.0  0.29230  0.49195  0.93631  1.0000
  H   H287      1.0  0.10732  0.47946  0.55528  1.0000
  C   C296      1.0  0.08807  0.47893  0.51138  1.0000
  Fe  Fe48      1.0  0.12045  0.39838  0.48652  1.0000
  H   H288      1.0  0.39326  0.27233  0.59306  1.0000
  C   C297      1.0  0.08837  0.47444  0.54359  1.0000
  H   H289      1.0  0.19950  0.27521  0.82347  1.0000
  H   H290      1.0  0.10684  0.48779  0.49781  1.0000
  C   C298      1.0  0.35324  0.49236  0.96121  1.0000
  H   H291      1.0  0.49552  0.30856  0.67093  1.0000
  H   H292      1.0  0.02018  0.45358  0.50232  1.0000
  H   H293      1.0  0.04634  0.26776  0.49521  1.0000
  C   C299      1.0  0.48991  0.25263  0.77072  1.0000
  C   C300      1.0  0.19121  0.49388  0.90248  1.0000
  H   H294      1.0  0.00213  0.30547  0.64763  1.0000
  C   C301      1.0  0.22091  0.49967  0.78479  1.0000
  H   H295      1.0  0.00154  0.40257  0.98278  1.0000
  H   H296      1.0  0.18997  0.32886  0.48742  1.0000
  Fe  Fe49      1.0  0.38749  0.62706  0.05729  1.0000
  S   S97       1.0  0.38280  0.60291  0.10093  1.0000
  S   S98       1.0  0.39389  0.66968  0.05645  1.0000
  Fe  Fe50      1.0  0.39040  0.58532  0.01432  1.0000
  S   S99       1.0  0.38725  0.55878  0.05479  1.0000
  H   H297      1.0  0.45965  0.59085  0.46251  1.0000
  Fe  Fe51      1.0  0.35426  0.56666  0.07157  1.0000
  S   S100      1.0  0.31596  0.52893  0.08720  1.0000
  Fe  Fe52      1.0  0.41623  0.59757  0.07984  1.0000
  S   S101      1.0  0.45024  0.60143  0.11125  1.0000
  S   S102      1.0  0.35590  0.59134  0.02958  1.0000
  S   S103      1.0  0.42247  0.62361  0.03766  1.0000
  C   C302      1.0  0.45052  0.57669  0.01192  1.0000
  N   N24       1.0  0.46130  0.66990  0.14053  1.0000
  Fe  Fe53      1.0  0.11245  0.72572  0.14416  1.0000
  H   H298      1.0  0.14107  0.62874  0.34009  1.0000
  S   S104      1.0  0.07378  0.71763  0.11823  1.0000
  H   H299      1.0  0.45100  0.70088  0.07839  1.0000
  C   C303      1.0  0.32908  0.67300  0.46248  1.0000
  C   C304      1.0  0.15330  0.50657  0.45150  1.0000
  Fe  Fe54      1.0  0.14568  0.73030  0.20370  1.0000
  S   S105      1.0  0.14945  0.71991  0.25412  1.0000
  C   C305      1.0  0.31078  0.60651  0.44829  1.0000
  S   S106      1.0  0.13286  0.70259  0.16163  1.0000
  H   H300      1.0  0.31300  0.52721  0.01728  1.0000
  Fe  Fe55      1.0  0.22064  0.67907  0.39511  1.0000
  S   S107      1.0  0.24688  0.69005  0.35206  1.0000
  S   S108      1.0  0.20704  0.70896  0.40803  1.0000
  Fe  Fe56      1.0  0.21435  0.62199  0.39971  1.0000
  S   S109      1.0  0.23868  0.62877  0.35536  1.0000
  S   S110      1.0  0.20612  0.58606  0.43104  1.0000
  Fe  Fe57      1.0  0.26714  0.66973  0.37613  1.0000
  S   S111      1.0  0.31253  0.68584  0.37319  1.0000
  Fe  Fe58      1.0  0.21570  0.64841  0.33597  1.0000
  S   S112      1.0  0.19823  0.64378  0.28699  1.0000
  S   S113      1.0  0.24388  0.66274  0.42107  1.0000
  S   S114      1.0  0.18854  0.63770  0.37836  1.0000
  H   H301      1.0  0.43985  0.65450  0.18347  1.0000
  C   C306      1.0  0.48124  0.58401  0.05484  1.0000
  H   H302      1.0  0.43972  0.55104  0.05321  1.0000
  C   C307      1.0  0.02104  0.68777  0.09718  1.0000
  H   H303      1.0  0.19308  0.53820  0.46644  1.0000
  S   S115      1.0  0.41313  0.59324  0.41626  1.0000
  C   C308      1.0  0.49016  0.71314  0.09937  1.0000
  H   H304      1.0  0.40197  0.50588  0.46480  1.0000
  S   S116      1.0  0.42603  0.66500  0.43961  1.0000
  C   C309      1.0  0.36448  0.51212  0.40099  1.0000
  C   C310      1.0  0.29715  0.62342  0.08638  1.0000
  C   C311      1.0  0.13207  0.51975  0.41127  1.0000
  C   C312      1.0  0.15494  0.54622  0.41055  1.0000
  C   C313      1.0  0.17703  0.55301  0.43047  1.0000
  C   C314      1.0  0.44017  0.54536  0.42885  1.0000
  C   C315      1.0  0.23202  0.51585  0.06090  1.0000
  C   C316      1.0  0.35468  0.52130  0.45352  1.0000
  H   H305      1.0  0.15542  0.56137  0.39473  1.0000
  C   C317      1.0  0.32866  0.68208  0.40669  1.0000
  C   C318      1.0  0.31650  0.67729  0.43642  1.0000
  N   N25       1.0  0.25530  0.71417  0.22743  1.0000
  H   H306      1.0  0.49762  0.61850  0.14986  1.0000
  C   C319      1.0  0.36641  0.67891  0.42944  1.0000
  C   C320      1.0  0.35391  0.68339  0.40339  1.0000
  H   H307      1.0  0.29739  0.67681  0.43947  1.0000
  H   H308      1.0  0.28004  0.63740  0.12192  1.0000
  H   H309      1.0  0.38566  0.67964  0.42653  1.0000
  H   H310      1.0  0.36359  0.68735  0.38052  1.0000
  C   C321      1.0  0.16559  0.70066  0.26091  1.0000
  C   C322      1.0  0.18086  0.70518  0.28844  1.0000
  C   C323      1.0  0.19119  0.68805  0.29644  1.0000
  C   C324      1.0  0.18605  0.66602  0.27713  1.0000
  C   C325      1.0  0.17096  0.66161  0.24942  1.0000
  C   C326      1.0  0.16107  0.67910  0.24109  1.0000
  H   H311      1.0  0.18435  0.72173  0.30399  1.0000
  H   H312      1.0  0.20258  0.69159  0.31797  1.0000
  H   H313      1.0  0.16682  0.64456  0.23438  1.0000
  H   H314      1.0  0.14912  0.67528  0.21992  1.0000
  H   H315      1.0  0.31791  0.61584  0.04856  1.0000
  H   H316      1.0  0.20986  0.72538  0.18843  1.0000
  C   C327      1.0  0.38749  0.55879  0.42118  1.0000
  C   C328      1.0  0.38276  0.54016  0.39682  1.0000
  H   H317      1.0  0.11224  0.62599  0.29521  1.0000
  C   C329      1.0  0.23146  0.70884  0.21334  1.0000
  C   C330      1.0  0.32698  0.65749  0.04915  1.0000
  H   H318      1.0  0.39380  0.54735  0.37486  1.0000
  H   H319      1.0  0.25208  0.72558  0.12101  1.0000
  H   H320      1.0  0.45861  0.63820  0.16999  1.0000
  C   C331      1.0  0.22883  0.72979  0.19968  1.0000
  H   H321      1.0  0.48518  0.57850  0.07790  1.0000
  C   C332      1.0  0.04185  0.68714  0.11450  1.0000
  C   C333      1.0  0.03668  0.66258  0.12815  1.0000
  C   C334      1.0  0.32273  0.67673  0.06486  1.0000
  H   H322      1.0  0.42769  0.63051  0.15108  1.0000
  H   H323      1.0  0.27088  0.61686  0.44298  1.0000
  H   H324      1.0  0.05250  0.66177  0.14145  1.0000
  H   H325      1.0  0.47654  0.64554  0.06571  1.0000
  C   C335      1.0  0.14539  0.66643  0.35748  1.0000
  C   C336      1.0  0.25546  0.54124  0.05563  1.0000
  C   C337      1.0  0.28137  0.54541  0.06329  1.0000
  C   C338      1.0  0.28389  0.52430  0.07671  1.0000
  C   C339      1.0  0.09534  0.66050  0.28021  1.0000
  H   H326      1.0  0.21432  0.68828  0.21241  1.0000
  H   H327      1.0  0.25348  0.55775  0.04585  1.0000
  H   H328      1.0  0.29930  0.56502  0.05943  1.0000
  H   H329      1.0  0.00713  0.62006  0.13514  1.0000
  C   C340      1.0  0.38449  0.68357  0.08792  1.0000
  C   C341      1.0  0.36874  0.66760  0.11318  1.0000
  C   C342      1.0  0.35974  0.67903  0.13641  1.0000
  C   C343      1.0  0.36675  0.70651  0.13473  1.0000
  C   C344      1.0  0.38305  0.72257  0.10988  1.0000
  C   C345      1.0  0.39176  0.71109  0.08651  1.0000
  H   H330      1.0  0.36286  0.64631  0.11438  1.0000
  H   H331      1.0  0.34711  0.66649  0.15559  1.0000
  H   H332      1.0  0.33323  0.69762  0.05657  1.0000
  H   H333      1.0  0.04187  0.74669  0.40520  1.0000
  H   H334      1.0  0.30050  0.73375  0.39882  1.0000
  H   H335      1.0  0.28318  0.68925  0.09703  1.0000
  C   C346      1.0  0.35389  0.67342  0.45903  1.0000
  C   C347      1.0  0.31424  0.63074  0.06015  1.0000
  H   H336      1.0  0.26040  0.73147  0.43578  1.0000
  H   H337      1.0  0.31942  0.71070  0.10379  1.0000
  C   C348      1.0  0.35068  0.50255  0.42957  1.0000
  C   C349      1.0  0.37301  0.54931  0.44938  1.0000
  C   C350      1.0  0.25720  0.74665  0.12248  1.0000
  C   C351      1.0  0.27603  0.61165  0.41968  1.0000
  H   H338      1.0  0.14736  0.70448  0.36776  1.0000
  C   C352      1.0  0.44769  0.67538  0.11775  1.0000
  H   H339      1.0  0.37647  0.56339  0.46833  1.0000
  H   H340      1.0  0.09452  0.67948  0.27660  1.0000
  H   H341      1.0  0.28711  0.60262  0.09509  1.0000
  N   N26       1.0  0.30630  0.66952  0.09089  1.0000
  H   H342      1.0  0.25345  0.69297  0.26923  1.0000
  C   C353      1.0  0.23402  0.74269  0.41201  1.0000
  H   H343      1.0  0.19645  0.54299  0.99541  1.0000
  H   H344      1.0  0.30897  0.61907  0.37138  1.0000
  H   H345      1.0  0.11500  0.51470  0.39589  1.0000
  C   C354      1.0  0.12261  0.68477  0.32670  1.0000
  H   H346      1.0  0.46126  0.73692  0.45740  1.0000
  H   H347      1.0  0.27737  0.69418  0.23987  1.0000
  H   H348      1.0  0.24144  0.67185  0.23491  1.0000
  C   C355      1.0  0.48892  0.68607  0.14376  1.0000
  H   H349      1.0  0.42404  0.52688  0.41682  1.0000
  C   C356      1.0  0.48374  0.62939  0.10805  1.0000
  S   S117      1.0  0.46478  0.64706  0.47773  1.0000
  H   H350      1.0  0.43046  0.56482  0.00145  1.0000
  N   N27       1.0  0.11293  0.66293  0.30673  1.0000
  Fe  Fe59      1.0  0.17137  0.73666  0.14043  1.0000
  H   H351      1.0  0.29912  0.68606  0.13251  1.0000
  C   C357      1.0  0.13556  0.64434  0.33690  1.0000
  H   H352      1.0  0.15840  0.66809  0.37704  1.0000
  S   S118      1.0  0.35342  0.71982  0.16266  1.0000
  C   C358      1.0  0.30705  0.51718  0.99459  1.0000
  C   C359      1.0  0.31601  0.61490  0.39328  1.0000
  C   C360      1.0  0.11929  0.64292  0.31148  1.0000
  H   H353      1.0  0.44389  0.56305  0.41400  1.0000
  C   C361      1.0  0.30164  0.68981  0.10670  1.0000
  H   H354      1.0  0.34089  0.73825  0.34561  1.0000
  H   H355      1.0  0.07432  0.64340  0.28426  1.0000
  H   H356      1.0  0.10352  0.65694  0.25802  1.0000
  C   C362      1.0  0.29328  0.64319  0.10148  1.0000
  C   C363      1.0  0.25709  0.69230  0.24359  1.0000
  C   C364      1.0  0.17611  0.53305  0.45088  1.0000
  S   S119      1.0  0.20215  0.72687  0.11981  1.0000
  H   H357      1.0  0.42572  0.66296  0.11551  1.0000
  H   H358      1.0  0.35167  0.61703  0.37181  1.0000
  C   C365      1.0  0.13902  0.68687  0.35234  1.0000
  C   C366      1.0  0.25824  0.74810  0.42673  1.0000
  H   H359      1.0  0.33530  0.74117  0.40115  1.0000
  H   H360      1.0  0.36844  0.60838  0.42201  1.0000
  C   C367      1.0  0.49539  0.61486  0.01070  1.0000
  Fe  Fe60      1.0  0.42406  0.62577  0.45351  1.0000
  H   H361      1.0  0.11838  0.70112  0.32234  1.0000
  H   H362      1.0  0.13318  0.50486  0.98788  1.0000
  H   H363      1.0  0.40390  0.72356  0.06701  1.0000
  N   N28       1.0  0.30175  0.61139  0.42057  1.0000
  H   H364      1.0  0.37094  0.52348  0.99697  1.0000
  C   C368      1.0  0.34959  0.60899  0.42155  1.0000
  C   C369      1.0  0.33485  0.60536  0.44922  1.0000
  H   H365      1.0  0.02485  0.70665  0.08648  1.0000
  C   C370      1.0  0.49131  0.64799  0.08328  1.0000
  C   C371      1.0  0.01093  0.63896  0.12451  1.0000
  C   C372      1.0  0.46190  0.69695  0.09672  1.0000
  H   H366      1.0  0.34084  0.66352  0.02923  1.0000
  H   H367      1.0  0.34240  0.60242  0.47144  1.0000
  S   S120      1.0  0.19990  0.51176  0.05195  1.0000
  C   C373      1.0  0.34016  0.61382  0.39336  1.0000
  N   N29       1.0  0.43170  0.54810  0.46063  1.0000
  H   H368      1.0  0.29977  0.60420  0.47003  1.0000
  C   C374      1.0  0.44610  0.64729  0.16248  1.0000
  C   C375      1.0  0.45566  0.56865  0.04101  1.0000
  N   N30       1.0  0.47036  0.59941  0.99704  1.0000
  H   H369      1.0  0.45910  0.54417  0.42998  1.0000
  H   H370      1.0  0.34404  0.51402  0.47569  1.0000
  Fe  Fe61      1.0  0.46424  0.68571  0.46864  1.0000
  H   H371      1.0  0.38865  0.74377  0.10839  1.0000
  H   H372      1.0  0.25907  0.59138  0.41246  1.0000
  H   H373      1.0  0.27733  0.62721  0.40285  1.0000
  C   C376      1.0  0.32214  0.75028  0.39730  1.0000
  H   H374      1.0  0.29610  0.74435  0.23885  1.0000
  C   C377      1.0  0.27712  0.74012  0.22788  1.0000
  H   H375      1.0  0.49978  0.68171  0.16171  1.0000
  S   S121      1.0  0.12183  0.75024  0.18878  1.0000
  C   C378      1.0  0.44423  0.57306  0.47496  1.0000
  H   H376      1.0  0.23195  0.55816  0.98493  1.0000
  C   C379      1.0  0.41216  0.52566  0.47624  1.0000
  H   H377      1.0  0.37728  0.55190  0.90198  1.0000
  H   H378      1.0  0.20703  0.52820  0.87094  1.0000
  Fe  Fe62      1.0  0.20250  0.57224  0.80421  1.0000
  S   S122      1.0  0.22507  0.58794  0.84935  1.0000
  S   S123      1.0  0.19995  0.53413  0.78366  1.0000
  Fe  Fe63      1.0  0.18913  0.61899  0.79998  1.0000
  S   S124      1.0  0.21053  0.63662  0.84591  1.0000
  S   S125      1.0  0.18092  0.64670  0.76817  1.0000
  Fe  Fe64      1.0  0.24317  0.62915  0.82702  1.0000
  S   S126      1.0  0.28836  0.65917  0.83136  1.0000
  Fe  Fe65      1.0  0.18986  0.59312  0.86308  1.0000
  S   S127      1.0  0.17406  0.58005  0.91276  1.0000
  S   S128      1.0  0.22299  0.61313  0.78067  1.0000
  S   S129      1.0  0.16595  0.57567  0.81853  1.0000
  Fe  Fe66      1.0  0.44123  0.64467  0.52114  1.0000
  S   S130      1.0  0.45269  0.63511  0.56837  1.0000
  Fe  Fe67      1.0  0.07035  0.73159  0.68392  1.0000
  S   S131      1.0  0.04450  0.70381  0.72253  1.0000
  S   S132      1.0  0.05972  0.72687  0.63204  1.0000
  H   H379      1.0  0.36893  0.73419  0.78120  1.0000
  C   C380      1.0  0.13249  0.67638  0.66564  1.0000
  Fe  Fe68      1.0  0.08352  0.70847  0.74242  1.0000
  S   S133      1.0  0.08228  0.67023  0.76132  1.0000
  H   H380      1.0  0.44692  0.59590  0.51697  1.0000
  C   C381      1.0  0.46208  0.68499  0.63114  1.0000
  C   C382      1.0  0.46917  0.69970  0.60296  1.0000
  H   H381      1.0  0.10812  0.69321  0.64958  1.0000
  C   C383      1.0  0.48725  0.65659  0.57866  1.0000
  C   C384      1.0  0.31367  0.53306  0.96731  1.0000
  C   C385      1.0  0.02015  0.70585  0.58659  1.0000
  C   C386      1.0  0.02586  0.70607  0.61877  1.0000
  H   H382      1.0  0.31937  0.66900  0.48535  1.0000
  H   H383      1.0  0.05036  0.65648  0.69997  1.0000
  H   H384      1.0  0.44235  0.66659  0.63285  1.0000
  H   H385      1.0  0.03643  0.71840  0.57042  1.0000
  H   H386      1.0  0.49888  0.67739  0.53406  1.0000
  H   H387      1.0  0.48228  0.64015  0.62548  1.0000
  S   S134      1.0  0.44279  0.68441  0.51342  1.0000
  S   S135      1.0  0.40032  0.61994  0.49787  1.0000
  H   H388      1.0  0.23018  0.68415  0.80170  1.0000
  C   C387      1.0  0.30613  0.68040  0.79921  1.0000
  C   C388      1.0  0.33336  0.70100  0.80310  1.0000
  C   C389      1.0  0.34798  0.71837  0.77796  1.0000
  C   C390      1.0  0.33553  0.71494  0.74863  1.0000
  C   C391      1.0  0.30842  0.69415  0.74467  1.0000
  C   C392      1.0  0.29369  0.67713  0.76993  1.0000
  H   H389      1.0  0.34316  0.70366  0.82569  1.0000
  H   H390      1.0  0.47296  0.71785  0.75710  1.0000
  H   H391      1.0  0.27267  0.66166  0.76666  1.0000
  C   C393      1.0  0.15427  0.65453  0.77037  1.0000
  C   C394      1.0  0.15806  0.67853  0.75601  1.0000
  C   C395      1.0  0.13663  0.68435  0.75446  1.0000
  C   C396      1.0  0.11096  0.66590  0.76675  1.0000
  C   C397      1.0  0.10729  0.64211  0.78154  1.0000
  C   C398      1.0  0.12886  0.63653  0.78359  1.0000
  H   H392      1.0  0.17759  0.69258  0.74566  1.0000
  H   H393      1.0  0.13975  0.70270  0.74296  1.0000
  H   H394      1.0  0.08752  0.62769  0.79110  1.0000
  H   H395      1.0  0.12558  0.61792  0.79455  1.0000
  C   C399      1.0  0.13292  0.65596  0.68348  1.0000
  H   H396      1.0  0.28347  0.74389  0.73492  1.0000
  C   C400      1.0  0.14943  0.53760  0.95427  1.0000
  C   C401      1.0  0.15478  0.54506  0.92248  1.0000
  C   C402      1.0  0.14595  0.52464  0.89957  1.0000
  C   C403      1.0  0.35619  0.50826  0.90780  1.0000
  C   C404      1.0  0.27097  0.71201  0.81771  1.0000
  S   S136      1.0  0.36788  0.66584  0.49188  1.0000
  H   H397      1.0  0.14983  0.53013  0.87495  1.0000
  C   C405      1.0  0.22363  0.52428  0.79575  1.0000
  C   C406      1.0  0.28911  0.55958  0.75020  1.0000
  C   C407      1.0  0.05995  0.65934  0.67636  1.0000
  C   C408      1.0  0.30623  0.52030  0.93801  1.0000
  C   C409      1.0  0.26651  0.53478  0.82026  1.0000
  C   C410      1.0  0.24626  0.54150  0.81411  1.0000
  H   H398      1.0  0.21052  0.57000  0.96727  1.0000
  H   H399      1.0  0.28452  0.54885  0.83326  1.0000
  H   H400      1.0  0.24903  0.56072  0.82210  1.0000
  C   C411      1.0  0.37578  0.54101  0.95083  1.0000
  S   S137      1.0  0.39340  0.57529  0.96352  1.0000
  H   H401      1.0  0.21865  0.56178  0.91393  1.0000
  H   H402      1.0  0.06362  0.67926  0.66715  1.0000
  H   H403      1.0  0.38829  0.51026  0.51874  1.0000
  C   C412      1.0  0.37054  0.53532  0.91863  1.0000
  H   H404      1.0  0.29182  0.54230  0.74517  1.0000
  H   H405      1.0  0.15089  0.69174  0.65408  1.0000
  C   C413      1.0  0.41680  0.55343  0.52149  1.0000
  C   C414      1.0  0.48707  0.73805  0.74841  1.0000
  H   H406      1.0  0.26780  0.70269  0.84079  1.0000
  C   C415      1.0  0.43700  0.57609  0.50560  1.0000
  H   H407      1.0  0.31093  0.62102  0.82228  1.0000
  C   C416      1.0  0.21135  0.55185  0.97568  1.0000
  C   C417      1.0  0.36699  0.51942  0.97213  1.0000
  H   H408      1.0  0.29865  0.69144  0.72205  1.0000
  H   H409      1.0  0.35192  0.50417  0.88300  1.0000
  Fe  Fe69      1.0  0.05529  0.74236  0.74841  1.0000
  C   C418      1.0  0.25443  0.71293  0.76579  1.0000
  N   N31       1.0  0.30066  0.74530  0.77996  1.0000
  S   S138      1.0  0.10857  0.73318  0.70132  1.0000
  C   C419      1.0  0.49497  0.72267  0.59978  1.0000
  C   C420      1.0  0.26641  0.56020  0.73869  1.0000
  H   H410      1.0  0.31264  0.74216  0.82662  1.0000
  S   S139      1.0  0.35292  0.73636  0.71652  1.0000
  H   H411      1.0  0.25135  0.54347  0.72459  1.0000
  C   C421      1.0  0.24993  0.70140  0.79570  1.0000
  H   H412      1.0  0.04550  0.64306  0.66033  1.0000
  H   H413      1.0  0.06750  0.62385  0.70923  1.0000
  N   N32       1.0  0.48023  0.69301  0.65551  1.0000
  H   H414      1.0  0.23808  0.70454  0.74860  1.0000
  H   H415      1.0  0.34024  0.62165  0.80464  1.0000
  H   H416      1.0  0.24418  0.58180  0.73893  1.0000
  C   C422      1.0  0.49631  0.65511  0.60894  1.0000
  C   C423      1.0  0.28006  0.73509  0.75828  1.0000
  N   N33       1.0  0.08528  0.65842  0.67885  1.0000
  C   C424      1.0  0.10827  0.67718  0.66335  1.0000
  C   C425      1.0  0.08548  0.63820  0.69615  1.0000
  C   C426      1.0  0.10925  0.63663  0.69868  1.0000
  H   H417      1.0  0.41088  0.55568  0.54513  1.0000
  H   H418      1.0  0.45288  0.61909  0.97188  1.0000
  C   C427      1.0  0.19305  0.50489  0.95763  1.0000
  H   H419      1.0  0.15171  0.65548  0.68631  1.0000
  S   S140      1.0  0.02152  0.74481  0.77388  1.0000
  C   C428      1.0  0.40426  0.52801  0.50678  1.0000
  H   H420      1.0  0.10967  0.62130  0.71356  1.0000
  H   H421      1.0  0.32823  0.64333  0.78961  1.0000
  N   N34       1.0  0.30320  0.60153  0.77788  1.0000
  C   C429      1.0  0.28106  0.60234  0.76659  1.0000
  C   C430      1.0  0.30736  0.58047  0.77003  1.0000
  H   H422      1.0  0.45511  0.69257  0.58329  1.0000
  C   C431      1.0  0.21006  0.54041  0.91972  1.0000
  C   C432      1.0  0.32165  0.62285  0.79967  1.0000
  H   H423      1.0  0.27753  0.61873  0.77347  1.0000
  H   H424      1.0  0.32427  0.57912  0.77988  1.0000
  C   C433      1.0  0.26233  0.58172  0.74685  1.0000
  S   S141      1.0  0.29316  0.50659  0.81020  1.0000
  C   C434      1.0  0.46410  0.60803  0.96722  1.0000
  N   N35       1.0  0.20445  0.53190  0.95035  1.0000
  C   C435      1.0  0.20349  0.52154  0.89531  1.0000
  C   C436      1.0  0.26439  0.51078  0.80818  1.0000
  H   H425      1.0  0.46818  0.68824  0.70339  1.0000
  C   C437      1.0  0.13647  0.51008  0.96328  1.0000
  H   H426      1.0  0.31188  0.53232  0.91657  1.0000
  H   H427      1.0  0.49020  0.67498  0.69322  1.0000
  H   H428      1.0  0.00878  0.68968  0.66427  1.0000
  H   H429      1.0  0.48283  0.62141  0.95350  1.0000
  H   H430      1.0  0.45097  0.59009  0.95220  1.0000
  H   H431      1.0  0.45512  0.65658  0.68180  1.0000
  C   C438      1.0  0.47291  0.67736  0.68487  1.0000
  C   C439      1.0  0.00467  0.68969  0.63945  1.0000
  H   H432      1.0  0.15594  0.55325  0.97210  1.0000
  C   C440      1.0  0.29632  0.73422  0.80947  1.0000
  S   S142      1.0  0.09204  0.74481  0.77208  1.0000
  H   H433      1.0  0.32515  0.55511  0.96881  1.0000
  Fe  Fe70      1.0  0.40440  0.66037  0.48543  1.0000
  Fe  Fe71      1.0  0.17393  0.98032  0.07179  1.0000
  S   S143      1.0  0.17271  0.95709  0.02875  1.0000
  Fe  Fe72      1.0  0.11305  0.94013  0.08689  1.0000
  S   S144      1.0  0.10792  0.91518  0.04371  1.0000
  S   S145      1.0  0.07923  0.93250  0.12174  1.0000
  Fe  Fe73      1.0  0.14822  0.91968  0.05806  1.0000
  S   S146      1.0  0.15521  0.88408  0.05119  1.0000
  C   C441      1.0  0.08897  0.80359  0.06159  1.0000
  C   C442      1.0  0.09095  0.82891  0.06590  1.0000
  S   S147      1.0  0.15248  0.94295  0.10264  1.0000
  Fe  Fe74      1.0  0.36965  0.76532  0.16121  1.0000
  S   S148      1.0  0.37440  0.78859  0.11681  1.0000
  Fe  Fe75      1.0  0.15984  0.78068  0.16384  1.0000
  Fe  Fe76      1.0  0.38884  0.81593  0.20226  1.0000
  S   S149      1.0  0.39672  0.84330  0.16067  1.0000
  S   S150      1.0  0.39157  0.82940  0.25300  1.0000
  Fe  Fe77      1.0  0.35620  0.80944  0.14408  1.0000
  S   S151      1.0  0.32549  0.82100  0.12808  1.0000
  Fe  Fe78      1.0  0.41470  0.82011  0.13744  1.0000
  S   S152      1.0  0.44906  0.83427  0.10137  1.0000
  S   S153      1.0  0.34756  0.78332  0.18667  1.0000
  S   S154      1.0  0.41060  0.79551  0.18080  1.0000
  Fe  Fe79      1.0  0.32066  0.89755  0.33962  1.0000
  S   S155      1.0  0.34323  0.89977  0.38363  1.0000
  S   S156      1.0  0.33524  0.89862  0.28971  1.0000
  Fe  Fe80      1.0  0.27198  0.89224  0.37615  1.0000
  S   S157      1.0  0.29041  0.89324  0.42325  1.0000
  S   S158      1.0  0.23206  0.89084  0.36698  1.0000
  Fe  Fe81      1.0  0.32886  0.92762  0.40252  1.0000
  S   S159      1.0  0.35787  0.96417  0.43236  1.0000
  Fe  Fe82      1.0  0.30298  0.86538  0.40034  1.0000
  S   S160      1.0  0.30438  0.83019  0.42325  1.0000
  S   S161      1.0  0.30965  0.92842  0.35674  1.0000
  S   S162      1.0  0.28126  0.86149  0.35495  1.0000
  S   S163      1.0  0.17175  0.82499  0.16887  1.0000
  Fe  Fe83      1.0  0.06595  0.86975  0.45633  1.0000
  C   C443      1.0  0.27678  0.85940  0.23714  1.0000
  S   S164      1.0  0.02881  0.83854  0.42994  1.0000
  Fe  Fe84      1.0  0.11213  0.92996  0.45673  1.0000
  N   N36       1.0  0.09143  0.79672  0.44913  1.0000
  S   S165      1.0  0.13598  0.96648  0.42417  1.0000
  H   H434      1.0  0.20027  0.84577  0.28750  1.0000
  H   H435      1.0  0.44367  0.86803  0.05209  1.0000
  S   S166      1.0  0.10729  0.89190  0.43394  1.0000
  C   C444      1.0  0.32547  0.79643  0.33242  1.0000
  C   C445      1.0  0.20271  0.94158  0.47044  1.0000
  H   H436      1.0  0.39556  0.83345  0.04260  1.0000
  H   H437      1.0  0.07990  0.83357  0.39511  1.0000
  H   H438      1.0  0.47714  0.90693  0.07738  1.0000
  H   H439      1.0  0.22330  0.83077  0.18657  1.0000
  C   C446      1.0  0.26368  0.94280  0.43435  1.0000
  C   C447      1.0  0.28462  0.76731  0.12512  1.0000
  H   H440      1.0  0.29283  0.78203  0.21370  1.0000
  H   H441      1.0  0.11353  0.77923  0.13667  1.0000
  C   C448      1.0  0.22188  0.84320  0.23431  1.0000
  H   H442      1.0  0.10884  0.83931  0.44128  1.0000
  H   H443      1.0  0.15855  0.83560  0.05650  1.0000
  C   C449      1.0  0.38663  0.87358  0.09497  1.0000
  C   C450      1.0  0.20940  0.88340  0.39878  1.0000
  C   C451      1.0  0.21383  0.87473  0.42782  1.0000
  C   C452      1.0  0.19626  0.87052  0.45328  1.0000
  C   C453      1.0  0.17432  0.87517  0.44993  1.0000
  C   C454      1.0  0.16962  0.88334  0.42071  1.0000
  C   C455      1.0  0.18701  0.88729  0.39519  1.0000
  H   H444      1.0  0.23077  0.87123  0.43072  1.0000
  C   C456      1.0  0.34085  0.76664  0.31232  1.0000
  H   H445      1.0  0.15288  0.88702  0.41774  1.0000
  H   H446      1.0  0.18343  0.89394  0.37276  1.0000
  C   C457      1.0  0.27658  0.79683  0.41943  1.0000
  C   C458      1.0  0.25248  0.79144  0.40436  1.0000
  C   C459      1.0  0.23105  0.76440  0.40111  1.0000
  C   C460      1.0  0.10843  0.80083  0.47683  1.0000
  C   C461      1.0  0.32171  0.78419  0.36195  1.0000
  C   C462      1.0  0.27919  0.77512  0.43103  1.0000
  H   H447      1.0  0.25021  0.80807  0.39559  1.0000
  H   H448      1.0  0.18554  0.87918  0.99852  1.0000
  C   C463      1.0  0.29130  0.79460  0.12640  1.0000
  C   C464      1.0  0.05703  0.76712  0.41250  1.0000
  H   H449      1.0  0.29752  0.77927  0.44339  1.0000
  C   C465      1.0  0.22282  0.85860  0.28873  1.0000
  C   C466      1.0  0.24302  0.78040  0.12412  1.0000
  C   C467      1.0  0.27047  0.80109  0.12588  1.0000
  C   C468      1.0  0.02359  0.79446  0.46366  1.0000
  H   H450      1.0  0.22705  0.78555  0.12360  1.0000
  H   H451      1.0  0.27556  0.82218  0.12666  1.0000
  C   C469      1.0  0.37656  0.84932  0.26284  1.0000
  C   C470      1.0  0.37438  0.85491  0.29459  1.0000
  C   C471      1.0  0.36133  0.86955  0.30318  1.0000
  C   C472      1.0  0.35117  0.87953  0.27995  1.0000
  C   C473      1.0  0.35388  0.87444  0.24817  1.0000
  C   C474      1.0  0.36607  0.85899  0.23966  1.0000
  H   H452      1.0  0.38264  0.84770  0.31266  1.0000
  H   H453      1.0  0.35960  0.87353  0.32772  1.0000
  H   H454      1.0  0.34658  0.88247  0.22997  1.0000
  H   H455      1.0  0.36766  0.85489  0.21513  1.0000
  C   C475      1.0  0.04440  0.90644  0.12016  1.0000
  C   C476      1.0  0.03376  0.88872  0.09451  1.0000
  H   H456      1.0  0.19993  0.86399  0.47576  1.0000
  C   C477      1.0  0.48294  0.86170  0.10358  1.0000
  C   C478      1.0  0.09516  0.84010  0.09601  1.0000
  C   C479      1.0  0.02674  0.90420  0.14478  1.0000
  H   H457      1.0  0.04706  0.89013  0.07543  1.0000
  C   C480      1.0  0.07830  0.81586  0.40690  1.0000
  H   H458      1.0  0.48001  0.87396  0.15068  1.0000
  H   H459      1.0  0.03474  0.91786  0.16470  1.0000
  C   C481      1.0  0.16095  0.86864  0.08405  1.0000
  C   C482      1.0  0.16444  0.87966  0.11427  1.0000
  C   C483      1.0  0.16810  0.86630  0.14006  1.0000
  C   C484      1.0  0.16798  0.84170  0.13587  1.0000
  C   C485      1.0  0.16456  0.83075  0.10562  1.0000
  C   C486      1.0  0.16121  0.84425  0.07980  1.0000
  H   H460      1.0  0.16441  0.89850  0.11782  1.0000
  H   H461      1.0  0.17087  0.87499  0.16337  1.0000
  H   H462      1.0  0.16480  0.81206  0.10197  1.0000
  S   S167      1.0  0.13502  0.97987  0.06082  1.0000
  H   H463      1.0  0.24918  0.77264  0.18923  1.0000
  H   H464      1.0  0.05154  0.94310  0.06992  1.0000
  N   N37       1.0  0.32732  0.76362  0.36651  1.0000
  C   C487      1.0  0.23635  0.75315  0.12208  1.0000
  H   H465      1.0  0.08997  0.84024  0.04587  1.0000
  S   S168      1.0  0.15023  0.75719  0.11880  1.0000
  C   C488      1.0  0.07719  0.98616  0.07599  1.0000
  C   C489      1.0  0.07307  0.77099  0.43909  1.0000
  H   H466      1.0  0.09021  0.77028  0.08416  1.0000
  C   C490      1.0  0.22236  0.91679  0.00867  1.0000
  N   N38       1.0  0.09639  0.80139  0.11686  1.0000
  H   H467      1.0  0.29834  0.86614  0.23855  1.0000
  C   C491      1.0  0.33505  0.78751  0.30749  1.0000
  H   H468      1.0  0.20044  0.83707  0.23264  1.0000
  C   C492      1.0  0.26337  0.86274  0.26295  1.0000
  Fe  Fe85      1.0  0.13321  0.95537  0.01896  1.0000
  H   H469      1.0  0.23476  0.99116  0.09139  1.0000
  C   C493      1.0  0.20622  0.89343  0.99098  1.0000
  N   N39       1.0  0.43422  0.89073  0.08479  1.0000
  C   C494      1.0  0.42776  0.87003  0.06386  1.0000
  C   C495      1.0  0.41408  0.89272  0.10022  1.0000
  C   C496      1.0  0.40053  0.85034  0.05838  1.0000
  C   C497      1.0  0.09156  0.78992  0.08756  1.0000
  C   C498      1.0  0.37988  0.85219  0.07404  1.0000
  C   C499      1.0  0.46280  0.91080  0.09134  1.0000
  N   N40       1.0  0.39673  0.99829  0.36400  1.0000
  H   H470      1.0  0.23940  0.95660  0.39020  1.0000
  C   C500      1.0  0.20616  0.95525  0.41615  1.0000
  H   H471      1.0  0.21227  0.76030  0.38987  1.0000
  H   H472      1.0  0.46286  0.78132  0.46155  1.0000
  H   H473      1.0  0.21422  0.92065  0.03002  1.0000
  H   H474      1.0  0.49033  0.76939  0.38630  1.0000
  S   S169      1.0  0.18464  0.76326  0.18313  1.0000
  H   H475      1.0  0.03665  0.80878  0.48117  1.0000
  C   C501      1.0  0.48105  0.78020  0.46600  1.0000
  C   C502      1.0  0.22938  0.95269  0.41293  1.0000
  H   H476      1.0  0.49244  0.85479  0.05648  1.0000
  H   H477      1.0  0.10208  0.83526  0.14456  1.0000
  C   C503      1.0  0.24885  0.93514  0.99866  1.0000
  H   H478      1.0  0.37240  0.95844  0.34437  1.0000
  H   H479      1.0  0.06868  0.93907  0.98699  1.0000
  S   S170      1.0  0.06874  0.90821  0.47475  1.0000
  H   H480      1.0  0.09742  0.86010  0.09944  1.0000
  H   H481      1.0  0.27253  0.84515  0.18927  1.0000
  N   N41       1.0  0.23617  0.85436  0.26146  1.0000
  C   C504      1.0  0.49307  0.87798  0.13040  1.0000
  H   H482      1.0  0.10889  0.80027  0.16419  1.0000
  H   H483      1.0  0.33837  0.79701  0.28453  1.0000
  H   H484      1.0  0.19827  0.96114  0.39628  1.0000
  C   C505      1.0  0.09962  0.78686  0.14340  1.0000
  C   C506      1.0  0.09430  0.81898  0.43329  1.0000
  H   H485      1.0  0.07960  0.76913  0.15007  1.0000
  C   C507      1.0  0.00572  0.86929  0.09337  1.0000
  C   C508      1.0  0.01410  0.76651  0.46769  1.0000
  H   H486      1.0  0.08982  0.98771  0.98657  1.0000
  H   H487      1.0  0.46733  0.90989  0.11660  1.0000
  H   H488      1.0  0.12584  0.99499  0.47536  1.0000
  H   H489      1.0  0.22831  0.88033  0.29017  1.0000
  H   H490      1.0  0.22933  0.85321  0.31097  1.0000
  H   H491      1.0  0.30059  0.76217  0.12546  1.0000
  H   H492      1.0  0.26153  0.95347  0.01215  1.0000
  C   C509      1.0  0.26232  0.84769  0.20955  1.0000
  H   H493      1.0  0.07397  0.98524  0.10128  1.0000
  N   N42       1.0  0.23888  0.94462  0.43787  1.0000
  H   H494      1.0  0.28195  0.96261  0.44033  1.0000
  C   C510      1.0  0.25091  0.75630  0.20013  1.0000
  H   H495      1.0  0.46697  0.93164  0.08563  1.0000
  H   H496      1.0  0.26583  0.93715  0.40988  1.0000
  C   C511      1.0  0.19279  0.94962  0.44511  1.0000
  C   C512      1.0  0.23470  0.83958  0.20805  1.0000
  H   H497      1.0  0.27493  0.87221  0.28415  1.0000
  H   H498      1.0  0.32128  0.81296  0.32909  1.0000
  C   C513      1.0  0.09790  0.82599  0.12141  1.0000
  H   H499      1.0  0.33254  0.99036  0.39763  1.0000
  C   C514      1.0  0.05960  0.78973  0.39645  1.0000
  H   H500      1.0  0.41918  0.90889  0.11715  1.0000
  H   H501      1.0  0.31451  0.79147  0.38121  1.0000
  H   H502      1.0  0.03588  0.93245  0.00155  1.0000
  H   H503      1.0  0.34889  0.76002  0.29320  1.0000
  H   H504      1.0  0.40878  0.97186  0.34338  1.0000
  C   C515      1.0  0.01637  0.80367  0.43681  1.0000
  C   C516      1.0  0.22601  0.93931  0.46643  1.0000
  H   H505      1.0  0.35865  0.83683  0.07044  1.0000
  H   H506      1.0  0.08596  0.79482  0.03825  1.0000
  H   H507      1.0  0.04654  0.78700  0.37653  1.0000
  C   C517      1.0  0.06478  0.96225  0.05816  1.0000
  H   H508      1.0  0.37063  0.87479  0.10771  1.0000
  H   H509      1.0  0.17455  0.95115  0.44777  1.0000
  H   H510      1.0  0.26303  0.92671  0.44986  1.0000
  Fe  Fe86      1.0  0.12262  0.88507  0.47939  1.0000
  C   C518      1.0  0.35995  0.99634  0.43567  1.0000
  C   C519      1.0  0.39175  0.97078  0.35748  1.0000
  H   H511      1.0  0.13024  0.81062  0.46973  1.0000
  H   H512      1.0  0.38983  0.95969  0.37979  1.0000
  C   C520      1.0  0.08605  0.98714  0.01169  1.0000
  N   N43       1.0  0.06980  0.96287  0.02658  1.0000
  C   C521      1.0  0.05674  0.93745  0.00852  1.0000
  H   H513      1.0  0.05551  0.92039  0.02267  1.0000
  H   H514      1.0  0.32647  0.76506  0.41665  1.0000
  C   C522      1.0  0.48012  0.75507  0.46366  1.0000
  S   S171      1.0  0.15372  0.87137  0.48289  1.0000
  C   C523      1.0  0.33657  0.75465  0.34210  1.0000
  H   H515      1.0  0.07028  0.75324  0.45187  1.0000
  C   C524      1.0  0.27536  0.76154  0.21397  1.0000
  H   H516      1.0  0.37364  0.99861  0.32461  1.0000
  C   C525      1.0  0.50015  0.86724  0.07739  1.0000
  Fe  Fe87      1.0  0.31379  0.95091  0.87291  1.0000
  S   S172      1.0  0.32798  0.96503  0.92271  1.0000
  Fe  Fe88      1.0  0.26205  0.91051  0.83854  1.0000
  S   S173      1.0  0.28041  0.92663  0.79123  1.0000
  S   S174      1.0  0.21800  0.87862  0.84695  1.0000
  Fe  Fe89      1.0  0.31747  0.92655  0.81017  1.0000
  S   S175      1.0  0.33652  0.91112  0.77430  1.0000
  S   S176      1.0  0.08085  0.85958  0.50008  1.0000
  S   S177      1.0  0.29771  0.90761  0.85654  1.0000
  S   S178      1.0  0.27637  0.95198  0.85891  1.0000
  Fe  Fe90      1.0  0.08573  0.89891  0.51781  1.0000
  S   S179      1.0  0.07078  0.90010  0.56694  1.0000
  Fe  Fe91      1.0  0.41415  0.83039  0.75805  1.0000
  S   S180      1.0  0.38938  0.81406  0.71421  1.0000
  S   S181      1.0  0.40525  0.85276  0.79635  1.0000
  Fe  Fe92      1.0  0.45210  0.80850  0.73974  1.0000
  S   S182      1.0  0.42941  0.78990  0.69504  1.0000
  N   N44       1.0  0.24300  0.90645  0.95420  1.0000
  Fe  Fe93      1.0  0.42945  0.82914  0.68929  1.0000
  S   S183      1.0  0.43780  0.84957  0.64163  1.0000
  Fe  Fe94      1.0  0.39169  0.77644  0.72443  1.0000
  H   H517      1.0  0.40290  0.79941  0.60736  1.0000
  S   S184      1.0  0.45420  0.84874  0.73236  1.0000
  S   S185      1.0  0.41436  0.79181  0.76997  1.0000
  S   S186      1.0  0.15716  0.80652  0.72803  1.0000
  C   C526      1.0  0.20017  0.92049  0.80269  1.0000
  C   C527      1.0  0.02434  0.88010  0.60279  1.0000
  H   H518      1.0  0.03547  0.89858  0.61644  1.0000
  H   H519      1.0  0.43460  0.91608  0.79462  1.0000
  H   H520      1.0  0.01564  0.83390  0.68939  1.0000
  H   H521      1.0  0.38815  0.91686  0.68366  1.0000
  H   H522      1.0  0.33816  0.99515  0.98039  1.0000
  H   H523      1.0  0.03209  0.79342  0.80585  1.0000
  C   C528      1.0  0.06278  0.81044  0.61540  1.0000
  C   C529      1.0  0.03672  0.87587  0.57641  1.0000
  H   H524      1.0  0.24560  0.90747  0.90452  1.0000
  S   S187      1.0  0.33662  0.96976  0.82804  1.0000
  C   C530      1.0  0.47200  0.86790  0.62854  1.0000
  C   C531      1.0  0.05369  0.79579  0.64345  1.0000
  H   H525      1.0  0.46030  0.75388  0.75906  1.0000
  H   H526      1.0  0.04870  0.86422  0.69160  1.0000
  H   H527      1.0  0.20408  0.87056  0.94967  1.0000
  H   H528      1.0  0.46091  0.87002  0.58057  1.0000
  H   H529      1.0  0.45143  0.90206  0.74927  1.0000
  H   H530      1.0  0.22875  0.90420  0.68869  1.0000
  C   C532      1.0  0.19084  0.89260  0.75500  1.0000
  C   C533      1.0  0.23911  0.93197  0.72773  1.0000
  N   N45       1.0  0.43530  0.79618  0.58706  1.0000
  C   C534      1.0  0.35112  0.89068  0.78277  1.0000
  C   C535      1.0  0.35443  0.87605  0.75813  1.0000
  C   C536      1.0  0.36977  0.86303  0.76242  1.0000
  C   C537      1.0  0.38200  0.86463  0.79146  1.0000
  C   C538      1.0  0.37751  0.87806  0.81658  1.0000
  C   C539      1.0  0.36208  0.89102  0.81230  1.0000
  H   H531      1.0  0.34586  0.87559  0.73526  1.0000
  H   H532      1.0  0.37302  0.85277  0.74291  1.0000
  H   H533      1.0  0.38682  0.87928  0.83918  1.0000
  H   H534      1.0  0.35966  0.90223  0.83145  1.0000
  C   C540      1.0  0.20143  0.85624  0.81527  1.0000
  C   C541      1.0  0.21601  0.85663  0.78852  1.0000
  C   C542      1.0  0.20224  0.84031  0.76245  1.0000
  C   C543      1.0  0.17383  0.82338  0.76294  1.0000
  C   C544      1.0  0.15928  0.82225  0.79009  1.0000
  C   C545      1.0  0.17308  0.83872  0.81619  1.0000
  H   H535      1.0  0.23788  0.86961  0.78774  1.0000
  H   H536      1.0  0.21363  0.84116  0.74160  1.0000
  H   H537      1.0  0.13736  0.80926  0.79067  1.0000
  H   H538      1.0  0.16169  0.83817  0.83690  1.0000
  N   N46       1.0  0.20751  0.91610  0.77101  1.0000
  C   C546      1.0  0.40853  0.92400  0.72846  1.0000
  C   C547      1.0  0.43790  0.90577  0.73474  1.0000
  C   C548      1.0  0.02219  0.85189  0.55896  1.0000
  C   C549      1.0  0.23112  0.93588  0.75753  1.0000
  H   H539      1.0  0.01418  0.82475  0.79777  1.0000
  H   H540      1.0  0.33160  0.76954  0.74648  1.0000
  H   H541      1.0  0.03888  0.79501  0.69021  1.0000
  C   C550      1.0  0.04582  0.80649  0.66844  1.0000
  H   H542      1.0  0.39855  0.93454  0.73807  1.0000
  S   S188      1.0  0.12949  0.92390  0.50157  1.0000
  S   S189      1.0  0.49313  0.81221  0.74868  1.0000
  H   H543      1.0  0.07082  0.84713  0.59089  1.0000
  H   H544      1.0  0.41540  0.93280  0.78890  1.0000
  H   H545      1.0  0.24428  0.95461  0.77009  1.0000
  H   H546      1.0  0.21323  0.98677  0.83910  1.0000
  S   S190      1.0  0.12618  0.96649  0.97020  1.0000
  C   C551      1.0  0.06384  0.83547  0.61260  1.0000
  H   H547      1.0  0.19465  0.93671  0.80220  1.0000
  C   C552      1.0  0.45985  0.80942  0.53808  1.0000
  C   C553      1.0  0.00987  0.80899  0.78060  1.0000
  C   C554      1.0  0.43530  0.79684  0.55487  1.0000
  H   H548      1.0  0.19254  0.97667  0.96351  1.0000
  H   H549      1.0  0.25827  0.94747  0.71763  1.0000
  C   C555      1.0  0.43265  0.89588  0.70386  1.0000
  H   H550      1.0  0.10628  0.81447  0.49396  1.0000
  H   H551      1.0  0.45942  0.80891  0.62881  1.0000
  C   C556      1.0  0.19814  0.88804  0.72509  1.0000
  C   C557      1.0  0.02026  0.79143  0.78503  1.0000
  H   H552      1.0  0.13678  0.99319  0.91009  1.0000
  H   H553      1.0  0.03162  0.84824  0.53884  1.0000
  C   C558      1.0  0.40247  0.91396  0.69766  1.0000
  C   C559      1.0  0.49367  0.87471  0.64916  1.0000
  H   H554      1.0  0.39313  0.76617  0.59134  1.0000
  H   H555      1.0  0.10279  0.78142  0.48908  1.0000
  N   N47       1.0  0.42575  0.91949  0.74669  1.0000
  S   S191      1.0  0.07884  0.77004  0.70853  1.0000
  C   C560      1.0  0.47756  0.87531  0.59671  1.0000
  Fe  Fe95      1.0  0.11487  0.76943  0.72967  1.0000
  C   C561      1.0  0.40933  0.78399  0.60418  1.0000
  C   C562      1.0  0.22256  0.90778  0.71154  1.0000
  H   H556      1.0  0.44232  0.88507  0.69431  1.0000
  N   N48       1.0  0.04715  0.83116  0.66558  1.0000
  C   C563      1.0  0.43217  0.93034  0.77880  1.0000
  H   H557      1.0  0.27944  0.94413  0.96332  1.0000
  C   C564      1.0  0.25336  0.90125  0.92495  1.0000
  H   H558      1.0  0.18529  0.86887  0.71304  1.0000
  H   H559      1.0  0.24939  0.97576  0.82703  1.0000
  C   C565      1.0  0.32714  0.76906  0.77205  1.0000
  H   H560      1.0  0.21760  0.92655  0.81895  1.0000
  H   H561      1.0  0.41016  0.89175  0.66155  1.0000
  C   C566      1.0  0.05585  0.84554  0.63805  1.0000
  H   H562      1.0  0.34402  0.76840  0.78453  1.0000
  H   H563      1.0  0.02049  0.75955  0.48791  1.0000
  H   H564      1.0  0.45984  0.81009  0.51255  1.0000
  H   H565      1.0  0.18286  0.90157  0.81265  1.0000
  H   H566      1.0  0.17218  0.87678  0.76565  1.0000
  C   C567      1.0  0.01447  0.77063  0.76344  1.0000
  H   H567      1.0  0.45128  0.95035  0.77885  1.0000
  C   C568      1.0  0.20257  0.99799  0.95700  1.0000
  H   H568      1.0  0.05684  0.86504  0.63564  1.0000
  C   C569      1.0  0.41466  0.89982  0.68534  1.0000
  Fe  Fe96      1.0  0.29773  0.96793  0.81303  1.0000
  H   H569      1.0  0.32737  0.78814  0.77858  1.0000
  C   C570      1.0  0.45938  0.80828  0.60328  1.0000
  C   C571      1.0  0.03788  0.84159  0.69154  1.0000
  H   H570      1.0  0.41114  0.77671  0.62782  1.0000
  C   C572      1.0  0.25083  0.99407  0.81769  1.0000
  C   C573      1.0  0.48447  0.82161  0.55439  1.0000
  C   C574      1.0  0.49856  0.78495  0.74003  1.0000
  H   H571      1.0  0.27603  0.91260  0.92416  1.0000
  C   C575      1.0  0.21686  0.88863  0.96353  1.0000
  H   H572      1.0  0.05290  0.77632  0.64585  1.0000
  H   H573      1.0  0.48970  0.86900  0.67369  1.0000
  C   C576      1.0  0.47979  0.75837  0.74938  1.0000
  C   C577      1.0  0.48431  0.82108  0.58721  1.0000
  H   H574      1.0  0.24660  0.87926  0.92237  1.0000
  C   C578      1.0  0.25887  0.92968  0.97110  1.0000
  H   H575      1.0  0.41626  0.78781  0.54199  1.0000
  H   H576      1.0  0.04179  0.83515  0.71475  1.0000
  H   H577      1.0  0.06906  0.80240  0.59596  1.0000
  C   C579      1.0  0.34117  0.00007  0.92998  1.0000
  H   H578      1.0  0.19571  0.98989  0.90724  1.0000
  H   H579      1.0  0.19200  0.93642  0.49282  1.0000
  H   H580      1.0  0.23331  0.93263  0.48614  1.0000
  Fe  Fe97      1.0  0.86823  0.13478  0.03939  1.0000
  S   S192      1.0  0.87238  0.11649  0.08423  1.0000
  S   S193      1.0  0.85462  0.16592  0.03603  1.0000
  H   H581      1.0  0.96291  0.10138  0.10283  1.0000
  S   S194      1.0  0.89679  0.08528  0.04181  1.0000
  C   C580      1.0  0.75952  0.08600  0.46339  1.0000
  Fe  Fe98      1.0  0.85554  0.07752  0.05691  1.0000
  S   S195      1.0  0.82493  0.03434  0.07015  1.0000
  Fe  Fe99      1.0  0.91341  0.12640  0.06482  1.0000
  S   S196      1.0  0.94647  0.14800  0.10177  1.0000
  S   S197      1.0  0.84730  0.09475  0.01382  1.0000
  S   S198      1.0  0.90979  0.14640  0.02094  1.0000
  C   C581      1.0  0.74863  0.08991  0.43569  1.0000
  H   H582      1.0  0.94638  0.05387  0.45220  1.0000
  Fe  Fe100     1.0  0.60730  0.22866  0.16563  1.0000
  H   H583      1.0  0.52698  0.14751  0.07241  1.0000
  S   S199      1.0  0.56274  0.21660  0.15724  1.0000
  C   C582      1.0  0.77579  0.02054  0.98900  1.0000
  H   H584      1.0  0.96045  0.03527  0.47169  1.0000
  S   S200      1.0  0.68886  0.21697  0.13471  1.0000
  Fe  Fe101     1.0  0.64907  0.24150  0.21956  1.0000
  S   S201      1.0  0.66186  0.24121  0.27019  1.0000
  H   H585      1.0  0.66633  0.14838  0.20369  1.0000
  S   S202      1.0  0.62762  0.20640  0.18612  1.0000
  C   C583      1.0  0.79351  0.17035  0.09246  1.0000
  Fe  Fe102     1.0  0.71985  0.18553  0.42430  1.0000
  S   S203      1.0  0.74071  0.18919  0.37825  1.0000
  S   S204      1.0  0.72097  0.22115  0.44951  1.0000
  Fe  Fe103     1.0  0.69888  0.12392  0.42985  1.0000
  S   S205      1.0  0.71736  0.12322  0.38327  1.0000
  C   C584      1.0  0.91562  0.09492  0.14814  1.0000
  Fe  Fe104     1.0  0.75407  0.16164  0.39999  1.0000
  S   S206      1.0  0.79699  0.16900  0.39395  1.0000
  Fe  Fe105     1.0  0.70198  0.15086  0.36627  1.0000
  S   S207      1.0  0.68155  0.14649  0.31904  1.0000
  S   S208      1.0  0.73648  0.16133  0.44713  1.0000
  S   S209      1.0  0.68025  0.14829  0.41166  1.0000
  H   H586      1.0  0.50685  0.20139  0.14822  1.0000
  C   C585      1.0  0.76406  0.09702  0.40809  1.0000
  H   H587      1.0  0.86212  0.24597  0.08836  1.0000
  C   C586      1.0  0.79777  0.21334  0.10752  1.0000
  H   H588      1.0  0.69653  0.22285  0.20117  1.0000
  S   S210      1.0  0.91606  0.08485  0.44143  1.0000
  H   H589      1.0  0.92848  0.18739  0.08365  1.0000
  C   C587      1.0  0.99315  0.15731  0.06975  1.0000
  S   S211      1.0  0.92058  0.15492  0.46140  1.0000
  N   N49       1.0  0.73572  0.02387  0.99847  1.0000
  C   C588      1.0  0.76288  0.03332  0.00328  1.0000
  S   S212      1.0  0.86297  0.23631  0.15567  1.0000
  C   C589      1.0  0.65072  0.04504  0.42904  1.0000
  C   C590      1.0  0.66381  0.05463  0.45792  1.0000
  C   C591      1.0  0.59929  0.03729  0.48093  1.0000
  H   H590      1.0  0.73599  0.18731  0.27831  1.0000
  H   H591      1.0  0.84996  0.22584  0.44197  1.0000
  H   H592      1.0  0.65360  0.05930  0.41049  1.0000
  C   C592      1.0  0.81367  0.16417  0.42626  1.0000
  C   C593      1.0  0.83955  0.16702  0.42204  1.0000
  C   C594      1.0  0.85304  0.16278  0.44731  1.0000
  C   C595      1.0  0.52254  0.15937  0.08880  1.0000
  H   H593      1.0  0.92869  0.11375  0.16057  1.0000
  C   C596      1.0  0.80158  0.15750  0.45606  1.0000
  C   C597      1.0  0.63294  0.01695  0.42457  1.0000
  H   H594      1.0  0.80491  0.22863  0.38406  1.0000
  H   H595      1.0  0.80086  0.22790  0.12585  1.0000
  H   H596      1.0  0.78171  0.15517  0.45969  1.0000
  C   C598      1.0  0.66638  0.21432  0.28396  1.0000
  C   C599      1.0  0.68327  0.21876  0.31005  1.0000
  C   C600      1.0  0.68724  0.19781  0.32176  1.0000
  C   C601      1.0  0.67456  0.17227  0.30720  1.0000
  C   C602      1.0  0.65752  0.16776  0.28122  1.0000
  C   C603      1.0  0.65346  0.18869  0.26960  1.0000
  H   H597      1.0  0.69390  0.23866  0.32079  1.0000
  H   H598      1.0  0.70058  0.20162  0.34160  1.0000
  H   H599      1.0  0.64757  0.14802  0.26991  1.0000
  H   H600      1.0  0.64019  0.18494  0.24969  1.0000
  C   C604      1.0  0.72223  0.24357  0.12737  1.0000
  H   H601      1.0  0.70189  0.02241  0.02213  1.0000
  C   C605      1.0  0.89297  0.04945  0.44518  1.0000
  C   C606      1.0  0.89059  0.03203  0.42029  1.0000
  H   H602      1.0  0.79717  0.02771  0.99366  1.0000
  C   C607      1.0  0.93010  0.24092  0.12182  1.0000
  H   H603      1.0  0.78995  0.16232  0.04262  1.0000
  H   H604      1.0  0.90147  0.04064  0.39852  1.0000
  H   H605      1.0  0.57258  0.00390  0.45083  1.0000
  H   H606      1.0  0.77466  0.05058  0.01864  1.0000
  H   H607      1.0  0.62228  0.00974  0.40244  1.0000
  C   C608      1.0  0.54322  0.17786  0.10916  1.0000
  C   C609      1.0  0.53771  0.19313  0.13073  1.0000
  C   C610      1.0  0.51138  0.18984  0.13145  1.0000
  C   C611      1.0  0.79403  0.23197  0.44409  1.0000
  C   C612      1.0  0.95631  0.09500  0.12754  1.0000
  H   H608      1.0  0.56331  0.18010  0.10834  1.0000
  S   S213      1.0  0.70457  0.01082  0.09087  1.0000
  H   H609      1.0  0.98018  0.14740  0.04970  1.0000
  C   C613      1.0  0.78664  0.04878  0.08425  1.0000
  C   C614      1.0  0.88734  0.08377  0.14987  1.0000
  C   C615      1.0  0.72812  0.19551  0.26081  1.0000
  C   C616      1.0  0.79148  0.02786  0.07542  1.0000
  H   H610      1.0  0.79118  0.20534  0.02906  1.0000
  H   H611      1.0  0.78147  0.23651  0.42898  1.0000
  H   H612      1.0  0.84839  0.05142  0.13376  1.0000
  H   H613      1.0  0.72052  0.05117  0.99596  1.0000
  H   H614      1.0  0.87282  0.16468  0.44373  1.0000
  C   C617      1.0  0.85842  0.18589  0.06937  1.0000
  C   C618      1.0  0.85938  0.17686  0.09967  1.0000
  C   C619      1.0  0.86105  0.19266  0.12594  1.0000
  C   C620      1.0  0.86213  0.21772  0.12206  1.0000
  H   H615      1.0  0.74131  0.22373  0.15065  1.0000
  C   C621      1.0  0.85952  0.21095  0.06547  1.0000
  H   H616      1.0  0.85818  0.15743  0.10294  1.0000
  H   H617      1.0  0.86131  0.18534  0.14938  1.0000
  H   H618      1.0  0.74706  0.24216  0.38858  1.0000
  H   H619      1.0  0.85865  0.21796  0.04206  1.0000
  H   H620      1.0  0.79887  0.18486  0.14030  1.0000
  C   C622      1.0  0.76944  0.00144  0.07092  1.0000
  H   H621      1.0  0.80355  0.06918  0.08783  1.0000
  H   H622      1.0  0.91887  0.05033  0.09882  1.0000
  C   C623      1.0  0.79157  0.17632  0.06106  1.0000
  N   N50       1.0  0.69766  0.18804  0.21785  1.0000
  H   H623      1.0  0.85358  0.04564  0.98544  1.0000
  Fe  Fe106     1.0  0.92087  0.11700  0.47697  1.0000
  C   C624      1.0  0.81525  0.15381  0.48140  1.0000
  C   C625      1.0  0.87884  0.03811  0.47320  1.0000
  H   H624      1.0  0.92477  0.01869  0.46114  1.0000
  C   C626      1.0  0.87497  0.00352  0.42369  1.0000
  C   C627      1.0  0.98191  0.16061  0.09755  1.0000
  H   H625      1.0  0.66296  0.23247  0.37107  1.0000
  C   C628      1.0  0.88178  0.04786  0.11492  1.0000
  C   C629      1.0  0.70551  0.21510  0.21770  1.0000
  C   C630      1.0  0.92882  0.20652  0.08722  1.0000
  Fe  Fe107     1.0  0.66227  0.23287  0.15342  1.0000
  H   H626      1.0  0.68766  0.17060  0.17228  1.0000
  N   N51       1.0  0.79614  0.21917  0.07663  1.0000
  C   C631      1.0  0.74464  0.24155  0.13772  1.0000
  H   H627      1.0  0.70251  0.15670  0.23928  1.0000
  C   C632      1.0  0.67746  0.16971  0.19497  1.0000
  C   C633      1.0  0.87036  0.06008  0.13313  1.0000
  H   H628      1.0  0.84910  0.17220  0.39906  1.0000
  C   C634      1.0  0.79645  0.18886  0.11590  1.0000
  C   C635      1.0  0.84085  0.15608  0.47708  1.0000
  C   C636      1.0  0.99906  0.17348  0.12340  1.0000
  H   H629      1.0  0.66217  0.01708  0.99103  1.0000
  H   H630      1.0  0.66194  0.17582  0.19043  1.0000
  S   S214      1.0  0.68326  0.08984  0.46628  1.0000
  N   N52       1.0  0.81630  0.23165  0.43218  1.0000
  H   H631      1.0  0.87870  0.09374  0.16361  1.0000
  H   H632      1.0  0.79350  0.15177  0.09850  1.0000
  C   C637      1.0  0.75984  0.04315  0.08932  1.0000
  C   C638      1.0  0.73776  0.01679  0.08469  1.0000
  C   C639      1.0  0.72447  0.23294  0.23954  1.0000
  H   H633      1.0  0.80241  0.10623  0.38725  1.0000
  C   C640      1.0  0.70902  0.17822  0.23869  1.0000
  H   H634      1.0  0.96739  0.11351  0.14242  1.0000
  C   C641      1.0  0.73574  0.22301  0.26131  1.0000
  Fe  Fe108     1.0  0.88916  0.10427  0.99958  1.0000
  C   C642      1.0  0.82351  0.23830  0.39894  1.0000
  H   H635      1.0  0.75616  0.05927  0.09680  1.0000
  H   H636      1.0  0.96265  0.23443  0.46821  1.0000
  C   C643      1.0  0.86158  0.22691  0.09171  1.0000
  N   N53       1.0  0.92665  0.08288  0.13004  1.0000
  C   C644      1.0  0.91013  0.05964  0.11355  1.0000
  C   C645      1.0  0.94238  0.03790  0.47001  1.0000
  H   H637      1.0  0.83667  0.23023  0.39038  1.0000
  C   C646      1.0  0.92724  0.22094  0.06153  1.0000
  C   C647      1.0  0.78997  0.09990  0.40840  1.0000
  C   C648      1.0  0.83235  0.22623  0.45139  1.0000
  H   H638      1.0  0.86866  0.02969  0.10137  1.0000
  H   H639      1.0  0.82074  0.09889  0.43668  1.0000
  H   H640      1.0  0.99052  0.17605  0.14505  1.0000
  H   H641      1.0  0.96255  0.08016  0.13498  1.0000
  C   C649      1.0  0.79267  0.20086  0.05354  1.0000
  C   C650      1.0  0.80024  0.09583  0.43649  1.0000
  C   C651      1.0  0.93035  0.21657  0.11758  1.0000
  N   N54       1.0  0.78509  0.08913  0.46356  1.0000
  C   C652      1.0  0.86349  0.00961  0.47672  1.0000
  C   C653      1.0  0.72247  0.03759  0.01322  1.0000
  H   H642      1.0  0.93123  0.20528  0.13768  1.0000
  H   H643      1.0  0.92529  0.21287  0.03790  1.0000
  H   H644      1.0  0.75623  0.10090  0.38663  1.0000
  C   C654      1.0  0.92735  0.24539  0.06660  1.0000
  C   C655      1.0  0.64212  0.00773  0.47730  1.0000
  C   C656      1.0  0.78689  0.22612  0.47581  1.0000
  H   H645      1.0  0.72851  0.08783  0.43576  1.0000
  C   C657      1.0  0.65983  0.03584  0.48181  1.0000
  C   C658      1.0  0.58099  0.00999  0.47430  1.0000
  H   H646      1.0  0.74987  0.23643  0.27898  1.0000
  H   H647      1.0  0.60509  0.05263  0.46270  1.0000
  H   H648      1.0  0.73404  0.04989  0.03392  1.0000
  H   H649      1.0  0.93061  0.24830  0.14554  1.0000
  H   H650      1.0  0.77603  0.24173  0.06915  1.0000
  C   C659      1.0  0.79693  0.24464  0.06834  1.0000
  C   C660      1.0  0.82578  0.22020  0.48324  1.0000
  H   H651      1.0  0.87653  0.06763  0.88888  1.0000
  C   C661      1.0  0.81702  0.08447  0.73473  1.0000
  Fe  Fe109     1.0  0.71800  0.07633  0.79521  1.0000
  S   S215      1.0  0.74496  0.09327  0.83717  1.0000
  S   S216      1.0  0.71251  0.03785  0.77256  1.0000
  Fe  Fe110     1.0  0.70250  0.12123  0.79552  1.0000
  S   S217      1.0  0.72821  0.14077  0.83852  1.0000
  S   S218      1.0  0.68855  0.14541  0.76545  1.0000
  Fe  Fe111     1.0  0.75965  0.13406  0.81457  1.0000
  S   S219      1.0  0.80490  0.16463  0.81422  1.0000
  Fe  Fe112     1.0  0.71088  0.09787  0.85702  1.0000
  S   S220      1.0  0.70071  0.08699  0.90862  1.0000
  S   S221      1.0  0.73522  0.11658  0.77077  1.0000
  S   S222      1.0  0.68257  0.07865  0.81591  1.0000
  Fe  Fe113     1.0  0.93296  0.13596  0.54551  1.0000
  S   S223      1.0  0.94299  0.12862  0.59492  1.0000
  Fe  Fe114     1.0  0.57001  0.21754  0.68239  1.0000
  S   S224      1.0  0.54364  0.18975  0.72068  1.0000
  S   S225      1.0  0.55735  0.21390  0.63128  1.0000
  H   H652      1.0  0.99406  0.15345  0.55925  1.0000
  N   N55       1.0  0.98678  0.20550  0.63885  1.0000
  Fe  Fe115     1.0  0.58181  0.19200  0.73953  1.0000
  S   S226      1.0  0.58125  0.15480  0.76010  1.0000
  C   C662      1.0  0.63758  0.20146  0.81763  1.0000
  H   H653      1.0  0.73116  0.04903  0.88810  1.0000
  S   S227      1.0  0.60724  0.21646  0.69863  1.0000
  S   S228      1.0  0.85616  0.14940  0.50933  1.0000
  C   C663      1.0  0.92655  0.05973  0.55997  1.0000
  H   H654      1.0  0.95575  0.19103  0.60377  1.0000
  H   H655      1.0  0.65414  0.24211  0.77635  1.0000
  C   C664      1.0  0.52286  0.19481  0.61961  1.0000
  C   C665      1.0  0.61135  0.04459  0.51057  1.0000
  H   H656      1.0  0.54523  0.15674  0.60403  1.0000
  H   H657      1.0  0.71746  0.20631  0.78455  1.0000
  H   H658      1.0  0.53223  0.20659  0.57094  1.0000
  H   H659      1.0  0.92261  0.06558  0.58289  1.0000
  H   H660      1.0  0.64063  0.21447  0.83847  1.0000
  H   H661      1.0  0.94269  0.05354  0.91574  1.0000
  C   C666      1.0  0.76952  0.05100  0.89637  1.0000
  C   C667      1.0  0.60484  0.02436  0.53327  1.0000
  C   C668      1.0  0.81831  0.18971  0.78447  1.0000
  C   C669      1.0  0.84612  0.20947  0.78487  1.0000
  C   C670      1.0  0.85760  0.22895  0.76068  1.0000
  C   C671      1.0  0.84137  0.22848  0.73569  1.0000
  C   C672      1.0  0.81353  0.20887  0.73544  1.0000
  C   C673      1.0  0.80197  0.18970  0.75987  1.0000
  H   H662      1.0  0.85886  0.20957  0.80384  1.0000
  N   N56       1.0  0.51835  0.12805  0.63800  1.0000
  H   H663      1.0  0.78048  0.17477  0.75945  1.0000
  C   C674      1.0  0.65763  0.14599  0.76329  1.0000
  C   C675      1.0  0.65597  0.16394  0.74180  1.0000
  C   C676      1.0  0.63283  0.16699  0.74078  1.0000
  C   C677      1.0  0.61070  0.15148  0.76067  1.0000
  C   C678      1.0  0.61201  0.13299  0.78163  1.0000
  C   C679      1.0  0.63550  0.13046  0.78322  1.0000
  H   H664      1.0  0.67298  0.17599  0.72626  1.0000
  H   H665      1.0  0.63213  0.18124  0.72449  1.0000
  H   H666      1.0  0.59492  0.12081  0.79702  1.0000
  H   H667      1.0  0.63650  0.11656  0.79984  1.0000
  C   C680      1.0  0.66805  0.23428  0.77840  1.0000
  C   C681      1.0  0.99576  0.21255  0.58331  1.0000
  C   C682      1.0  0.67894  0.04768  0.95445  1.0000
  C   C683      1.0  0.68274  0.05286  0.92198  1.0000
  C   C684      1.0  0.67247  0.03090  0.90106  1.0000
  C   C685      1.0  0.51584  0.11750  0.66759  1.0000
  S   S229      1.0  0.59239  0.22819  0.77027  1.0000
  H   H668      1.0  0.95784  0.10039  0.54819  1.0000
  H   H669      1.0  0.67464  0.03467  0.87600  1.0000
  C   C686      1.0  0.73805  0.02906  0.77668  1.0000
  H   H670      1.0  0.75260  0.04613  0.71168  1.0000
  H   H671      1.0  0.78428  0.06356  0.50049  1.0000
  H   H672      1.0  0.80085  0.20845  0.71622  1.0000
  C   C687      1.0  0.78458  0.04081  0.78856  1.0000
  C   C688      1.0  0.76368  0.04732  0.78908  1.0000
  C   C689      1.0  0.51631  0.19453  0.58774  1.0000
  H   H673      1.0  0.80473  0.05549  0.79684  1.0000
  H   H674      1.0  0.76786  0.06698  0.79762  1.0000
  C   C690      1.0  0.86740  0.05982  0.93830  1.0000
  H   H675      1.0  0.68636  0.06458  0.97073  1.0000
  C   C691      1.0  0.82426  0.12599  0.75921  1.0000
  H   H676      1.0  0.66993  0.04312  0.50422  1.0000
  H   H677      1.0  0.72757  0.24407  0.74723  1.0000
  C   C692      1.0  0.86404  0.05263  0.90634  1.0000
  C   C693      1.0  0.78252  0.09646  0.73155  1.0000
  C   C694      1.0  0.53862  0.12682  0.68719  1.0000
  C   C695      1.0  0.85100  0.04039  0.96070  1.0000
  Fe  Fe116     1.0  0.95675  0.17797  0.49357  1.0000
  C   C696      1.0  0.92095  0.04765  0.91306  1.0000
  H   H678      1.0  0.62655  0.06564  0.51535  1.0000
  C   C697      1.0  0.56637  0.15773  0.64622  1.0000
  H   H679      1.0  0.58589  0.17399  0.63783  1.0000
  C   C698      1.0  0.98425  0.14617  0.63835  1.0000
  H   H680      1.0  0.83664  0.14428  0.77298  1.0000
  H   H681      1.0  0.50687  0.17905  0.66566  1.0000
  N   N57       1.0  0.73447  0.01846  0.86236  1.0000
  H   H682      1.0  0.87911  0.24387  0.76100  1.0000
  S   S230      1.0  0.93137  0.17390  0.53591  1.0000
  C   C699      1.0  0.56404  0.14690  0.67627  1.0000
  H   H683      1.0  0.77847  0.05863  0.68119  1.0000
  H   H684      1.0  0.96659  0.22597  0.75675  1.0000
  H   H685      1.0  0.77886  0.03755  0.71292  1.0000
  H   H686      1.0  0.61490  0.03008  0.55595  1.0000
  S   S231      1.0  0.95960  0.14078  0.50438  1.0000
  H   H687      1.0  0.88053  0.05127  0.49255  1.0000
  H   H688      1.0  0.82420  0.07032  0.72982  1.0000
  H   H689      1.0  0.70349  0.02369  0.84096  1.0000
  C   C700      1.0  0.99871  0.15474  0.58400  1.0000
  C   C701      1.0  0.77462  0.05411  0.70669  1.0000
  C   C702      1.0  0.84487  0.02602  0.89686  1.0000
  H   H690      1.0  0.80587  0.04790  0.89988  1.0000
  S   S232      1.0  0.89407  0.10898  0.51918  1.0000
  H   H691      1.0  0.58184  0.15424  0.69127  1.0000
  C   C703      1.0  0.79872  0.12033  0.74859  1.0000
  C   C704      1.0  0.69159  0.24577  0.75978  1.0000
  C   C705      1.0  0.83189  0.01380  0.95124  1.0000
  H   H692      1.0  0.91939  0.06191  0.89640  1.0000
  H   H693      1.0  0.91348  0.05037  0.93627  1.0000
  C   C706      1.0  0.83357  0.10800  0.75222  1.0000
  C   C707      1.0  0.97745  0.20233  0.60859  1.0000
  H   H694      1.0  0.53669  0.11875  0.71084  1.0000
  S   S233      1.0  0.52327  0.23088  0.77329  1.0000
  C   C708      1.0  0.82895  0.00643  0.91936  1.0000
  H   H695      1.0  0.67598  0.18711  0.81724  1.0000
  H   H696      1.0  0.77698  0.06850  0.91187  1.0000
  H   H697      1.0  0.79149  0.13432  0.75385  1.0000
  H   H698      1.0  0.62016  0.19949  0.80357  1.0000
  H   H699      1.0  0.76240  0.09196  0.72401  1.0000
  C   C709      1.0  0.66532  0.02080  0.96602  1.0000
  C   C710      1.0  0.78571  0.03950  0.88958  1.0000
  N   N58       1.0  0.79168  0.07878  0.72508  1.0000
  Fe  Fe117     1.0  0.55672  0.22844  0.74745  1.0000
  H   H700      1.0  0.63161  0.18053  0.82560  1.0000
  Fe  Fe118     1.0  0.89532  0.14787  0.50505  1.0000
  C   C711      1.0  0.54322  0.14790  0.62721  1.0000
  S   S234      1.0  0.89345  0.09243  0.94993  1.0000
  C   C712      1.0  0.98240  0.24376  0.74483  1.0000
  H   H701      1.0  0.85336  0.11213  0.76052  1.0000
  H   H702      1.0  0.80574  0.14877  0.50439  1.0000
  C   C713      1.0  0.50210  0.17914  0.64109  1.0000
  H   H703      1.0  0.94914  0.17494  0.65841  1.0000
  N   N59       1.0  0.66248  0.21329  0.79852  1.0000
  C   C714      1.0  0.74369  0.04000  0.88267  1.0000
  H   H704      1.0  0.85330  0.00100  0.49883  1.0000
  C   C715      1.0  0.77593  0.01722  0.86928  1.0000
  C   C716      1.0  0.77980  0.01590  0.77609  1.0000
  H   H705      1.0  0.96813  0.13786  0.65575  1.0000
  C   C717      1.0  0.70405  0.21481  0.78313  1.0000
  H   H706      1.0  0.96091  0.20948  0.67192  1.0000
  C   C718      1.0  0.91752  0.02579  0.52025  1.0000
  H   H707      1.0  0.84269  0.02065  0.87221  1.0000
  C   C719      1.0  0.97765  0.14411  0.60627  1.0000
  C   C720      1.0  0.94626  0.07942  0.54032  1.0000
  C   C721      1.0  0.68039  0.20390  0.80153  1.0000
  C   C722      1.0  0.70955  0.23577  0.76201  1.0000
  C   C723      1.0  0.96733  0.19463  0.66506  1.0000
  H   H708      1.0  0.79521  0.09841  0.51181  1.0000
  N   N60       1.0  0.90504  0.01959  0.90146  1.0000
  H   H709      1.0  0.97651  0.19051  0.68599  1.0000
  H   H710      1.0  0.79730  0.21511  0.52000  1.0000
  H   H711      1.0  0.92796  0.02858  0.85885  1.0000
  H   H712      1.0  0.98843  0.20934  0.55924  1.0000
  C   C724      1.0  0.91204  0.03269  0.54994  1.0000
  S   S235      1.0  0.80737  0.01063  0.76885  1.0000
  C   C725      1.0  0.79607  0.08520  0.49304  1.0000
  S   S236      1.0  0.99878  0.21534  0.49049  1.0000
  H   H713      1.0  0.89659  0.01718  0.56500  1.0000
  C   C726      1.0  0.70718  0.00710  0.84875  1.0000
  C   C727      1.0  0.75009  0.00687  0.85582  1.0000
  C   C728      1.0  0.65878  0.00400  0.91264  1.0000
  C   C729      1.0  0.95079  0.07196  0.51050  1.0000
  C   C730      1.0  0.91147  0.01311  0.87289  1.0000
  H   H714      1.0  0.83815  0.21516  0.49815  1.0000
  H   H715      1.0  0.78837  0.00814  0.86376  1.0000
  H   H716      1.0  0.76892  0.22604  0.48490  1.0000
  H   H717      1.0  0.81790  0.09102  0.49070  1.0000
  H   H718      1.0  0.90608  0.00472  0.51254  1.0000
  H   H719      1.0  0.87849  0.00525  0.94134  1.0000
  C   C731      1.0  0.72098  0.00226  0.97885  1.0000
  H   H720      1.0  0.50964  0.22304  0.69534  1.0000
  C   C732      1.0  0.73295  0.00363  0.76568  1.0000
  H   H721      1.0  0.96569  0.08755  0.49503  1.0000
  N   N61       1.0  0.93642  0.04543  0.50079  1.0000
  C   C733      1.0  0.80282  0.22004  0.49543  1.0000
  H   H722      1.0  0.74750  0.08085  0.48483  1.0000
  Fe  Fe119     1.0  0.66871  0.47051  0.05549  1.0000
  S   S237      1.0  0.67309  0.45084  0.01187  1.0000
  Fe  Fe120     1.0  0.61027  0.42366  0.06844  1.0000
  S   S238      1.0  0.61045  0.40169  0.02454  1.0000
  S   S239      1.0  0.57666  0.40131  0.10486  1.0000
  Fe  Fe121     1.0  0.65242  0.41203  0.03975  1.0000
  S   S240      1.0  0.66341  0.37891  0.03625  1.0000
  Fe  Fe122     1.0  0.63114  0.44290  0.00111  1.0000
  Fe  Fe123     1.0  0.65948  0.28376  0.16775  1.0000
  S   S241      1.0  0.65182  0.43244  0.08466  1.0000
  Fe  Fe124     1.0  0.86916  0.27872  0.15079  1.0000
  S   S242      1.0  0.86979  0.29698  0.10410  1.0000
  C   C734      1.0  0.57231  0.32333  0.41584  1.0000
  Fe  Fe125     1.0  0.87979  0.33025  0.18601  1.0000
  S   S243      1.0  0.88249  0.35258  0.14122  1.0000
  S   S244      1.0  0.88130  0.34575  0.23564  1.0000
  Fe  Fe126     1.0  0.84537  0.31304  0.12765  1.0000
  S   S245      1.0  0.80878  0.31241  0.10588  1.0000
  Fe  Fe127     1.0  0.90713  0.33425  0.12231  1.0000
  S   S246      1.0  0.94136  0.34878  0.08606  1.0000
  S   S247      1.0  0.84155  0.29172  0.17314  1.0000
  S   S248      1.0  0.90742  0.31501  0.16836  1.0000
  Fe  Fe128     1.0  0.80580  0.40478  0.32741  1.0000
  S   S249      1.0  0.83309  0.40967  0.36776  1.0000
  S   S250      1.0  0.81868  0.40768  0.27645  1.0000
  Fe  Fe129     1.0  0.75867  0.39368  0.37091  1.0000
  S   S251      1.0  0.78210  0.39702  0.41487  1.0000
  S   S252      1.0  0.71474  0.38341  0.36766  1.0000
  Fe  Fe130     1.0  0.81652  0.43394  0.39132  1.0000
  S   S253      1.0  0.84574  0.47042  0.42127  1.0000
  Fe  Fe131     1.0  0.79671  0.37276  0.38760  1.0000
  S   S254      1.0  0.80510  0.34016  0.40462  1.0000
  S   S255      1.0  0.79202  0.43223  0.34897  1.0000
  S   S256      1.0  0.77043  0.36628  0.34560  1.0000
  S   S257      1.0  0.67679  0.32917  0.16387  1.0000
  C   C735      1.0  0.57614  0.28374  0.44989  1.0000
  H   H723      1.0  0.58954  0.25771  0.10603  1.0000
  S   S258      1.0  0.52061  0.33460  0.44116  1.0000
  H   H724      1.0  0.80732  0.48683  0.47148  1.0000
  H   H725      1.0  0.57696  0.26799  0.46345  1.0000
  C   C736      1.0  0.52363  0.37757  0.12540  1.0000
  H   H726      1.0  0.98718  0.35915  0.04790  1.0000
  H   H727      1.0  0.75319  0.48045  0.04750  1.0000
  S   S259      1.0  0.59443  0.40019  0.44282  1.0000
  H   H728      1.0  0.60404  0.35166  0.44633  1.0000
  C   C737      1.0  0.98804  0.27817  0.46422  1.0000
  C   C738      1.0  0.74178  0.25434  0.43485  1.0000
  H   H729      1.0  0.92587  0.25634  0.04651  1.0000
  H   H730      1.0  0.74890  0.44970  0.37687  1.0000
  H   H731      1.0  0.59192  0.28312  0.05723  1.0000
  H   H732      1.0  0.67867  0.30561  0.30665  1.0000
  C   C739      1.0  0.89234  0.47234  0.36383  1.0000
  Fe  Fe132     1.0  0.55581  0.36907  0.46694  1.0000
  N   N62       1.0  0.76789  0.46013  0.45342  1.0000
  N   N63       1.0  0.92842  0.25488  0.09649  1.0000
  H   H733      1.0  0.91618  0.27901  0.12263  1.0000
  H   H734      1.0  0.67819  0.40114  0.09946  1.0000
  C   C740      1.0  0.75241  0.25904  0.40427  1.0000
  C   C741      1.0  0.69751  0.38540  0.40124  1.0000
  C   C742      1.0  0.70728  0.38591  0.43154  1.0000
  C   C743      1.0  0.69327  0.38789  0.45782  1.0000
  C   C744      1.0  0.66972  0.38983  0.45398  1.0000
  C   C745      1.0  0.65998  0.38938  0.42367  1.0000
  C   C746      1.0  0.67367  0.38682  0.39741  1.0000
  H   H735      1.0  0.72553  0.38468  0.43477  1.0000
  H   H736      1.0  0.72211  0.48975  0.10875  1.0000
  H   H737      1.0  0.64211  0.39130  0.42037  1.0000
  H   H738      1.0  0.66609  0.38656  0.37398  1.0000
  C   C747      1.0  0.77781  0.30785  0.41444  1.0000
  C   C748      1.0  0.77064  0.28574  0.39422  1.0000
  H   H739      1.0  0.72970  0.25413  0.24007  1.0000
  C   C749      1.0  0.51320  0.26591  0.48052  1.0000
  H   H740      1.0  0.70803  0.44862  0.39982  1.0000
  C   C750      1.0  0.76631  0.30318  0.44454  1.0000
  H   H741      1.0  0.77987  0.28923  0.37112  1.0000
  C   C751      1.0  0.55524  0.29593  0.40842  1.0000
  C   C752      1.0  0.77570  0.28558  0.11445  1.0000
  C   C753      1.0  0.77203  0.47790  0.00454  1.0000
  C   C754      1.0  0.76944  0.45707  0.42169  1.0000
  C   C755      1.0  0.90075  0.45516  0.35052  1.0000
  C   C756      1.0  0.72662  0.26669  0.11083  1.0000
  C   C757      1.0  0.75326  0.28732  0.10378  1.0000
  H   H742      1.0  0.52983  0.36802  0.14300  1.0000
  C   C758      1.0  0.55719  0.27596  0.42543  1.0000
  H   H743      1.0  0.75645  0.30479  0.09014  1.0000
  C   C759      1.0  0.86332  0.36255  0.24622  1.0000
  C   C760      1.0  0.85430  0.36079  0.27740  1.0000
  C   C761      1.0  0.84036  0.37432  0.28682  1.0000
  C   C762      1.0  0.83583  0.39021  0.26525  1.0000
  C   C763      1.0  0.84500  0.39216  0.23411  1.0000
  C   C764      1.0  0.85860  0.37829  0.22458  1.0000
  H   H744      1.0  0.85795  0.34873  0.29430  1.0000
  H   H745      1.0  0.83325  0.37251  0.31084  1.0000
  H   H746      1.0  0.84159  0.40444  0.21728  1.0000
  H   H747      1.0  0.86582  0.38011  0.20061  1.0000
  C   C765      1.0  0.54273  0.39501  0.10300  1.0000
  C   C766      1.0  0.53453  0.40731  0.08040  1.0000
  H   H748      1.0  0.71582  0.33267  0.38182  1.0000
  H   H749      1.0  0.71588  0.43208  0.04515  1.0000
  C   C767      1.0  0.74822  0.27651  0.45463  1.0000
  C   C768      1.0  0.74800  0.45295  0.40193  1.0000
  H   H750      1.0  0.54902  0.42080  0.06309  1.0000
  C   C769      1.0  0.90313  0.42823  0.30693  1.0000
  S   S260      1.0  0.68432  0.26681  0.18773  1.0000
  C   C770      1.0  0.59833  0.29147  0.13648  1.0000
  C   C771      1.0  0.66834  0.36572  0.07155  1.0000
  C   C772      1.0  0.66508  0.33953  0.07176  1.0000
  C   C773      1.0  0.66745  0.32798  0.09999  1.0000
  C   C774      1.0  0.67377  0.34288  0.12798  1.0000
  C   C775      1.0  0.67786  0.36938  0.12756  1.0000
  C   C776      1.0  0.67501  0.38072  0.09947  1.0000
  H   H751      1.0  0.66020  0.32792  0.05016  1.0000
  H   H752      1.0  0.66463  0.30769  0.10000  1.0000
  H   H753      1.0  0.68305  0.38112  0.14909  1.0000
  S   S261      1.0  0.62723  0.46410  0.04375  1.0000
  H   H754      1.0  0.98812  0.41207  0.03466  1.0000
  H   H755      1.0  0.87031  0.49361  0.35604  1.0000
  H   H756      1.0  0.77235  0.32008  0.46057  1.0000
  C   C777      1.0  0.68633  0.31656  0.32940  1.0000
  H   H757      1.0  0.81000  0.26129  0.08489  1.0000
  C   C778      1.0  0.70435  0.31068  0.37925  1.0000
  H   H758      1.0  0.61652  0.37095  0.09068  1.0000
  H   H759      1.0  0.62463  0.37184  0.13139  1.0000
  H   H760      1.0  0.91155  0.44797  0.36507  1.0000
  C   C779      1.0  0.88063  0.45554  0.30173  1.0000
  C   C780      1.0  0.98723  0.38265  0.12145  1.0000
  Fe  Fe133     1.0  0.58990  0.43136  0.47102  1.0000
  C   C781      1.0  0.73135  0.44042  0.02684  1.0000
  H   H761      1.0  0.79964  0.45219  0.46595  1.0000
  C   C782      1.0  0.52070  0.29332  0.47574  1.0000
  H   H762      1.0  0.67250  0.32389  0.33761  1.0000
  C   C783      1.0  0.74546  0.45964  0.46624  1.0000
  C   C784      1.0  0.97682  0.36814  0.09347  1.0000
  H   H763      1.0  0.70088  0.38819  0.48124  1.0000
  H   H764      1.0  0.91944  0.28561  0.08139  1.0000
  C   C785      1.0  0.72368  0.45566  0.44716  1.0000
  H   H765      1.0  0.94968  0.29758  0.10496  1.0000
  H   H766      1.0  0.85964  0.47844  0.30014  1.0000
  H   H767      1.0  0.65019  0.49018  0.46406  1.0000
  H   H768      1.0  0.54327  0.25453  0.42062  1.0000
  C   C786      1.0  0.67458  0.25446  0.37367  1.0000
  H   H769      1.0  0.97181  0.28099  0.45514  1.0000
  H   H770      1.0  0.87563  0.44887  0.27749  1.0000
  H   H771      1.0  0.70556  0.45448  0.45746  1.0000
  H   H772      1.0  0.89644  0.47832  0.38840  1.0000
  H   H773      1.0  0.57027  0.33895  0.40346  1.0000
  N   N64       1.0  0.89478  0.44692  0.31986  1.0000
  C   C787      1.0  0.77135  0.26280  0.13184  1.0000
  H   H774      1.0  0.58965  0.35900  0.11954  1.0000
  C   C788      1.0  0.73049  0.42402  0.00174  1.0000
  H   H775      1.0  0.70670  0.33466  0.32478  1.0000
  C   C789      1.0  0.98279  0.25182  0.47164  1.0000
  C   C790      1.0  0.59382  0.27861  0.10734  1.0000
  C   C791      1.0  0.87161  0.47243  0.31439  1.0000
  H   H776      1.0  0.78856  0.49888  0.00557  1.0000
  H   H777      1.0  0.71953  0.30372  0.42276  1.0000
  C   C792      1.0  0.50760  0.40249  0.08053  1.0000
  N   N65       1.0  0.68822  0.29907  0.35345  1.0000
  N   N66       1.0  0.59273  0.31069  0.45709  1.0000
  S   S262      1.0  0.64042  0.25216  0.12987  1.0000
  S   S263      1.0  0.59256  0.46950  0.44978  1.0000
  C   C793      1.0  0.70638  0.29442  0.40260  1.0000
  C   C794      1.0  0.67309  0.27133  0.35069  1.0000
  C   C795      1.0  0.59109  0.33037  0.44034  1.0000
  H   H778      1.0  0.89272  0.40855  0.31986  1.0000
  H   H779      1.0  0.71425  0.40291  0.00107  1.0000
  H   H780      1.0  0.83427  0.26071  0.39553  1.0000
  C   C796      1.0  0.59496  0.29279  0.08004  1.0000
  N   N67       1.0  0.78212  0.33686  0.19138  1.0000
  C   C797      1.0  0.77798  0.34479  0.22031  1.0000
  C   C798      1.0  0.76739  0.33686  0.16594  1.0000
  C   C799      1.0  0.75859  0.35292  0.22433  1.0000
  C   C800      1.0  0.74738  0.34425  0.16924  1.0000
  C   C801      1.0  0.74301  0.35236  0.19864  1.0000
  C   C802      1.0  0.80250  0.32841  0.18716  1.0000
  H   H781      1.0  0.78978  0.34508  0.24048  1.0000
  H   H782      1.0  0.77115  0.33117  0.14291  1.0000
  H   H783      1.0  0.75582  0.35977  0.24718  1.0000
  H   H784      1.0  0.73529  0.34372  0.14917  1.0000
  H   H785      1.0  0.72760  0.35824  0.20139  1.0000
  H   H786      1.0  0.81888  0.34269  0.17096  1.0000
  H   H787      1.0  0.81210  0.32790  0.20973  1.0000
  H   H788      1.0  0.79286  0.30768  0.17685  1.0000
  S   S264      1.0  0.62590  0.26155  0.20265  1.0000
  H   H789      1.0  0.65995  0.26203  0.33050  1.0000
  H   H790      1.0  0.97343  0.38113  0.14002  1.0000
  N   N68       1.0  0.60479  0.33212  0.11106  1.0000
  C   C803      1.0  0.60032  0.31965  0.08235  1.0000
  C   C804      1.0  0.60388  0.31841  0.13793  1.0000
  H   H791      1.0  0.92554  0.43717  0.30898  1.0000
  H   H792      1.0  0.74001  0.27301  0.47828  1.0000
  H   H793      1.0  0.70941  0.26830  0.10265  1.0000
  C   C805      1.0  0.60907  0.35977  0.11330  1.0000
  H   H794      1.0  0.60145  0.33068  0.06100  1.0000
  H   H795      1.0  0.60764  0.32835  0.16066  1.0000
  H   H796      1.0  0.59754  0.28056  0.15778  1.0000
  H   H797      1.0  0.78729  0.45761  0.41160  1.0000
  C   C806      1.0  0.75224  0.46753  0.02816  1.0000
  H   H798      1.0  0.89767  0.42362  0.28164  1.0000
  H   H799      1.0  0.50154  0.41237  0.06319  1.0000
  C   C807      1.0  0.61265  0.31892  0.48265  1.0000
  C   C808      1.0  0.92851  0.28050  0.10156  1.0000
  C   C809      1.0  0.69148  0.26613  0.39967  1.0000
  H   H800      1.0  0.63369  0.33025  0.47292  1.0000
  C   C810      1.0  0.72504  0.45234  0.41480  1.0000
  C   C811      1.0  0.87755  0.48088  0.34565  1.0000
  H   H801      1.0  0.53983  0.29015  0.39033  1.0000
  C   C812      1.0  0.99504  0.37035  0.06960  1.0000
  H   H802      1.0  0.83706  0.47547  0.98482  1.0000
  H   H803      1.0  0.78851  0.26147  0.14049  1.0000
  C   C813      1.0  0.79100  0.46513  0.47340  1.0000
  C   C814      1.0  0.50890  0.30037  0.45130  1.0000
  H   H804      1.0  0.69302  0.25324  0.41748  1.0000
  H   H805      1.0  0.80563  0.25176  0.04446  1.0000
  Fe  Fe134     1.0  0.80473  0.43960  0.87385  1.0000
  S   S265      1.0  0.81821  0.44939  0.92469  1.0000
  Fe  Fe135     1.0  0.75430  0.40738  0.83293  1.0000
  S   S266      1.0  0.77696  0.42766  0.78864  1.0000
  S   S267      1.0  0.70906  0.37706  0.83520  1.0000
  Fe  Fe136     1.0  0.80991  0.42047  0.80794  1.0000
  S   S268      1.0  0.82690  0.40452  0.76998  1.0000
  Fe  Fe137     1.0  0.79644  0.46618  0.81692  1.0000
  S   S269      1.0  0.78592  0.39804  0.85102  1.0000
  S   S270      1.0  0.77091  0.44678  0.85957  1.0000
  Fe  Fe138     1.0  0.57274  0.39597  0.53074  1.0000
  S   S271      1.0  0.56061  0.39169  0.58222  1.0000
  Fe  Fe139     1.0  0.92370  0.34524  0.73808  1.0000
  S   S272      1.0  0.89733  0.32852  0.69533  1.0000
  S   S273      1.0  0.91663  0.36846  0.77725  1.0000
  Fe  Fe140     1.0  0.95779  0.31865  0.71993  1.0000
  S   S274      1.0  0.93247  0.29889  0.67722  1.0000
  H   H806      1.0  0.57927  0.44757  0.58923  1.0000
  Fe  Fe141     1.0  0.93610  0.33954  0.66901  1.0000
  S   S275      1.0  0.94715  0.35565  0.61916  1.0000
  Fe  Fe142     1.0  0.89653  0.28966  0.70786  1.0000
  H   H807      1.0  0.94235  0.29648  0.55572  1.0000
  S   S276      1.0  0.96266  0.35984  0.71072  1.0000
  S   S277      1.0  0.92146  0.30577  0.75184  1.0000
  S   S278      1.0  0.66032  0.28515  0.73019  1.0000
  H   H808      1.0  0.90821  0.49398  0.79522  1.0000
  H   H809      1.0  0.82347  0.48410  0.70960  1.0000
  C   C815      1.0  0.52874  0.30100  0.74223  1.0000
  H   H810      1.0  0.78491  0.46032  0.49848  1.0000
  C   C816      1.0  0.53460  0.28004  0.74752  1.0000
  H   H811      1.0  0.69040  0.47111  0.82096  1.0000
  H   H812      1.0  0.61039  0.30123  0.49632  1.0000
  H   H813      1.0  0.88449  0.31006  0.80379  1.0000
  H   H814      1.0  0.75581  0.42832  0.93023  1.0000
  C   C817      1.0  0.52587  0.37375  0.59342  1.0000
  C   C818      1.0  0.51909  0.36858  0.62546  1.0000
  H   H815      1.0  0.67446  0.47765  0.85434  1.0000
  C   C819      1.0  0.53884  0.28942  0.64032  1.0000
  C   C820      1.0  0.83040  0.29534  0.73574  1.0000
  S   S279      1.0  0.83152  0.46115  0.83239  1.0000
  H   H816      1.0  0.53511  0.37533  0.64283  1.0000
  H   H817      1.0  0.85469  0.29272  0.82884  1.0000
  H   H818      1.0  0.97308  0.36489  0.55878  1.0000
  H   H819      1.0  0.69563  0.26216  0.74354  1.0000
  H   H820      1.0  0.52350  0.29483  0.83119  1.0000
  C   C821      1.0  0.52732  0.30572  0.64632  1.0000
  H   H821      1.0  0.72848  0.39920  0.94910  1.0000
  H   H822      1.0  0.75291  0.47433  0.77809  1.0000
  C   C822      1.0  0.85263  0.39561  0.77264  1.0000
  C   C823      1.0  0.86622  0.39752  0.80077  1.0000
  C   C824      1.0  0.88620  0.38965  0.80167  1.0000
  C   C825      1.0  0.89255  0.37959  0.77460  1.0000
  C   C826      1.0  0.87909  0.37791  0.74647  1.0000
  C   C827      1.0  0.85937  0.38606  0.74548  1.0000
  H   H823      1.0  0.86131  0.40495  0.82181  1.0000
  H   H824      1.0  0.89662  0.39114  0.82351  1.0000
  H   H825      1.0  0.88385  0.37035  0.72545  1.0000
  H   H826      1.0  0.84905  0.38463  0.72357  1.0000
  C   C828      1.0  0.69571  0.35119  0.80636  1.0000
  C   C829      1.0  0.66798  0.33111  0.80726  1.0000
  C   C830      1.0  0.65683  0.31061  0.78410  1.0000
  C   C831      1.0  0.67339  0.31020  0.75991  1.0000
  C   C832      1.0  0.70113  0.33006  0.75925  1.0000
  C   C833      1.0  0.71227  0.35047  0.78239  1.0000
  H   H827      1.0  0.65519  0.33146  0.82597  1.0000
  H   H828      1.0  0.63554  0.29518  0.78488  1.0000
  H   H829      1.0  0.71405  0.32983  0.74062  1.0000
  H   H830      1.0  0.73366  0.36575  0.78156  1.0000
  H   H831      1.0  0.53613  0.32592  0.63602  1.0000
  N   N69       1.0  0.55763  0.32857  0.80927  1.0000
  C   C834      1.0  0.87529  0.47188  0.76267  1.0000
  C   C835      1.0  0.84345  0.49131  0.96724  1.0000
  C   C836      1.0  0.83711  0.48417  0.93543  1.0000
  C   C837      1.0  0.59615  0.32301  0.79803  1.0000
  S   S280      1.0  0.85510  0.25172  0.70414  1.0000
  H   H832      1.0  0.76355  0.40937  0.95812  1.0000
  H   H833      1.0  0.80540  0.47614  0.74675  1.0000
  H   H834      1.0  0.53279  0.45341  0.56173  1.0000
  H   H835      1.0  0.62267  0.47808  0.89370  1.0000
  H   H836      1.0  0.59429  0.35905  0.78756  1.0000
  C   C838      1.0  0.74926  0.41689  0.95279  1.0000
  H   H837      1.0  0.55661  0.29677  0.62520  1.0000
  H   H838      1.0  0.71705  0.48485  0.76198  1.0000
  S   S281      1.0  0.65334  0.39297  0.48771  1.0000
  C   C839      1.0  0.98186  0.37185  0.60832  1.0000
  C   C840      1.0  0.58346  0.33875  0.79760  1.0000
  C   C841      1.0  0.98894  0.37330  0.57643  1.0000
  H   H839      1.0  0.78593  0.46906  0.96146  1.0000
  S   S282      1.0  0.62189  0.45253  0.95246  1.0000
  C   C842      1.0  0.58837  0.46258  0.57061  1.0000
  C   C843      1.0  0.54306  0.44485  0.54729  1.0000
  C   C844      1.0  0.55623  0.28686  0.82321  1.0000
  C   C845      1.0  0.69031  0.48722  0.83575  1.0000
  H   H840      1.0  0.52333  0.26066  0.49841  1.0000
  C   C846      1.0  0.98375  0.31179  0.54018  1.0000
  H   H841      1.0  0.85808  0.28521  0.75801  1.0000
  C   C847      1.0  0.58233  0.29684  0.81081  1.0000
  H   H842      1.0  0.50991  0.36898  0.54646  1.0000
  H   H843      1.0  0.95459  0.30409  0.61201  1.0000
  H   H844      1.0  0.53817  0.42478  0.55726  1.0000
  C   C848      1.0  0.64055  0.49221  0.90686  1.0000
  H   H845      1.0  0.80686  0.33415  0.76905  1.0000
  N   N70       1.0  0.84798  0.49216  0.75055  1.0000
  H   H846      1.0  0.54397  0.31991  0.73162  1.0000
  H   H847      1.0  0.54505  0.26625  0.83243  1.0000
  C   C849      1.0  0.97861  0.26599  0.73876  1.0000
  S   S283      1.0  0.57709  0.36289  0.50762  1.0000
  C   C850      1.0  0.50441  0.29591  0.66570  1.0000
  S   S284      1.0  0.61316  0.42966  0.51290  1.0000
  H   H848      1.0  0.99738  0.38211  0.65552  1.0000
  N   N71       1.0  0.84903  0.31014  0.78746  1.0000
  C   C851      1.0  0.84683  0.29593  0.76057  1.0000
  C   C852      1.0  0.83429  0.32308  0.79096  1.0000
  H   H849      1.0  0.87922  0.45511  0.76005  1.0000
  C   C853      1.0  0.81763  0.32290  0.76662  1.0000
  C   C854      1.0  0.81592  0.30914  0.73873  1.0000
  C   C855      1.0  0.86640  0.31052  0.81317  1.0000
  C   C856      1.0  0.54483  0.34551  0.80854  1.0000
  H   H850      1.0  0.83602  0.33438  0.81226  1.0000
  C   C857      1.0  0.73487  0.49538  0.85428  1.0000
  H   H851      1.0  0.55302  0.36080  0.82777  1.0000
  H   H852      1.0  0.80359  0.30935  0.71938  1.0000
  H   H853      1.0  0.55440  0.28298  0.74136  1.0000
  H   H854      1.0  0.96004  0.26539  0.74620  1.0000
  C   C858      1.0  0.85331  0.47131  0.74704  1.0000
  H   H855      1.0  0.74413  0.46206  0.49138  1.0000
  C   C859      1.0  0.51539  0.25603  0.76244  1.0000
  C   C860      1.0  0.54410  0.30309  0.82229  1.0000
  C   C861      1.0  0.64574  0.48439  0.93621  1.0000
  H   H856      1.0  0.54858  0.35613  0.78550  1.0000
  H   H857      1.0  0.53459  0.44092  0.52304  1.0000
  N   N72       1.0  0.57257  0.46367  0.54700  1.0000
  H   H858      1.0  0.97870  0.30895  0.51531  1.0000
  S   S285      1.0  0.58115  0.25632  0.70805  1.0000
  H   H859      1.0  0.52229  0.33305  0.81106  1.0000
  C   C862      1.0  0.89152  0.49367  0.78244  1.0000
  H   H860      1.0  0.82922  0.28445  0.71422  1.0000
  H   H861      1.0  0.59164  0.28416  0.81080  1.0000
  C   C863      1.0  0.61654  0.48053  0.57086  1.0000
  H   H862      1.0  0.87462  0.32970  0.82698  1.0000
  C   C864      1.0  0.75623  0.49472  0.78096  1.0000
  H   H863      1.0  0.72993  0.47538  0.84583  1.0000
  H   H864      1.0  0.84026  0.45380  0.73253  1.0000
  H   H865      1.0  0.62904  0.47910  0.58921  1.0000
  Fe  Fe143     1.0  0.61588  0.25274  0.72829  1.0000
  C   C865      1.0  0.82448  0.49075  0.73438  1.0000
  C   C866      1.0  0.52736  0.26356  0.65405  1.0000
  H   H866      1.0  0.61650  0.33100  0.78833  1.0000
  C   C867      1.0  0.96341  0.30475  0.56280  1.0000
  C   C868      1.0  0.97048  0.30905  0.59467  1.0000
  H   H867      1.0  0.61011  0.33263  0.49931  1.0000
  S   S286      1.0  0.54916  0.40034  0.49129  1.0000
  H   H868      1.0  0.99769  0.42580  0.55109  1.0000
  S   S287      1.0  0.99822  0.31982  0.72320  1.0000
  C   C869      1.0  0.50498  0.36515  0.57120  1.0000
  C   C870      1.0  0.50332  0.29765  0.75081  1.0000
  H   H869      1.0  0.84049  0.49960  0.88839  1.0000
  H   H870      1.0  0.53635  0.30898  0.49011  1.0000
  N   N73       1.0  0.50512  0.25428  0.67339  1.0000
  C   C871      1.0  0.99957  0.28956  0.72492  1.0000
  C   C872      1.0  0.58397  0.48309  0.52402  1.0000
  H   H871      1.0  0.67323  0.49693  0.97556  1.0000
  H   H872      1.0  0.57153  0.48407  0.50525  1.0000
  H   H873      1.0  0.99029  0.32952  0.65050  1.0000
  C   C873      1.0  0.77047  0.46095  0.97971  1.0000
  N   N74       1.0  0.99713  0.32038  0.60374  1.0000
  N   N75       1.0  0.74977  0.43446  0.97842  1.0000
  H   H874      1.0  0.68490  0.49941  0.81991  1.0000
  H   H875      1.0  0.59566  0.49989  0.95334  1.0000
  Fe  Fe144     1.0  0.61532  0.39659  0.48589  1.0000
  C   C874      1.0  0.62841  0.50005  0.54714  1.0000
  H   H876      1.0  0.53640  0.25097  0.64923  1.0000
  Fe  Fe145     1.0  0.89122  0.63391  0.05417  1.0000
  S   S288      1.0  0.89093  0.61401  0.09985  1.0000
  S   S289      1.0  0.89091  0.67344  0.04939  1.0000
  Fe  Fe146     1.0  0.88937  0.58797  0.01469  1.0000
  S   S290      1.0  0.88974  0.56501  0.05738  1.0000
  C   C875      1.0  0.74613  0.73698  0.21363  1.0000
  Fe  Fe147     1.0  0.85914  0.57544  0.07667  1.0000
  S   S291      1.0  0.82171  0.54417  0.10288  1.0000
  Fe  Fe148     1.0  0.92175  0.60588  0.07637  1.0000
  S   S292      1.0  0.95823  0.60923  0.10289  1.0000
  S   S293      1.0  0.85697  0.59603  0.03285  1.0000
  S   S294      1.0  0.92398  0.62812  0.03174  1.0000
  H   H877      1.0  0.84053  0.61008  0.39089  1.0000
  C   C876      1.0  0.85253  0.69377  0.46789  1.0000
  Fe  Fe149     1.0  0.60552  0.71589  0.13581  1.0000
  H   H878      1.0  0.84608  0.74029  0.34552  1.0000
  S   S295      1.0  0.57079  0.70205  0.10050  1.0000
  C   C877      1.0  0.84197  0.63012  0.39496  1.0000
  C   C878      1.0  0.83872  0.51446  0.40662  1.0000
  C   C879      1.0  0.76604  0.51297  0.10492  1.0000
  Fe  Fe150     1.0  0.62887  0.71892  0.20157  1.0000
  S   S296      1.0  0.62302  0.70240  0.25118  1.0000
  S   S297      1.0  0.86945  0.59245  0.43784  1.0000
  S   S298      1.0  0.62436  0.69356  0.15899  1.0000
  N   N76       1.0  0.81782  0.63138  0.09567  1.0000
  Fe  Fe151     1.0  0.71439  0.68060  0.40382  1.0000
  S   S299      1.0  0.74158  0.69525  0.36163  1.0000
  S   S300      1.0  0.70590  0.71236  0.42388  1.0000
  Fe  Fe152     1.0  0.70705  0.62333  0.40067  1.0000
  S   S301      1.0  0.73320  0.63420  0.35703  1.0000
  S   S302      1.0  0.69955  0.58502  0.42719  1.0000
  Fe  Fe153     1.0  0.76124  0.67309  0.38200  1.0000
  S   S303      1.0  0.80675  0.69043  0.37810  1.0000
  Fe  Fe154     1.0  0.71101  0.65550  0.34043  1.0000
  S   S304      1.0  0.70309  0.65937  0.28894  1.0000
  S   S305      1.0  0.73668  0.66173  0.42641  1.0000
  S   S306      1.0  0.68219  0.64150  0.38181  1.0000
  H   H879      1.0  0.51089  0.63337  0.99949  1.0000
  S   S307      1.0  0.60642  0.73834  0.17989  1.0000
  H   H880      1.0  0.72297  0.71982  0.30611  1.0000
  H   H881      1.0  0.92671  0.53665  0.02461  1.0000
  C   C880      1.0  0.81608  0.62163  0.15997  1.0000
  H   H882      1.0  0.94562  0.71904  0.11937  1.0000
  H   H883      1.0  0.75962  0.61518  0.46915  1.0000
  H   H884      1.0  0.72685  0.72527  0.20131  1.0000
  S   S308      1.0  0.90997  0.66774  0.44822  1.0000
  C   C881      1.0  0.84428  0.54144  0.41094  1.0000
  Fe  Fe155     1.0  0.66487  0.72936  0.14517  1.0000
  C   C882      1.0  0.62071  0.52190  0.42696  1.0000
  C   C883      1.0  0.64399  0.54763  0.42175  1.0000
  C   C884      1.0  0.66957  0.55277  0.43198  1.0000
  C   C885      1.0  0.67157  0.53183  0.44727  1.0000
  C   C886      1.0  0.94551  0.73958  0.07707  1.0000
  C   C887      1.0  0.81778  0.63582  0.06170  1.0000
  H   H885      1.0  0.64212  0.56353  0.41003  1.0000
  C   C888      1.0  0.82431  0.69253  0.41298  1.0000
  C   C889      1.0  0.85052  0.69598  0.41098  1.0000
  C   C890      1.0  0.86453  0.69644  0.43835  1.0000
  H   H886      1.0  0.65410  0.52658  0.04072  1.0000
  C   C891      1.0  0.82049  0.60543  0.13876  1.0000
  C   C892      1.0  0.81256  0.69050  0.44255  1.0000
  H   H887      1.0  0.85988  0.69793  0.38819  1.0000
  H   H888      1.0  0.88477  0.69927  0.43653  1.0000
  C   C893      1.0  0.87684  0.54856  0.45166  1.0000
  H   H889      1.0  0.79263  0.68844  0.44438  1.0000
  C   C894      1.0  0.64346  0.68804  0.26079  1.0000
  C   C895      1.0  0.64271  0.67837  0.29141  1.0000
  C   C896      1.0  0.66075  0.66932  0.30033  1.0000
  C   C897      1.0  0.67907  0.66909  0.27837  1.0000
  C   C898      1.0  0.67910  0.67783  0.24749  1.0000
  C   C899      1.0  0.66168  0.68766  0.23884  1.0000
  H   H890      1.0  0.62852  0.67839  0.30844  1.0000
  H   H891      1.0  0.66039  0.66238  0.32412  1.0000
  H   H892      1.0  0.69271  0.67712  0.23015  1.0000
  H   H893      1.0  0.66227  0.69479  0.21508  1.0000
  H   H894      1.0  0.78720  0.72969  0.26602  1.0000
  H   H895      1.0  0.94750  0.72536  0.06172  1.0000
  C   C900      1.0  0.86341  0.55868  0.43341  1.0000
  C   C901      1.0  0.94096  0.55749  0.01780  1.0000
  S   S309      1.0  0.70208  0.51386  0.06360  1.0000
  H   H896      1.0  0.83955  0.62528  0.45726  1.0000
  C   C902      1.0  0.82673  0.69131  0.46997  1.0000
  C   C903      1.0  0.96066  0.57521  0.03897  1.0000
  H   H897      1.0  0.60100  0.51822  0.41916  1.0000
  C   C904      1.0  0.99010  0.63964  0.10732  1.0000
  H   H898      1.0  0.81560  0.61793  0.18507  1.0000
  C   C905      1.0  0.53012  0.65503  0.12879  1.0000
  C   C906      1.0  0.53770  0.67352  0.10388  1.0000
  C   C907      1.0  0.51826  0.66971  0.08098  1.0000
  H   H899      1.0  0.74861  0.72034  0.13281  1.0000
  H   H900      1.0  0.97952  0.66497  0.08020  1.0000
  H   H901      1.0  0.54498  0.65772  0.14647  1.0000
  H   H902      1.0  0.52401  0.68397  0.06166  1.0000
  H   H903      1.0  0.97709  0.74251  0.40054  1.0000
  H   H904      1.0  0.68264  0.53611  0.01485  1.0000
  H   H905      1.0  0.80946  0.65576  0.16498  1.0000
  C   C908      1.0  0.78414  0.54740  0.06427  1.0000
  C   C909      1.0  0.78855  0.53410  0.08933  1.0000
  C   C910      1.0  0.99736  0.74770  0.44490  1.0000
  C   C911      1.0  0.99531  0.66418  0.09357  1.0000
  S   S310      1.0  0.64600  0.74945  0.11765  1.0000
  H   H906      1.0  0.80116  0.56330  0.05161  1.0000
  C   C912      1.0  0.78005  0.73950  0.24978  1.0000
  C   C913      1.0  0.88298  0.68686  0.08245  1.0000
  C   C914      1.0  0.88246  0.67702  0.11272  1.0000
  C   C915      1.0  0.87699  0.68878  0.13876  1.0000
  C   C916      1.0  0.87215  0.71051  0.13470  1.0000
  C   C917      1.0  0.87260  0.72033  0.10445  1.0000
  C   C918      1.0  0.87788  0.70843  0.07837  1.0000
  H   H907      1.0  0.88653  0.66056  0.11618  1.0000
  H   H908      1.0  0.87663  0.68109  0.16216  1.0000
  C   C919      1.0  0.67034  0.72593  0.36328  1.0000
  H   H909      1.0  0.87827  0.71615  0.05499  1.0000
  H   H910      1.0  0.82453  0.65746  0.05633  1.0000
  S   S311      1.0  0.86543  0.72471  0.16790  1.0000
  C   C920      1.0  0.75355  0.74138  0.13165  1.0000
  C   C921      1.0  0.79656  0.62472  0.40256  1.0000
  C   C922      1.0  0.73609  0.74413  0.42558  1.0000
  H   H911      1.0  0.83383  0.54910  0.39663  1.0000
  C   C923      1.0  0.73933  0.50561  0.09606  1.0000
  C   C924      1.0  0.65759  0.74159  0.31712  1.0000
  Fe  Fe156     1.0  0.95124  0.68419  0.46989  1.0000
  H   H912      1.0  0.96184  0.56832  0.06244  1.0000
  C   C925      1.0  0.97828  0.60219  0.03027  1.0000
  Fe  Fe157     1.0  0.89978  0.62728  0.46938  1.0000
  H   H913      1.0  0.75422  0.55165  0.03742  1.0000
  H   H914      1.0  0.75655  0.61905  0.41156  1.0000
  H   H915      1.0  0.76197  0.72687  0.43210  1.0000
  C   C926      1.0  0.77651  0.61829  0.45420  1.0000
  S   S312      1.0  0.99069  0.71395  0.44612  1.0000
  C   C927      1.0  0.82132  0.61066  0.10654  1.0000
  H   H916      1.0  0.64353  0.74607  0.30480  1.0000
  H   H917      1.0  0.79704  0.62253  0.05207  1.0000
  S   S313      1.0  0.69843  0.72085  0.13155  1.0000
  C   C928      1.0  0.77473  0.62048  0.42175  1.0000
  C   C929      1.0  0.50131  0.60723  0.03961  1.0000
  S   S314      1.0  0.50428  0.72373  0.45885  1.0000
  H   H918      1.0  0.62047  0.50056  0.00108  1.0000
  C   C930      1.0  0.81239  0.64266  0.14872  1.0000
  H   H919      1.0  0.71537  0.73394  0.27293  1.0000
  H   H920      1.0  0.70577  0.72185  0.35823  1.0000
  H   H921      1.0  0.86868  0.73694  0.10108  1.0000
  C   C931      1.0  0.73501  0.51980  0.07200  1.0000
  H   H922      1.0  0.52585  0.71991  0.12507  1.0000
  C   C932      1.0  0.75747  0.54062  0.05606  1.0000
  H   H923      1.0  0.81050  0.66371  0.10774  1.0000
  H   H924      1.0  0.86195  0.64389  0.40610  1.0000
  C   C933      1.0  0.62794  0.51910  0.98747  1.0000
  C   C934      1.0  0.50327  0.63289  0.13067  1.0000
  H   H925      1.0  0.82323  0.58884  0.14704  1.0000
  C   C935      1.0  0.65272  0.73278  0.34833  1.0000
  C   C936      1.0  0.94420  0.73598  0.10973  1.0000
  H   H926      1.0  0.83234  0.63123  0.04938  1.0000
  H   H927      1.0  0.82493  0.59807  0.09035  1.0000
  H   H928      1.0  0.86270  0.52409  0.00101  1.0000
  C   C937      1.0  0.66735  0.54168  0.02273  1.0000
  H   H929      1.0  0.98905  0.63238  0.99431  1.0000
  C   C938      1.0  0.82140  0.62410  0.44718  1.0000
  N   N77       1.0  0.69666  0.73563  0.31577  1.0000
  C   C939      1.0  0.81310  0.64714  0.11626  1.0000
  C   C940      1.0  0.64833  0.50603  0.45222  1.0000
  H   H930      1.0  0.76927  0.50256  0.12430  1.0000
  C   C941      1.0  0.87118  0.52155  0.44747  1.0000
  H   H931      1.0  0.63509  0.73084  0.36073  1.0000
  N   N78       1.0  0.81959  0.62664  0.41539  1.0000
  H   H932      1.0  0.66673  0.71887  0.38750  1.0000
  C   C942      1.0  0.69242  0.72761  0.34658  1.0000
  H   H933      1.0  0.79506  0.62688  0.37740  1.0000
  H   H934      1.0  0.84173  0.63937  0.37202  1.0000
  H   H935      1.0  0.74273  0.70242  0.23897  1.0000
  N   N79       1.0  0.65160  0.54213  0.99567  1.0000
  H   H936      1.0  0.67818  0.56182  0.03456  1.0000
  H   H937      1.0  0.99326  0.61622  0.04692  1.0000
  C   C943      1.0  0.50378  0.70785  0.12318  1.0000
  H   H938      1.0  0.93039  0.72719  0.16938  1.0000
  H   H939      1.0  0.88169  0.51397  0.46182  1.0000
  H   H940      1.0  0.50153  0.72961  0.08287  1.0000
  C   C944      1.0  0.67994  0.74316  0.30118  1.0000
  H   H941      1.0  0.89158  0.56152  0.46904  1.0000
  C   C945      1.0  0.75508  0.72418  0.23456  1.0000
  H   H942      1.0  0.69125  0.53562  0.45529  1.0000
  C   C946      1.0  0.73251  0.74758  0.13066  1.0000
  C   C947      1.0  0.62274  0.50096  0.44214  1.0000
  H   H943      1.0  0.82424  0.50168  0.38897  1.0000
  H   H944      1.0  0.52098  0.61978  0.05076  1.0000
  C   C948      1.0  0.76117  0.74543  0.42956  1.0000
  C   C949      1.0  0.85213  0.50435  0.42498  1.0000
  C   C950      1.0  0.71962  0.73671  0.29858  1.0000
  C   C951      1.0  0.80003  0.62018  0.46710  1.0000
  C   C952      1.0  0.97576  0.61118  0.00053  1.0000
  C   C953      1.0  0.93900  0.74903  0.16328  1.0000
  H   H945      1.0  0.68288  0.74902  0.27655  1.0000
  C   C954      1.0  0.93919  0.56709  0.98810  1.0000
  H   H946      1.0  0.86705  0.54811  0.90440  1.0000
  Fe  Fe158     1.0  0.89772  0.67672  0.49473  1.0000
  Fe  Fe159     1.0  0.71360  0.56984  0.78643  1.0000
  S   S315      1.0  0.74091  0.59421  0.82611  1.0000
  S   S316      1.0  0.71406  0.53378  0.76449  1.0000
  Fe  Fe160     1.0  0.67907  0.59747  0.79126  1.0000
  S   S317      1.0  0.70294  0.62267  0.83263  1.0000
  S   S318      1.0  0.64385  0.59866  0.76709  1.0000
  Fe  Fe161     1.0  0.73963  0.62968  0.80462  1.0000
  S   S319      1.0  0.77416  0.67339  0.80514  1.0000
  Fe  Fe162     1.0  0.70202  0.58482  0.85044  1.0000
  S   S320      1.0  0.69964  0.57197  0.90143  1.0000
  S   S321      1.0  0.71580  0.60621  0.76221  1.0000
  S   S322      1.0  0.67464  0.55876  0.81177  1.0000
  Fe  Fe163     1.0  0.92903  0.65528  0.53123  1.0000
  S   S323      1.0  0.93862  0.65198  0.58221  1.0000
  Fe  Fe164     1.0  0.58692  0.72405  0.65849  1.0000
  S   S324      1.0  0.56906  0.69547  0.69958  1.0000
  S   S325      1.0  0.57597  0.71536  0.60699  1.0000
  C   C955      1.0  0.52339  0.67320  0.61806  1.0000
  H   H947      1.0  0.80181  0.61877  0.49233  1.0000
  Fe  Fe165     1.0  0.61145  0.71835  0.72032  1.0000
  S   S326      1.0  0.63867  0.70727  0.74860  1.0000
  Fe  Fe166     1.0  0.56346  0.72903  0.71994  1.0000
  S   S327      1.0  0.52284  0.71929  0.74073  1.0000
  H   H948      1.0  0.89780  0.53145  0.80211  1.0000
  C   C956      1.0  0.85795  0.51885  0.97647  1.0000
  C   C957      1.0  0.97242  0.67262  0.59570  1.0000
  C   C958      1.0  0.76024  0.51191  0.86838  1.0000
  C   C959      1.0  0.53280  0.69347  0.56622  1.0000
  C   C960      1.0  0.54176  0.69239  0.59664  1.0000
  C   C961      1.0  0.76694  0.53780  0.87902  1.0000
  H   H949      1.0  0.98941  0.68922  0.55023  1.0000
  H   H950      1.0  0.81744  0.68954  0.49277  1.0000
  H   H951      1.0  0.54686  0.70801  0.54936  1.0000
  S   S328      1.0  0.93989  0.69692  0.51461  1.0000
  H   H952      1.0  0.96184  0.66016  0.64400  1.0000
  H   H953      1.0  0.65919  0.63159  0.68430  1.0000
  S   S329      1.0  0.62988  0.74425  0.67705  1.0000
  H   H954      1.0  0.75307  0.56684  0.88380  1.0000
  C   C962      1.0  0.79761  0.68784  0.77391  1.0000
  C   C963      1.0  0.81617  0.71594  0.77428  1.0000
  C   C964      1.0  0.83513  0.72832  0.74978  1.0000
  C   C965      1.0  0.83579  0.71259  0.72484  1.0000
  C   C966      1.0  0.81720  0.68447  0.72440  1.0000
  C   C967      1.0  0.79805  0.67211  0.74882  1.0000
  H   H955      1.0  0.81583  0.72819  0.79362  1.0000
  C   C968      1.0  0.99352  0.68930  0.57509  1.0000
  H   H956      1.0  0.78386  0.65041  0.74841  1.0000
  C   C969      1.0  0.64076  0.62819  0.76465  1.0000
  C   C970      1.0  0.62050  0.62792  0.74533  1.0000
  C   C971      1.0  0.61883  0.65169  0.74090  1.0000
  C   C972      1.0  0.63738  0.67589  0.75597  1.0000
  C   C973      1.0  0.65704  0.67588  0.77608  1.0000
  C   C974      1.0  0.65879  0.65220  0.78036  1.0000
  H   H957      1.0  0.60637  0.60937  0.73323  1.0000
  H   H958      1.0  0.60358  0.65140  0.72542  1.0000
  H   H959      1.0  0.67135  0.69446  0.78800  1.0000
  H   H960      1.0  0.67422  0.65260  0.79561  1.0000
  C   C975      1.0  0.92377  0.70583  0.75043  1.0000
  H   H961      1.0  0.74185  0.66582  0.74138  1.0000
  C   C976      1.0  0.68596  0.52921  0.94138  1.0000
  C   C977      1.0  0.68009  0.53744  0.91276  1.0000
  C   C978      1.0  0.62392  0.54183  0.94160  1.0000
  H   H962      1.0  0.92099  0.73975  0.49083  1.0000
  C   C979      1.0  0.87648  0.71683  0.59547  1.0000
  C   C980      1.0  0.74828  0.54681  0.87550  1.0000
  H   H963      1.0  0.65293  0.52479  0.87305  1.0000
  C   C981      1.0  0.73999  0.52705  0.77570  1.0000
  S   S330      1.0  0.60379  0.74928  0.74471  1.0000
  C   C982      1.0  0.90858  0.73777  0.76185  1.0000
  C   C983      1.0  0.95347  0.72181  0.60388  1.0000
  C   C984      1.0  0.78511  0.54174  0.79646  1.0000
  C   C985      1.0  0.76455  0.54751  0.78825  1.0000
  S   S331      1.0  0.80713  0.50892  0.80382  1.0000
  H   H964      1.0  0.80423  0.55777  0.80571  1.0000
  H   H965      1.0  0.76798  0.56794  0.79089  1.0000
  C   C986      1.0  0.86667  0.53945  0.95383  1.0000
  H   H966      1.0  0.61372  0.54143  0.91988  1.0000
  C   C987      1.0  0.50525  0.71598  0.65296  1.0000
  C   C988      1.0  0.51296  0.74412  0.73772  1.0000
  C   C989      1.0  0.65772  0.51864  0.89508  1.0000
  C   C990      1.0  0.86040  0.53230  0.92205  1.0000
  S   S332      1.0  0.88540  0.63587  0.51512  1.0000
  S   S333      1.0  0.86936  0.69321  0.50234  1.0000
  H   H967      1.0  0.92347  0.55328  0.97202  1.0000
  H   H968      1.0  0.94035  0.58710  0.93303  1.0000
  C   C991      1.0  0.72331  0.52992  0.86083  1.0000
  C   C992      1.0  0.67371  0.65082  0.69501  1.0000
  C   C993      1.0  0.78093  0.51533  0.79306  1.0000
  C   C994      1.0  0.66893  0.50276  0.95303  1.0000
  H   H969      1.0  0.95894  0.71197  0.77684  1.0000
  C   C995      1.0  0.89832  0.73979  0.60898  1.0000
  C   C996      1.0  0.90563  0.71524  0.74504  1.0000
  H   H970      1.0  0.78664  0.55092  0.88971  1.0000
  C   C997      1.0  0.92368  0.74134  0.61123  1.0000
  C   C998      1.0  0.97808  0.67295  0.62791  1.0000
  C   C999      1.0  0.94441  0.71881  0.77269  1.0000
  S   S334      1.0  0.86002  0.72737  0.69435  1.0000
  H   H971      1.0  0.85668  0.71534  0.59364  1.0000
  C   C1000     1.0  0.61375  0.51860  0.96038  1.0000
  H   H972      1.0  0.81764  0.67219  0.70517  1.0000
  C   C1001     1.0  0.73186  0.67669  0.75152  1.0000
  C   C1002     1.0  0.68910  0.69802  0.70615  1.0000
  H   H973      1.0  0.88932  0.70519  0.72798  1.0000
  H   H974      1.0  0.69492  0.63391  0.71929  1.0000
  C   C1003     1.0  0.69400  0.65226  0.71491  1.0000
  H   H975      1.0  0.65686  0.58297  0.93487  1.0000
  H   H976      1.0  0.90834  0.68108  0.57935  1.0000
  C   C1004     1.0  0.67130  0.67389  0.69063  1.0000
  H   H977      1.0  0.72195  0.66675  0.77409  1.0000
  C   C1005     1.0  0.88572  0.51468  0.78625  1.0000
  S   S335      1.0  0.88657  0.57425  0.96404  1.0000
  H   H978      1.0  0.70910  0.53722  0.85764  1.0000
  C   C1006     1.0  0.70917  0.69874  0.72589  1.0000
  C   C1007     1.0  0.90573  0.69779  0.58747  1.0000
  H   H979      1.0  0.97016  0.74272  0.60939  1.0000
  H   H980      1.0  0.95219  0.70782  0.62295  1.0000
  H   H981      1.0  0.72221  0.71724  0.73883  1.0000
  N   N80       1.0  0.92712  0.72051  0.60045  1.0000
  H   H982      1.0  0.53339  0.74859  0.62274  1.0000
  H   H983      1.0  0.74836  0.69777  0.75677  1.0000
  H   H984      1.0  0.50101  0.73360  0.57759  1.0000
  C   C1008     1.0  0.66185  0.56493  0.97722  1.0000
  N   N81       1.0  0.71157  0.67609  0.72976  1.0000
  H   H985      1.0  0.53015  0.67200  0.64146  1.0000
  C   C1009     1.0  0.50559  0.67593  0.55740  1.0000
  H   H986      1.0  0.65026  0.51394  0.54675  1.0000
  H   H987      1.0  0.89433  0.74489  0.75752  1.0000
  H   H988      1.0  0.86342  0.67789  0.57360  1.0000
  C   C1010     1.0  0.88019  0.69573  0.58448  1.0000
  H   H989      1.0  0.94458  0.61700  0.95243  1.0000
  H   H990      1.0  0.70336  0.54357  0.95504  1.0000
  H   H991      1.0  0.51944  0.72239  0.67243  1.0000
  H   H992      1.0  0.92185  0.68850  0.73740  1.0000
  H   H993      1.0  0.62099  0.51657  0.50508  1.0000
  C   C1011     1.0  0.64806  0.56521  0.95010  1.0000
  C   C1012     1.0  0.86374  0.51359  0.77002  1.0000
  S   S336      1.0  0.94278  0.64316  0.48730  1.0000
  H   H994      1.0  0.65490  0.67276  0.67639  1.0000
  C   C1013     1.0  0.73596  0.50070  0.77189  1.0000
  C   C1014     1.0  0.94667  0.74120  0.78918  1.0000
  H   H995      1.0  0.95908  0.71539  0.58172  1.0000
  H   H996      1.0  0.97408  0.61588  0.93760  1.0000
  H   H997      1.0  0.68640  0.71560  0.70420  1.0000
  C   C1015     1.0  0.84542  0.50480  0.91291  1.0000
  C   C1016     1.0  0.95387  0.60393  0.94917  1.0000
  C   C1017     1.0  0.51313  0.73101  0.62499  1.0000
  N   N82       1.0  0.71697  0.50467  0.85025  1.0000
  H   H998      1.0  0.77485  0.50493  0.87033  1.0000
  H   H999      1.0  0.85906  0.52975  0.77361  1.0000
  H   H1000     1.0  0.82543  0.51081  0.73420  1.0000
  H   H1001     1.0  0.68130  0.58274  0.98273  1.0000
  N   N83       1.0  0.95653  0.59364  0.97980  1.0000
  C   C1018     1.0  0.61202  0.50155  0.52374  1.0000
  H   H1002     1.0  0.84919  0.75000  0.75024  1.0000
  Fe  Fe167     1.0  0.66882  0.97294  0.07100  1.0000
  S   S337      1.0  0.67178  0.95043  0.02925  1.0000
  Fe  Fe168     1.0  0.60654  0.93859  0.07431  1.0000
  S   S338      1.0  0.60469  0.91426  0.03175  1.0000
  S   S339      1.0  0.57188  0.93148  0.10746  1.0000
  Fe  Fe169     1.0  0.63986  0.91283  0.05397  1.0000
  S   S340      1.0  0.63763  0.87192  0.05186  1.0000
  C   C1019     1.0  0.71781  0.86227  0.11765  1.0000
  C   C1020     1.0  0.59297  0.83666  0.42115  1.0000
  S   S341      1.0  0.64023  0.93506  0.09772  1.0000
  Fe  Fe170     1.0  0.87306  0.76778  0.16457  1.0000
  S   S342      1.0  0.87935  0.79264  0.12119  1.0000
  C   C1021     1.0  0.57915  0.86290  0.10266  1.0000
  Fe  Fe171     1.0  0.88173  0.81443  0.20816  1.0000
  S   S343      1.0  0.89062  0.84344  0.16789  1.0000
  S   S344      1.0  0.87364  0.81897  0.25961  1.0000
  Fe  Fe172     1.0  0.85428  0.80780  0.14565  1.0000
  S   S345      1.0  0.82163  0.81602  0.12754  1.0000
  Fe  Fe173     1.0  0.91550  0.82605  0.14703  1.0000
  S   S346      1.0  0.95277  0.84267  0.11444  1.0000
  S   S347      1.0  0.84465  0.77971  0.18652  1.0000
  S   S348      1.0  0.90984  0.80010  0.18968  1.0000
  Fe  Fe174     1.0  0.82313  0.89797  0.35750  1.0000
  S   S349      1.0  0.84928  0.90129  0.39875  1.0000
  S   S350      1.0  0.83801  0.90288  0.30723  1.0000
  Fe  Fe175     1.0  0.76932  0.88255  0.39819  1.0000
  S   S351      1.0  0.79520  0.88413  0.44172  1.0000
  S   S352      1.0  0.70180  0.86878  0.39961  1.0000
  Fe  Fe176     1.0  0.82995  0.92298  0.42273  1.0000
  S   S353      1.0  0.84541  0.95671  0.45947  1.0000
  Fe  Fe177     1.0  0.81196  0.86265  0.41370  1.0000
  S   S354      1.0  0.81519  0.82643  0.42912  1.0000
  S   S355      1.0  0.80692  0.92287  0.38011  1.0000
  S   S356      1.0  0.78693  0.85859  0.37151  1.0000
  S   S357      1.0  0.66100  0.81549  0.16630  1.0000
  C   C1022     1.0  0.57805  0.88364  0.15289  1.0000
  Fe  Fe178     1.0  0.63680  0.95416  0.01061  1.0000
  C   C1023     1.0  0.74256  0.99598  0.07509  1.0000
  N   N84       1.0  0.56423  0.86443  0.12710  1.0000
  C   C1024     1.0  0.99889  0.78473  0.41461  1.0000
  S   S358      1.0  0.60301  0.96368  0.44339  1.0000
  H   H1003     1.0  0.74069  0.93366  0.41960  1.0000
  H   H1004     1.0  0.71711  0.91616  0.08362  1.0000
  C   C1025     1.0  0.85030  0.79465  0.38443  1.0000
  H   H1005     1.0  0.69793  0.80945  0.12197  1.0000
  C   C1026     1.0  0.52831  0.77738  0.47554  1.0000
  H   H1006     1.0  0.71578  0.76735  0.41986  1.0000
  H   H1007     1.0  0.76766  0.94653  0.39064  1.0000
  C   C1027     1.0  0.99872  0.88455  0.14381  1.0000
  C   C1028     1.0  0.98802  0.86710  0.11795  1.0000
  C   C1029     1.0  0.52064  0.81086  0.39701  1.0000
  C   C1030     1.0  0.93816  0.77414  0.11683  1.0000
  C   C1031     1.0  0.50393  0.75379  0.46752  1.0000
  C   C1032     1.0  0.55639  0.79144  0.40509  1.0000
  H   H1008     1.0  0.98537  0.88320  0.16282  1.0000
  C   C1033     1.0  0.93935  0.77832  0.08431  1.0000
  H   H1009     1.0  0.62640  0.81748  0.06123  1.0000
  H   H1010     1.0  0.77318  0.98524  0.06402  1.0000
  C   C1034     1.0  0.68434  0.87143  0.43289  1.0000
  H   H1011     1.0  0.99764  0.85591  0.07325  1.0000
  N   N85       1.0  0.70701  0.84394  0.09351  1.0000
  S   S359      1.0  0.63541  0.97875  0.05119  1.0000
  C   C1035     1.0  0.65254  0.88433  0.45472  1.0000
  C   C1036     1.0  0.66783  0.88317  0.42926  1.0000
  H   H1012     1.0  0.75529  0.77474  0.19193  1.0000
  H   H1013     1.0  0.79707  0.75729  0.13200  1.0000
  H   H1014     1.0  0.64024  0.89381  0.45180  1.0000
  H   H1015     1.0  0.66694  0.89151  0.40670  1.0000
  C   C1037     1.0  0.78449  0.79496  0.42795  1.0000
  C   C1038     1.0  0.75941  0.79370  0.42356  1.0000
  C   C1039     1.0  0.73518  0.76830  0.42278  1.0000
  H   H1016     1.0  0.72254  0.85629  0.13995  1.0000
  H   H1017     1.0  0.80429  0.77145  0.43579  1.0000
  C   C1040     1.0  0.78521  0.77076  0.43139  1.0000
  H   H1018     1.0  0.75867  0.81227  0.42135  1.0000
  N   N86       1.0  0.56522  0.81847  0.40975  1.0000
  C   C1041     1.0  0.78748  0.78942  0.12894  1.0000
  S   S360      1.0  0.58614  0.88987  0.46215  1.0000
  H   H1019     1.0  0.58466  0.87412  0.17104  1.0000
  H   H1020     1.0  0.60109  0.85768  0.41197  1.0000
  C   C1042     1.0  0.73899  0.77479  0.12912  1.0000
  C   C1043     1.0  0.76643  0.79565  0.12783  1.0000
  C   C1044     1.0  0.72187  0.88860  0.11438  1.0000
  H   H1021     1.0  0.72283  0.77963  0.12845  1.0000
  H   H1022     1.0  0.77142  0.81666  0.12608  1.0000
  C   C1045     1.0  0.86172  0.84127  0.27071  1.0000
  C   C1046     1.0  0.84683  0.83625  0.29877  1.0000
  C   C1047     1.0  0.83942  0.85495  0.31008  1.0000
  C   C1048     1.0  0.84627  0.87858  0.29296  1.0000
  C   C1049     1.0  0.85993  0.88292  0.26406  1.0000
  C   C1050     1.0  0.86772  0.86438  0.25299  1.0000
  H   H1023     1.0  0.84097  0.81787  0.31192  1.0000
  H   H1024     1.0  0.82848  0.85113  0.33207  1.0000
  H   H1025     1.0  0.86513  0.90105  0.25057  1.0000
  H   H1026     1.0  0.87907  0.86843  0.23123  1.0000
  C   C1051     1.0  0.53763  0.90481  0.10498  1.0000
  C   C1052     1.0  0.52745  0.88854  0.07815  1.0000
  H   H1027     1.0  0.84200  0.79934  0.40491  1.0000
  H   H1028     1.0  0.60729  0.82979  0.41336  1.0000
  H   H1029     1.0  0.69778  0.88269  0.03994  1.0000
  C   C1053     1.0  0.52025  0.89959  0.13096  1.0000
  H   H1030     1.0  0.54059  0.89244  0.05798  1.0000
  H   H1031     1.0  0.52473  0.84856  0.14759  1.0000
  H   H1032     1.0  0.82720  0.75110  0.39252  1.0000
  H   H1033     1.0  0.52797  0.91220  0.15176  1.0000
  C   C1054     1.0  0.64080  0.85562  0.08552  1.0000
  C   C1055     1.0  0.65111  0.86960  0.11383  1.0000
  C   C1056     1.0  0.65626  0.85673  0.13901  1.0000
  C   C1057     1.0  0.65083  0.82980  0.13612  1.0000
  C   C1058     1.0  0.63931  0.81549  0.10832  1.0000
  C   C1059     1.0  0.63449  0.82843  0.08304  1.0000
  H   H1034     1.0  0.65619  0.89062  0.11591  1.0000
  H   H1035     1.0  0.66518  0.86789  0.16050  1.0000
  H   H1036     1.0  0.63481  0.79468  0.10592  1.0000
  C   C1060     1.0  0.56631  0.84478  0.07780  1.0000
  H   H1037     1.0  0.93729  0.79496  0.07480  1.0000
  C   C1061     1.0  0.70051  0.85127  0.06560  1.0000
  Fe  Fe179     1.0  0.64755  0.77062  0.16281  1.0000
  C   C1062     1.0  0.70415  0.87736  0.06159  1.0000
  H   H1038     1.0  0.88600  0.85718  0.35238  1.0000
  C   C1063     1.0  0.71486  0.89610  0.08618  1.0000
  C   C1064     1.0  0.51152  0.78331  0.39204  1.0000
  H   H1039     1.0  0.72971  0.90282  0.13388  1.0000
  H   H1040     1.0  0.99314  0.79170  0.39386  1.0000
  H   H1041     1.0  0.85815  0.84487  0.37942  1.0000
  C   C1065     1.0  0.70334  0.81661  0.09724  1.0000
  C   C1066     1.0  0.94290  0.76081  0.06434  1.0000
  C   C1067     1.0  0.52949  0.77350  0.39598  1.0000
  H   H1042     1.0  0.69674  0.85041  0.46532  1.0000
  H   H1043     1.0  0.72560  0.97562  0.07153  1.0000
  N   N87       1.0  0.75204  0.90521  0.40488  1.0000
  C   C1068     1.0  0.74646  0.88698  0.43132  1.0000
  C   C1069     1.0  0.74868  0.89607  0.37228  1.0000
  C   C1070     1.0  0.73681  0.85708  0.42536  1.0000
  C   C1071     1.0  0.73917  0.86659  0.36512  1.0000
  C   C1072     1.0  0.73293  0.84693  0.39203  1.0000
  C   C1073     1.0  0.75922  0.93332  0.41171  1.0000
  H   H1044     1.0  0.74825  0.89432  0.45525  1.0000
  H   H1045     1.0  0.75183  0.90994  0.35314  1.0000
  H   H1046     1.0  0.73214  0.84307  0.44480  1.0000
  H   H1047     1.0  0.73576  0.85941  0.34102  1.0000
  H   H1048     1.0  0.72516  0.82551  0.38739  1.0000
  H   H1049     1.0  0.80093  0.82083  0.23528  1.0000
  H   H1050     1.0  0.72237  0.81672  0.09068  1.0000
  H   H1051     1.0  0.60111  0.87589  0.10206  1.0000
  H   H1052     1.0  0.68633  0.80152  0.08239  1.0000
  H   H1053     1.0  0.59302  0.83739  0.44731  1.0000
  H   H1054     1.0  0.89085  0.85081  0.39292  1.0000
  H   H1055     1.0  0.69172  0.83669  0.04655  1.0000
  C   C1074     1.0  0.52308  0.82892  0.10383  1.0000
  H   H1056     1.0  0.77497  0.94199  0.43048  1.0000
  C   C1075     1.0  0.87960  0.80942  0.33991  1.0000
  N   N88       1.0  0.78722  0.77971  0.22256  1.0000
  H   H1057     1.0  0.59612  0.90250  0.14407  1.0000
  H   H1058     1.0  0.50657  0.81853  0.39532  1.0000
  H   H1059     1.0  0.55422  0.84939  0.41099  1.0000
  C   C1076     1.0  0.78098  0.76226  0.13126  1.0000
  H   H1060     1.0  0.87973  0.77803  0.31131  1.0000
  C   C1077     1.0  0.80409  0.80903  0.21654  1.0000
  H   H1061     1.0  0.56453  0.89038  0.16371  1.0000
  H   H1062     1.0  0.81549  0.77917  0.25514  1.0000
  H   H1063     1.0  0.93530  0.78779  0.13216  1.0000
  H   H1064     1.0  0.89406  0.82564  0.32470  1.0000
  S   S361      1.0  0.50716  0.83559  0.47147  1.0000
  H   H1065     1.0  0.79945  0.81468  0.19324  1.0000
  C   C1078     1.0  0.79592  0.76743  0.24355  1.0000
  H   H1066     1.0  0.82607  0.81531  0.21584  1.0000
  H   H1067     1.0  0.57829  0.84411  0.05818  1.0000
  C   C1079     1.0  0.53660  0.84738  0.12823  1.0000
  C   C1080     1.0  0.76242  0.76499  0.20819  1.0000
  C   C1081     1.0  0.53807  0.82784  0.07832  1.0000
  H   H1068     1.0  0.56986  0.78337  0.40933  1.0000
  C   C1082     1.0  0.87641  0.84341  0.37287  1.0000
  C   C1083     1.0  0.62822  0.99823  0.44881  1.0000
  H   H1069     1.0  0.52783  0.81407  0.05889  1.0000
  C   C1084     1.0  0.84198  0.76743  0.37761  1.0000
  C   C1085     1.0  0.54768  0.82824  0.40604  1.0000
  C   C1086     1.0  0.52913  0.80241  0.47852  1.0000
  N   N89       1.0  0.86850  0.81516  0.36537  1.0000
  C   C1087     1.0  0.68508  0.86047  0.46216  1.0000
  C   C1088     1.0  0.87157  0.78245  0.33221  1.0000
  C   C1089     1.0  0.85262  0.76135  0.35122  1.0000
  Fe  Fe180     1.0  0.59122  0.92983  0.47910  1.0000
  C   C1090     1.0  0.50565  0.80395  0.47284  1.0000
  S   S362      1.0  0.67011  0.75349  0.18885  1.0000
  H   H1070     1.0  0.73841  0.75647  0.30298  1.0000
  C   C1091     1.0  0.98959  0.75687  0.41850  1.0000
  H   H1071     1.0  0.87395  0.99035  0.40466  1.0000
  C   C1092     1.0  0.86183  0.99219  0.45220  1.0000
  C   C1093     1.0  0.65318  0.87316  0.48380  1.0000
  H   H1072     1.0  0.98137  0.82319  0.47435  1.0000
  H   H1073     1.0  0.96248  0.77413  0.46324  1.0000
  H   H1074     1.0  0.52226  0.75187  0.39355  1.0000
  H   H1075     1.0  0.94324  0.76344  0.03903  1.0000
  H   H1076     1.0  0.54673  0.77639  0.47862  1.0000
  H   H1077     1.0  0.95971  0.76116  0.17345  1.0000
  H   H1078     1.0  0.92533  0.75545  0.17442  1.0000
  C   C1094     1.0  0.95269  0.78059  0.48031  1.0000
  N   N90       1.0  0.94013  0.75292  0.12910  1.0000
  H   H1079     1.0  0.54815  0.82067  0.48386  1.0000
  H   H1080     1.0  0.50103  0.81621  0.10429  1.0000
  Fe  Fe181     1.0  0.80524  0.95840  0.85856  1.0000
  S   S363      1.0  0.80607  0.97235  0.90881  1.0000
  Fe  Fe182     1.0  0.77061  0.91368  0.81036  1.0000
  S   S364      1.0  0.80068  0.93443  0.77106  1.0000
  S   S365      1.0  0.73601  0.87011  0.80870  1.0000
  Fe  Fe183     1.0  0.83225  0.94066  0.80714  1.0000
  S   S366      1.0  0.86621  0.93018  0.80384  1.0000
  Fe  Fe184     1.0  0.80361  0.97284  0.79119  1.0000
  S   S367      1.0  0.80208  0.91860  0.84576  1.0000
  S   S368      1.0  0.77063  0.95132  0.82715  1.0000
  Fe  Fe185     1.0  0.57043  0.90776  0.54479  1.0000
  S   S369      1.0  0.56049  0.91599  0.59354  1.0000
  Fe  Fe186     1.0  0.90127  0.83164  0.69776  1.0000
  S   S370      1.0  0.88725  0.80020  0.65883  1.0000
  S   S371      1.0  0.87720  0.85426  0.70009  1.0000
  Fe  Fe187     1.0  0.94383  0.81727  0.71921  1.0000
  S   S372      1.0  0.93224  0.78487  0.68315  1.0000
  Fe  Fe188     1.0  0.62028  0.77376  0.70062  1.0000
  Fe  Fe189     1.0  0.93155  0.81494  0.64987  1.0000
  S   S373      1.0  0.94821  0.81360  0.60169  1.0000
  Fe  Fe190     1.0  0.88922  0.77273  0.69513  1.0000
  H   H1081     1.0  0.98448  0.81385  0.55433  1.0000
  S   S374      1.0  0.94582  0.84876  0.68536  1.0000
  S   S375      1.0  0.90056  0.80275  0.73471  1.0000
  S   S376      1.0  0.64898  0.81930  0.69888  1.0000
  H   H1082     1.0  0.81991  0.99869  0.96884  1.0000
  C   C1095     1.0  0.98765  0.78512  0.73283  1.0000
  S   S377      1.0  0.63915  0.96476  0.95870  1.0000
  H   H1083     1.0  0.50335  0.83142  0.60015  1.0000
  C   C1096     1.0  0.55042  0.82178  0.79550  1.0000
  S   S378      1.0  0.56451  0.86664  0.53369  1.0000
  H   H1084     1.0  0.71313  0.98937  0.75616  1.0000
  H   H1085     1.0  0.99332  0.75124  0.72067  1.0000
  C   C1097     1.0  0.50459  0.88925  0.58552  1.0000
  C   C1098     1.0  0.52629  0.89667  0.60634  1.0000
  C   C1099     1.0  0.52071  0.88945  0.63819  1.0000
  C   C1100     1.0  0.63615  0.83713  0.58739  1.0000
  C   C1101     1.0  0.98280  0.83707  0.59355  1.0000
  C   C1102     1.0  0.65534  0.99884  0.94514  1.0000
  H   H1086     1.0  0.58892  0.84795  0.77332  1.0000
  H   H1087     1.0  0.53739  0.89517  0.65444  1.0000
  H   H1088     1.0  0.85143  0.95820  0.92130  1.0000
  N   N91       1.0  0.95080  0.81633  0.50850  1.0000
  S   S379      1.0  0.83836  0.98123  0.82337  1.0000
  S   S380      1.0  0.54958  0.91036  0.50141  1.0000
  C   C1103     1.0  0.53111  0.77031  0.72669  1.0000
  H   H1089     1.0  0.61865  0.80406  0.77997  1.0000
  C   C1104     1.0  0.99295  0.80550  0.75500  1.0000
  C   C1105     1.0  0.86923  0.90930  0.77463  1.0000
  C   C1106     1.0  0.85550  0.90380  0.74588  1.0000
  C   C1107     1.0  0.85881  0.88753  0.72313  1.0000
  C   C1108     1.0  0.87543  0.87610  0.72898  1.0000
  C   C1109     1.0  0.88904  0.88147  0.75781  1.0000
  C   C1110     1.0  0.88610  0.89815  0.78037  1.0000
  H   H1090     1.0  0.84267  0.91241  0.74092  1.0000
  H   H1091     1.0  0.84824  0.88360  0.70089  1.0000
  H   H1092     1.0  0.90192  0.87289  0.76269  1.0000
  H   H1093     1.0  0.89694  0.90236  0.80244  1.0000
  C   C1111     1.0  0.71242  0.85669  0.77754  1.0000
  C   C1112     1.0  0.71172  0.87316  0.75353  1.0000
  C   C1113     1.0  0.69227  0.86152  0.72934  1.0000
  C   C1114     1.0  0.67370  0.83339  0.72889  1.0000
  C   C1115     1.0  0.67479  0.81693  0.75260  1.0000
  C   C1116     1.0  0.69398  0.82857  0.77691  1.0000
  H   H1094     1.0  0.72591  0.89486  0.75381  1.0000
  H   H1095     1.0  0.69155  0.87437  0.71103  1.0000
  H   H1096     1.0  0.66084  0.79521  0.75234  1.0000
  H   H1097     1.0  0.69452  0.81570  0.79534  1.0000
  C   C1117     1.0  0.56617  0.78276  0.79338  1.0000
  S   S381      1.0  0.63306  0.87260  0.51573  1.0000
  N   N92       1.0  0.79410  0.84748  0.77300  1.0000
  C   C1118     1.0  0.81117  0.83832  0.76346  1.0000
  C   C1119     1.0  0.77276  0.84363  0.75448  1.0000
  C   C1120     1.0  0.80702  0.82482  0.73468  1.0000
  C   C1121     1.0  0.76792  0.83011  0.72563  1.0000
  C   C1122     1.0  0.78530  0.82079  0.71564  1.0000
  C   C1123     1.0  0.79959  0.86316  0.80214  1.0000
  H   H1098     1.0  0.82873  0.84227  0.77753  1.0000
  H   H1099     1.0  0.75953  0.85132  0.76184  1.0000
  H   H1100     1.0  0.82119  0.81842  0.72674  1.0000
  H   H1101     1.0  0.75103  0.82728  0.71100  1.0000
  H   H1102     1.0  0.78226  0.81085  0.69298  1.0000
  H   H1103     1.0  0.78041  0.85654  0.81561  1.0000
  H   H1104     1.0  0.81405  0.86085  0.81765  1.0000
  H   H1105     1.0  0.80873  0.88507  0.79629  1.0000
  H   H1106     1.0  0.95210  0.85347  0.49791  1.0000
  H   H1107     1.0  0.74990  0.97778  0.75573  1.0000
  C   C1124     1.0  0.53284  0.79568  0.80697  1.0000
  C   C1125     1.0  0.92770  0.79743  0.52377  1.0000
  H   H1108     1.0  0.50864  0.89483  0.56095  1.0000
  N   N93       1.0  0.61665  0.79043  0.57121  1.0000
  C   C1126     1.0  0.62023  0.81590  0.56660  1.0000
  C   C1127     1.0  0.62838  0.78533  0.59644  1.0000
  C   C1128     1.0  0.60930  0.81468  0.76773  1.0000
  C   C1129     1.0  0.64442  0.80607  0.61764  1.0000
  C   C1130     1.0  0.64818  0.83208  0.61318  1.0000
  H   H1109     1.0  0.57740  0.75861  0.55864  1.0000
  H   H1110     1.0  0.58141  0.98421  0.57458  1.0000
  C   C1131     1.0  0.66958  0.86137  0.48746  1.0000
  C   C1132     1.0  0.92932  0.76122  0.49588  1.0000
  H   H1111     1.0  0.52672  0.75531  0.81351  1.0000
  H   H1112     1.0  0.65365  0.80192  0.63763  1.0000
  H   H1113     1.0  0.63869  0.99353  0.49610  1.0000
  H   H1114     1.0  0.51266  0.79044  0.81529  1.0000
  C   C1133     1.0  0.91666  0.76959  0.51775  1.0000
  C   C1134     1.0  0.52399  0.79069  0.72807  1.0000
  H   H1115     1.0  0.53865  0.81128  0.72105  1.0000
  C   C1135     1.0  0.54071  0.77600  0.80595  1.0000
  H   H1116     1.0  0.70462  0.99454  0.82756  1.0000
  H   H1117     1.0  0.89564  0.75627  0.61783  1.0000
  C   C1136     1.0  0.96157  0.84543  0.51434  1.0000
  H   H1118     1.0  0.90175  0.98131  0.83849  1.0000
  N   N94       1.0  0.58343  0.80851  0.78247  1.0000
  H   H1119     1.0  0.62451  0.83681  0.76847  1.0000
  S   S382      1.0  0.61268  0.93052  0.52382  1.0000
  H   H1120     1.0  0.63901  0.85733  0.58345  1.0000
  H   H1121     1.0  0.59640  0.97010  0.54866  1.0000
  H   H1122     1.0  0.97482  0.78229  0.71290  1.0000
  C   C1137     1.0  0.75370  0.99697  0.76561  1.0000
  Fe  Fe191     1.0  0.60463  0.88916  0.50847  1.0000
  H   H1123     1.0  0.89832  0.75456  0.52978  1.0000
  C   C1138     1.0  0.86869  0.97338  0.90785  1.0000
  H   H1124     1.0  0.72132  0.97167  0.94890  1.0000
  H   H1125     1.0  0.62530  0.76509  0.60042  1.0000
  C   C1139     1.0  0.57575  0.82786  0.78310  1.0000
  H   H1126     1.0  0.66023  0.84817  0.62989  1.0000
  H   H1127     1.0  0.57166  0.76703  0.79153  1.0000
  H   H1128     1.0  0.55118  0.77533  0.71870  1.0000
  H   H1129     1.0  0.54388  0.83679  0.79492  1.0000
  S   S383      1.0  0.97832  0.82653  0.75258  1.0000
  H   H1130     1.0  0.74282  0.98977  0.83972  1.0000
  H   H1131     1.0  0.98410  0.85719  0.51125  1.0000
  H   H1132     1.0  0.95740  0.84903  0.53898  1.0000
  H   H1133     1.0  0.59996  0.77552  0.52563  1.0000
  C   C1140     1.0  0.93140  0.77375  0.80126  1.0000
  C   C1141     1.0  0.87530  0.96654  0.87892  1.0000
  H   H1134     1.0  0.60577  0.80811  0.74273  1.0000
  C   C1142     1.0  0.99851  0.76778  0.73698  1.0000
  H   H1135     1.0  0.65052  0.98708  0.89635  1.0000
  H   H1136     1.0  0.56043  0.95845  0.54709  1.0000
  H   H1137     1.0  0.91785  0.80382  0.54098  1.0000
  S   S384      1.0  0.57926  0.75623  0.67792  1.0000
  C   C1143     1.0  0.99746  0.86079  0.61133  1.0000
  C   C1144     1.0  0.99545  0.83244  0.56774  1.0000
  H   H1138     1.0  0.67005  0.85257  0.50986  1.0000
  Fe  Fe192     1.0  0.54666  0.87065  0.48866  1.0000
  H   H1139     1.0  0.98790  0.86463  0.63119  1.0000
  H   H1140     1.0  0.86353  0.94591  0.86990  1.0000
  H   H1141     1.0  0.61076  0.81999  0.54679  1.0000
  H   H1142     1.0  0.77056  0.98807  0.95804  1.0000
  C   C1145     1.0  0.59877  0.76813  0.55011  1.0000
  H   H1143     1.0  0.94052  0.75935  0.62169  1.0000
  H   H1144     1.0  0.95259  0.78723  0.80969  1.0000
  H   H1145     1.0  0.50358  0.83189  0.54157  1.0000
  N   N95       1.0  0.58661  0.99765  0.52669  1.0000
  H   H1146     1.0  0.69151  0.99427  0.86639  1.0000
  C   C1146     1.0  0.58097  0.97665  0.55033  1.0000
  C   C1147     1.0  0.89681  0.98648  0.86127  1.0000
  H   H1147     1.0  0.96299  0.75133  0.80618  1.0000
  C   C1148     1.0  0.73326  0.98908  0.96402  1.0000
  C   C1149     1.0  0.96319  0.80825  0.48677  1.0000
  H   H1148     1.0  0.92647  0.78672  0.78624  1.0000
  H   H1149     1.0  0.69947  0.99488  0.97487  1.0000
  H   H1150     1.0  0.60452  0.75203  0.54945  1.0000
  H   H1151     1.0  0.91731  0.76632  0.82173  1.0000
  C   C1150     1.0  0.57503  0.99029  0.49749  1.0000
  N   N96       1.0  0.92912  0.75064  0.78331  1.0000
  C   C1151     1.0  0.76084  0.99828  0.96920  1.0000
  H   H1152     1.0  0.56175  0.96902  0.49158  1.0000
  C   C1152     1.0  0.88399  0.00011  0.91895  1.0000
