data_image0
_chemical_formula_structural       CFeSFeSFeCFeS2FeHSHC2HCSHCH6C2H4CSH3CSCHC2H2C2HC2NC3SHC3HCH4C2FeS2HSH3SH3CFeS2FeCFe2S2CH2NC6H4CHSC3H2NC3H3C4SHSC2H2C3H2C2HFeC3SFeCHCH4SHNSFeS2FeS2FeHFeHS2H2C7HC4HC3HC2HC2HCHC2H2CSNC3SNCHCHC2H2SHSH3CH2CH2NH2C2H2CHCHCHCH2CSFeS2FeS2FeCFeNS2C2HC3HCHC2H2C2HCHC3HC2SH3C2HCHCH2FeC2SHNCHC2H3SCSHSN2C2H4NHC2SH2CH3CHCFeSFeHFeS2C3SNSCFeSFeCH3CSC3H2C3HCHNC5H2C2SH2CSCHC2HSFeHCH3NSC3HFeHCHCH2CHC4HCH5SC2HCHSHCFeSCFeSFeSFeS2H2C3H2CHCHCHCHCH2C2H5C2HC2H4C2HNH2CH2CHSCHCHCHCHC2HC3HC2HC2HFeHCFeS2FeSFeS3HCH3SH2CNCHC3H3SNCH2NFeHC3SH2CH2C5NC7SCHCH5NH4C2H2CH2CS2CHC2HCHC2HSFeSFeSHFeSFeSHFeS2FeCFeCSHC2HC2H2SHC2HCH3CSH2C2NHCHC2SCH2C3NH2CHC2H2C2HCH2CNCHS2CH4C2FeSH2SFeSFeCH2NCHCSC2H2C4HC2HC4H2SHCH3CHC2HCHFeH4CNCH3SCH3CH2CHC2SHFeHFeSC2HS2CH2CH5NCH2CFeCHC2HCH2CSC3SH2FeCHCH2C2HCH5FeCH2C2SFeSFeSFeSFeS2CH2FeSFeHCFeCHSCHCH2CSCHSHCH2C2SHCH2C2HCH3SC2S2H2N2C6HCHCHCH2SC2H3CHC2H2CH3CHFeS2FeHCFeSFeCS2H2C4HCHCSHCHCHC3HC2H2C3SCNCH3NC2HC4HSHCH5CH3CHNSC2H2CHC2H3SHSC
_chemical_formula_sum              "C384 Fe64 S128 H384 N32"
_cell_length_a       34.9459
_cell_length_b       35.3601
_cell_length_c       49.4272
_cell_angle_alpha    90.4978
_cell_angle_beta     89.9206
_cell_angle_gamma    89.5475

_space_group_name_H-M_alt    "P 1"
_space_group_IT_number       1

loop_
  _space_group_symop_operation_xyz
  'x, y, z'

loop_
  _atom_site_type_symbol
  _atom_site_label
  _atom_site_symmetry_multiplicity
  _atom_site_fract_x
  _atom_site_fract_y
  _atom_site_fract_z
  _atom_site_occupancy
  C   C1        1.0  0.42395  0.00229  0.19376  1.0000
  Fe  Fe1       1.0  0.09676  0.05859  0.07641  1.0000
  S   S1        1.0  0.15618  0.04095  0.06018  1.0000
  Fe  Fe2       1.0  0.03897  0.12638  0.07759  1.0000
  S   S2        1.0  0.03856  0.19069  0.07237  1.0000
  Fe  Fe3       1.0  0.03458  0.06545  0.12117  1.0000
  C   C2        1.0  0.19669  0.01704  0.07436  1.0000
  Fe  Fe4       1.0  0.01208  0.04711  0.06207  1.0000
  S   S3        1.0  0.08209  0.10357  0.10716  1.0000
  S   S4        1.0  0.05750  0.08466  0.04519  1.0000
  Fe  Fe5       1.0  0.99695  0.42333  0.31359  1.0000
  H   H1        1.0  0.03227  0.23195  0.29094  1.0000
  S   S5        1.0  0.03325  0.06139  0.16759  1.0000
  H   H2        1.0  0.45339  0.01059  0.19726  1.0000
  C   C3        1.0  0.01488  0.29040  0.29412  1.0000
  C   C4        1.0  0.99955  0.22295  0.07459  1.0000
  H   H3        1.0  0.05885  0.13823  0.16394  1.0000
  C   C5        1.0  0.40841  0.00442  0.16784  1.0000
  S   S6        1.0  0.99073  0.09061  0.09291  1.0000
  H   H4        1.0  0.42570  0.01460  0.15120  1.0000
  C   C6        1.0  0.00902  0.27252  0.00935  1.0000
  H   H5        1.0  0.00932  0.47779  0.19799  1.0000
  H   H6        1.0  0.41320  0.41106  0.28546  1.0000
  H   H7        1.0  0.99657  0.38526  0.02936  1.0000
  H   H8        1.0  0.40387  0.42867  0.31925  1.0000
  H   H9        1.0  0.08661  0.20045  0.15205  1.0000
  H   H10       1.0  0.03654  0.27140  0.07681  1.0000
  C   C7        1.0  0.98763  0.45878  0.20538  1.0000
  C   C8        1.0  0.99759  0.06051  0.19351  1.0000
  H   H11       1.0  0.00847  0.46062  0.24666  1.0000
  H   H12       1.0  0.17289  0.00937  0.11406  1.0000
  H   H13       1.0  0.43885  0.45143  0.29870  1.0000
  H   H14       1.0  0.03454  0.25480  0.00949  1.0000
  C   C9        1.0  0.00718  0.26190  0.07649  1.0000
  S   S7        1.0  0.05458  0.39496  0.31642  1.0000
  H   H15       1.0  0.03916  0.06691  0.22539  1.0000
  H   H16       1.0  0.34291  0.45647  0.32024  1.0000
  H   H17       1.0  0.44477  0.43787  0.00297  1.0000
  C   C10       1.0  0.01192  0.31198  0.00898  1.0000
  S   S8        1.0  0.05198  0.01877  0.09187  1.0000
  C   C11       1.0  0.00833  0.25161  0.29217  1.0000
  H   H18       1.0  0.04381  0.25225  0.13609  1.0000
  C   C12       1.0  0.34812  0.46937  0.30074  1.0000
  C   C13       1.0  0.47456  0.49094  0.00083  1.0000
  H   H19       1.0  0.04387  0.30121  0.29450  1.0000
  H   H20       1.0  0.22904  0.01990  0.03724  1.0000
  C   C14       1.0  0.04045  0.16115  0.15716  1.0000
  C   C15       1.0  0.05597  0.19613  0.15065  1.0000
  H   H21       1.0  0.99168  0.06455  0.26287  1.0000
  C   C16       1.0  0.41066  0.43701  0.29816  1.0000
  C   C17       1.0  0.22915  0.01033  0.05796  1.0000
  N   N1        1.0  0.38147  0.46242  0.28695  1.0000
  C   C18       1.0  0.00115  0.15542  0.15403  1.0000
  C   C19       1.0  0.19750  0.00455  0.10115  1.0000
  C   C20       1.0  0.12632  0.01074  0.99733  1.0000
  S   S9        1.0  0.47911  0.49453  0.03668  1.0000
  H   H22       1.0  0.98946  0.12780  0.15839  1.0000
  C   C21       1.0  0.98725  0.44908  0.23304  1.0000
  C   C22       1.0  0.00910  0.06380  0.22073  1.0000
  C   C23       1.0  0.03197  0.22519  0.14180  1.0000
  H   H23       1.0  0.41439  0.47352  0.25156  1.0000
  C   C24       1.0  0.99270  0.21864  0.13929  1.0000
  H   H24       1.0  0.98909  0.34536  0.29823  1.0000
  H   H25       1.0  0.11841  0.03907  0.00567  1.0000
  H   H26       1.0  0.04006  0.32470  0.00840  1.0000
  H   H27       1.0  0.15265  0.00093  0.00789  1.0000
  C   C25       1.0  0.38774  0.47871  0.26235  1.0000
  C   C26       1.0  0.32034  0.49375  0.29014  1.0000
  Fe  Fe6       1.0  0.03310  0.37241  0.35616  1.0000
  S   S10       1.0  0.04049  0.30901  0.36372  1.0000
  S   S11       1.0  0.38759  0.01872  0.59830  1.0000
  H   H28       1.0  0.00917  0.46154  0.49780  1.0000
  S   S12       1.0  0.28199  0.04228  0.56658  1.0000
  H   H29       1.0  0.41025  0.45744  0.48697  1.0000
  H   H30       1.0  0.45486  0.31155  0.58800  1.0000
  H   H31       1.0  0.98732  0.18079  0.35516  1.0000
  S   S13       1.0  0.05750  0.42110  0.38094  1.0000
  H   H32       1.0  0.39160  0.26666  0.64398  1.0000
  H   H33       1.0  0.41375  0.49200  0.44344  1.0000
  H   H34       1.0  0.17620  0.43561  0.36295  1.0000
  C   C27       1.0  0.43634  0.33530  0.52223  1.0000
  Fe  Fe7       1.0  0.40043  0.12345  0.57653  1.0000
  S   S14       1.0  0.44950  0.08832  0.59192  1.0000
  S   S15       1.0  0.40112  0.18676  0.56792  1.0000
  Fe  Fe8       1.0  0.34229  0.05762  0.58146  1.0000
  C   C28       1.0  0.00228  0.27625  0.36178  1.0000
  Fe  Fe9       1.0  0.40784  0.06851  0.62363  1.0000
  Fe  Fe10      1.0  0.42549  0.04174  0.56506  1.0000
  S   S16       1.0  0.35937  0.10563  0.60880  1.0000
  S   S17       1.0  0.37961  0.07861  0.54749  1.0000
  C   C29       1.0  0.43830  0.25730  0.51567  1.0000
  H   H35       1.0  0.43943  0.04936  0.49424  1.0000
  H   H36       1.0  0.37675  0.26001  0.51613  1.0000
  N   N2        1.0  0.46526  0.18470  0.64725  1.0000
  C   C30       1.0  0.99071  0.47833  0.48500  1.0000
  C   C31       1.0  0.25293  0.49459  0.35427  1.0000
  C   C32       1.0  0.46107  0.28168  0.58586  1.0000
  C   C33       1.0  0.43137  0.25616  0.58015  1.0000
  C   C34       1.0  0.43888  0.21721  0.57727  1.0000
  C   C35       1.0  0.43879  0.48982  0.45619  1.0000
  H   H37       1.0  0.40242  0.26667  0.57778  1.0000
  H   H38       1.0  0.03665  0.14770  0.42192  1.0000
  H   H39       1.0  0.46066  0.28028  0.65106  1.0000
  H   H40       1.0  0.14727  0.48365  0.44552  1.0000
  C   C36       1.0  0.45241  0.02395  0.48587  1.0000
  H   H41       1.0  0.37480  0.33022  0.52164  1.0000
  S   S18       1.0  0.47531  0.39435  0.59521  1.0000
  C   C37       1.0  0.99077  0.47182  0.45675  1.0000
  C   C38       1.0  0.43689  0.47030  0.48095  1.0000
  C   C39       1.0  0.40037  0.20631  0.64188  1.0000
  H   H42       1.0  0.44762  0.04242  0.44445  1.0000
  H   H43       1.0  0.99573  0.09066  0.43258  1.0000
  N   N3        1.0  0.47075  0.31661  0.52082  1.0000
  C   C40       1.0  0.40309  0.27608  0.51694  1.0000
  C   C41       1.0  0.19223  0.45980  0.35614  1.0000
  C   C42       1.0  0.46900  0.46749  0.49804  1.0000
  H   H44       1.0  0.03992  0.22789  0.35788  1.0000
  H   H45       1.0  0.00914  0.45018  0.44801  1.0000
  H   H46       1.0  0.37060  0.19997  0.63773  1.0000
  C   C43       1.0  0.40201  0.31534  0.52024  1.0000
  C   C44       1.0  0.01135  0.20322  0.42444  1.0000
  C   C45       1.0  0.41220  0.24363  0.64533  1.0000
  C   C46       1.0  0.20897  0.01399  0.56244  1.0000
  S   S19       1.0  0.01698  0.47588  0.33509  1.0000
  H   H47       1.0  0.24502  0.44178  0.37499  1.0000
  S   S20       1.0  0.45929  0.99866  0.53913  1.0000
  C   C47       1.0  0.47207  0.27810  0.51791  1.0000
  C   C48       1.0  0.23133  0.46344  0.36297  1.0000
  H   H48       1.0  0.20944  0.02588  0.54235  1.0000
  H   H49       1.0  0.43528  0.36579  0.52516  1.0000
  C   C49       1.0  0.24103  0.01848  0.57941  1.0000
  C   C50       1.0  0.23988  0.00301  0.60535  1.0000
  C   C51       1.0  0.01043  0.23734  0.35899  1.0000
  H   H50       1.0  0.48257  0.17405  0.57789  1.0000
  H   H51       1.0  0.03860  0.21775  0.42492  1.0000
  C   C52       1.0  0.17417  0.48722  0.34028  1.0000
  C   C53       1.0  0.45706  0.01989  0.45759  1.0000
  H   H52       1.0  0.43932  0.22663  0.51422  1.0000
  Fe  Fe11      1.0  1.00000  0.44886  0.37446  1.0000
  C   C54       1.0  0.47725  0.22129  0.65011  1.0000
  C   C55       1.0  0.47636  0.20389  0.58045  1.0000
  C   C56       1.0  0.01004  0.16371  0.42258  1.0000
  S   S21       1.0  0.46438  0.44297  0.52918  1.0000
  Fe  Fe12      1.0  0.07389  0.44595  0.34063  1.0000
  C   C57       1.0  0.42746  0.17706  0.64287  1.0000
  H   H53       1.0  0.26411  0.00631  0.61873  1.0000
  C   C58       1.0  0.45089  0.25126  0.64944  1.0000
  H   H54       1.0  0.32373  0.99762  0.47596  1.0000
  H   H55       1.0  0.41813  0.14823  0.63970  1.0000
  H   H56       1.0  0.01101  0.01270  0.65490  1.0000
  H   H57       1.0  0.48105  0.12781  0.65624  1.0000
  S   S22       1.0  0.12473  0.48483  0.33123  1.0000
  H   H58       1.0  0.07710  0.48925  0.45411  1.0000
  N   N4        1.0  0.47140  0.15060  0.92703  1.0000
  S   S23       1.0  0.46223  0.47804  0.90805  1.0000
  Fe  Fe13      1.0  0.35112  0.41927  0.85768  1.0000
  S   S24       1.0  0.39960  0.45703  0.84458  1.0000
  S   S25       1.0  0.28663  0.43034  0.86397  1.0000
  Fe  Fe14      1.0  0.40702  0.35283  0.86944  1.0000
  S   S26       1.0  0.45837  0.38707  0.85880  1.0000
  S   S27       1.0  0.40820  0.28975  0.87913  1.0000
  Fe  Fe15      1.0  0.43004  0.43499  0.88179  1.0000
  H   H59       1.0  0.20690  0.43494  0.87778  1.0000
  Fe  Fe16      1.0  0.42406  0.40558  0.82253  1.0000
  H   H60       1.0  0.42224  0.10511  0.72427  1.0000
  S   S28       1.0  0.38105  0.39915  0.89549  1.0000
  S   S29       1.0  0.37314  0.36979  0.83292  1.0000
  H   H61       1.0  0.00253  0.38474  0.99307  1.0000
  H   H62       1.0  0.13326  0.01382  0.97554  1.0000
  C   C59       1.0  0.48150  0.40259  0.70379  1.0000
  C   C60       1.0  0.47966  0.38906  0.73053  1.0000
  C   C61       1.0  0.44604  0.06388  0.69646  1.0000
  C   C62       1.0  0.46105  0.43514  0.69657  1.0000
  C   C63       1.0  0.44596  0.25838  0.87007  1.0000
  C   C64       1.0  0.43866  0.21937  0.86824  1.0000
  C   C65       1.0  0.99505  0.02631  0.98248  1.0000
  H   H63       1.0  0.40982  0.20928  0.87125  1.0000
  C   C66       1.0  0.03221  0.00258  0.66921  1.0000
  C   C67       1.0  0.46569  0.10987  0.92338  1.0000
  C   C68       1.0  0.43639  0.43992  0.74303  1.0000
  C   C69       1.0  0.46849  0.19323  0.86304  1.0000
  H   H64       1.0  0.41962  0.31162  0.78617  1.0000
  C   C70       1.0  0.98599  0.01322  0.70584  1.0000
  C   C71       1.0  0.43841  0.45359  0.71632  1.0000
  C   C72       1.0  0.25097  0.46534  0.85672  1.0000
  H   H65       1.0  0.44066  0.09964  0.93506  1.0000
  C   C73       1.0  0.42897  0.29827  0.80536  1.0000
  C   C74       1.0  0.21343  0.46010  0.86641  1.0000
  H   H66       1.0  0.42623  0.22265  0.80345  1.0000
  C   C75       1.0  0.33500  0.48287  0.91744  1.0000
  C   C76       1.0  0.18421  0.48711  0.86165  1.0000
  H   H67       1.0  0.98634  0.04428  0.70919  1.0000
  C   C77       1.0  0.45256  0.45441  0.96135  1.0000
  H   H68       1.0  0.43849  0.42975  0.95310  1.0000
  C   C78       1.0  0.45458  0.23377  0.79975  1.0000
  C   C79       1.0  0.44247  0.08201  0.72186  1.0000
  H   H69       1.0  0.46251  0.16329  0.86190  1.0000
  H   H70       1.0  0.04730  0.45272  0.76952  1.0000
  C   C80       1.0  0.45722  0.40767  0.75033  1.0000
  S   S30       1.0  0.45629  0.01931  0.90351  1.0000
  N   N5        1.0  0.02351  0.00010  0.69613  1.0000
  C   C81       1.0  0.00962  0.49594  0.97372  1.0000
  C   C82       1.0  0.44530  0.21305  0.93409  1.0000
  C   C83       1.0  0.46439  0.07023  0.74432  1.0000
  S   S31       1.0  0.41701  0.08004  0.66909  1.0000
  N   N6        1.0  0.46074  0.27194  0.80027  1.0000
  C   C84       1.0  0.34873  0.46133  0.96333  1.0000
  H   H71       1.0  0.47529  0.01958  0.67444  1.0000
  C   C85       1.0  0.45614  0.45915  0.98964  1.0000
  H   H72       1.0  0.48044  0.17815  0.79630  1.0000
  C   C86       1.0  0.46738  0.48152  0.94384  1.0000
  C   C87       1.0  0.44061  0.17385  0.93192  1.0000
  H   H73       1.0  0.36102  0.47204  0.98266  1.0000
  H   H74       1.0  0.01336  0.04784  0.99102  1.0000
  S   S32       1.0  0.45780  0.39018  0.78396  1.0000
  H   H75       1.0  0.10775  0.44695  0.79599  1.0000
  S   S33       1.0  0.46493  0.45533  0.66386  1.0000
  H   H76       1.0  0.42070  0.23161  0.93706  1.0000
  H   H77       1.0  0.15563  0.48259  0.86935  1.0000
  H   H78       1.0  0.43820  0.32095  0.81955  1.0000
  C   C88       1.0  0.99412  0.02021  0.95419  1.0000
  H   H79       1.0  0.40421  0.28420  0.81508  1.0000
  H   H80       1.0  0.41208  0.16222  0.93363  1.0000
  C   C89       1.0  0.06771  0.47570  0.76989  1.0000
  H   H81       1.0  0.36288  0.43389  0.95829  1.0000
  H   H82       1.0  0.41905  0.45457  0.75801  1.0000
  N   N7        1.0  0.35459  0.48789  0.94113  1.0000
  H   H83       1.0  0.01169  0.03741  0.94119  1.0000
  H   H84       1.0  0.46095  0.10320  0.90164  1.0000
  C   C90       1.0  0.48506  0.20846  0.79559  1.0000
  C   C91       1.0  0.46160  0.00472  0.93776  1.0000
  H   H85       1.0  0.46089  0.08420  0.76372  1.0000
  H   H86       1.0  0.31442  0.46018  0.91531  1.0000
  C   C92       1.0  0.47220  0.03391  0.69375  1.0000
  H   H87       1.0  0.42250  0.47881  0.71096  1.0000
  C   C93       1.0  0.10157  0.47242  0.78466  1.0000
  H   H88       1.0  0.31768  0.45655  0.96664  1.0000
  C   C94       1.0  0.48334  0.27110  0.86618  1.0000
  H   H89       1.0  0.48542  0.25882  0.93161  1.0000
  C   C95       1.0  0.48169  0.22837  0.93100  1.0000
  H   H90       1.0  0.41275  0.71084  0.13896  1.0000
  H   H91       1.0  0.41058  0.78075  0.14143  1.0000
  C   C96       1.0  0.43926  0.72632  0.14102  1.0000
  S   S34       1.0  0.48174  0.93785  0.15679  1.0000
  Fe  Fe17      1.0  0.41123  0.86364  0.08329  1.0000
  S   S35       1.0  0.46614  0.89552  0.08440  1.0000
  S   S36       1.0  0.40741  0.79983  0.07658  1.0000
  Fe  Fe18      1.0  0.36268  0.93534  0.09441  1.0000
  S   S37       1.0  0.41540  0.97193  0.09632  1.0000
  S   S38       1.0  0.30359  0.95598  0.10935  1.0000
  Fe  Fe19      1.0  0.43540  0.93935  0.05930  1.0000
  C   C97       1.0  0.48414  0.77764  0.07718  1.0000
  Fe  Fe20      1.0  0.44189  0.92530  0.12112  1.0000
  N   N8        1.0  0.47368  0.70757  0.14102  1.0000
  S   S39       1.0  0.38115  0.90525  0.05588  1.0000
  S   S40       1.0  0.38855  0.89064  0.12155  1.0000
  C   C98       1.0  0.43348  0.56787  0.24143  1.0000
  C   C99       1.0  0.08543  0.97503  0.02785  1.0000
  H   H92       1.0  0.41662  0.76603  0.29709  1.0000
  C   C100      1.0  0.03453  0.93541  0.01133  1.0000
  C   C101      1.0  0.37105  0.99194  0.16333  1.0000
  C   C102      1.0  0.05496  0.95070  0.03297  1.0000
  H   H93       1.0  0.45990  0.67064  0.07215  1.0000
  C   C103      1.0  0.46034  0.56247  0.19558  1.0000
  H   H94       1.0  0.41213  0.57948  0.25509  1.0000
  C   C104      1.0  0.23032  0.98586  0.11134  1.0000
  C   C105      1.0  0.47471  0.81435  0.30392  1.0000
  H   H95       1.0  0.31319  0.93601  0.16757  1.0000
  H   H96       1.0  0.29523  0.98372  0.16547  1.0000
  C   C106      1.0  0.43781  0.76586  0.14266  1.0000
  C   C107      1.0  0.44422  0.75214  0.29915  1.0000
  H   H97       1.0  0.41986  0.69614  0.29719  1.0000
  C   C108      1.0  0.47833  0.92663  0.19178  1.0000
  H   H98       1.0  0.01002  0.91755  0.01509  1.0000
  C   C109      1.0  0.36067  0.50340  0.25122  1.0000
  C   C110      1.0  0.31125  0.96357  0.17853  1.0000
  C   C111      1.0  0.46687  0.70034  0.07356  1.0000
  H   H99       1.0  0.18207  0.54002  0.31956  1.0000
  C   C112      1.0  0.43743  0.72784  0.07359  1.0000
  C   C113      1.0  0.44582  0.76658  0.07562  1.0000
  S   S41       1.0  0.45729  0.57451  0.16075  1.0000
  H   H100      1.0  0.40792  0.71896  0.07227  1.0000
  H   H101      1.0  0.47106  0.81686  0.14534  1.0000
  H   H102      1.0  0.39498  0.82335  0.01788  1.0000
  C   C114      1.0  0.44673  0.90796  0.20262  1.0000
  C   C115      1.0  0.26196  0.99158  0.06814  1.0000
  H   H103      1.0  0.41100  0.59643  0.20631  1.0000
  C   C116      1.0  0.46123  0.54275  0.25118  1.0000
  H   H104      1.0  0.23044  0.97642  0.13208  1.0000
  C   C117      1.0  0.44402  0.90237  0.23083  1.0000
  H   H105      1.0  0.41909  0.88860  0.23905  1.0000
  H   H106      1.0  0.34872  0.96265  0.22587  1.0000
  Fe  Fe21      1.0  0.42636  0.54718  0.32183  1.0000
  C   C118      1.0  0.43291  0.57741  0.21375  1.0000
  C   C119      1.0  0.41576  0.84114  0.00783  1.0000
  S   S42       1.0  0.47379  0.96387  0.02607  1.0000
  H   H107      1.0  0.04656  0.94464  0.05362  1.0000
  N   N9        1.0  0.47934  0.86640  0.00575  1.0000
  C   C120      1.0  0.36502  0.97499  0.20954  1.0000
  H   H108      1.0  0.36635  0.51695  0.23201  1.0000
  C   C121      1.0  0.45303  0.84366  0.01790  1.0000
  C   C122      1.0  0.47512  0.66619  0.13927  1.0000
  H   H109      1.0  0.46058  0.82762  0.03568  1.0000
  H   H110      1.0  0.44610  0.82554  0.29811  1.0000
  H   H111      1.0  0.42399  0.89867  0.18938  1.0000
  S   S43       1.0  0.46150  0.52709  0.28530  1.0000
  C   C123      1.0  0.44587  0.71257  0.29904  1.0000
  S   S44       1.0  0.46651  0.90927  0.28401  1.0000
  H   H112      1.0  0.48241  0.66366  0.30351  1.0000
  S   S45       1.0  0.47896  0.58667  0.08602  1.0000
  N   N10       1.0  0.34980  0.97770  0.18410  1.0000
  N   N11       1.0  0.47669  0.77294  0.30290  1.0000
  C   C124      1.0  0.47299  0.91487  0.24851  1.0000
  C   C125      1.0  0.47180  0.78613  0.14465  1.0000
  H   H113      1.0  0.29427  0.95984  0.19731  1.0000
  H   H114      1.0  0.29420  0.49948  0.30136  1.0000
  H   H115      1.0  0.28661  0.98687  0.05526  1.0000
  H   H116      1.0  0.44720  0.65387  0.13321  1.0000
  N   N12       1.0  0.09503  0.98416  0.00189  1.0000
  H   H117      1.0  0.30568  0.53039  0.25706  1.0000
  C   C126      1.0  0.26283  0.97925  0.09497  1.0000
  C   C127      1.0  0.40217  0.98758  0.21481  1.0000
  S   S46       1.0  0.36881  0.57625  0.32307  1.0000
  H   H118      1.0  0.41459  0.98459  0.23482  1.0000
  H   H119      1.0  0.10106  0.98697  0.04479  1.0000
  C   C128      1.0  0.32680  0.51101  0.26529  1.0000
  H   H120      1.0  0.35927  0.99326  0.14305  1.0000
  H   H121      1.0  0.48339  0.65405  0.15910  1.0000
  H   H122      1.0  0.48092  0.82443  0.32478  1.0000
  C   C129      1.0  0.48098  0.69434  0.30281  1.0000
  H   H123      1.0  0.02087  0.95927  0.47947  1.0000
  C   C130      1.0  0.48548  0.76239  0.37185  1.0000
  Fe  Fe22      1.0  0.43294  0.54534  0.38453  1.0000
  S   S47       1.0  0.37618  0.57485  0.38994  1.0000
  Fe  Fe23      1.0  0.35413  0.53610  0.35688  1.0000
  H   H124      1.0  0.44896  0.55322  0.51480  1.0000
  Fe  Fe24      1.0  0.39558  0.61248  0.35601  1.0000
  S   S48       1.0  0.38855  0.67662  0.35790  1.0000
  S   S49       1.0  0.45348  0.58562  0.35256  1.0000
  C   C131      1.0  0.06629  0.51915  0.41697  1.0000
  C   C132      1.0  0.48268  0.60931  0.46471  1.0000
  C   C133      1.0  0.08958  0.50102  0.43594  1.0000
  S   S50       1.0  0.04960  0.89036  0.61669  1.0000
  N   N13       1.0  0.08163  0.53351  0.39379  1.0000
  S   S51       1.0  0.05905  0.91094  0.55199  1.0000
  C   C134      1.0  0.99540  0.77197  0.57199  1.0000
  Fe  Fe25      1.0  0.02854  0.86719  0.57706  1.0000
  S   S52       1.0  0.03389  0.80395  0.56887  1.0000
  Fe  Fe26      1.0  0.07600  0.93715  0.59216  1.0000
  C   C135      1.0  0.99443  0.98296  0.44368  1.0000
  H   H125      1.0  0.46718  0.66243  0.42772  1.0000
  H   H126      1.0  0.34855  0.93124  0.58255  1.0000
  H   H127      1.0  0.47024  0.66687  0.36953  1.0000
  C   C136      1.0  0.00251  0.73295  0.56916  1.0000
  S   S53       1.0  0.47644  0.53412  0.41822  1.0000
  C   C137      1.0  0.14444  0.51385  0.40788  1.0000
  C   C138      1.0  0.00120  0.84483  0.50627  1.0000
  C   C139      1.0  0.44892  0.57124  0.49711  1.0000
  H   H128      1.0  0.42171  0.64388  0.41786  1.0000
  H   H129      1.0  0.15179  0.99140  0.55794  1.0000
  C   C140      1.0  0.48278  0.58789  0.48839  1.0000
  C   C141      1.0  0.35612  0.96804  0.53706  1.0000
  C   C142      1.0  0.28874  0.96078  0.53421  1.0000
  H   H130      1.0  0.98610  0.90357  0.50319  1.0000
  C   C143      1.0  0.35718  0.98222  0.51076  1.0000
  H   H131      1.0  0.13251  0.54410  0.37134  1.0000
  N   N14       1.0  0.32217  0.95737  0.54841  1.0000
  C   C144      1.0  0.46467  0.99523  0.50323  1.0000
  C   C145      1.0  0.32112  0.94490  0.57660  1.0000
  C   C146      1.0  0.28874  0.97519  0.50794  1.0000
  C   C147      1.0  0.48164  0.96250  0.49182  1.0000
  C   C148      1.0  0.45080  0.63585  0.42506  1.0000
  H   H132      1.0  0.03130  0.72296  0.56501  1.0000
  H   H133      1.0  0.29783  0.92421  0.57987  1.0000
  C   C149      1.0  0.42613  0.70898  0.36448  1.0000
  C   C150      1.0  0.41835  0.74807  0.36392  1.0000
  S   S54       1.0  0.48088  0.98486  0.41039  1.0000
  H   H134      1.0  0.38937  0.75785  0.36040  1.0000
  H   H135      1.0  0.44147  0.80464  0.36676  1.0000
  C   C151      1.0  0.99668  0.97496  0.47164  1.0000
  S   S55       1.0  0.41052  0.50446  0.35349  1.0000
  C   C152      1.0  0.44786  0.77468  0.36744  1.0000
  H   H136      1.0  0.39035  0.60130  0.44695  1.0000
  C   C153      1.0  0.47296  0.50676  0.44818  1.0000
  C   C154      1.0  0.20705  0.98350  0.61414  1.0000
  H   H137      1.0  0.03176  0.84975  0.50498  1.0000
  S   S56       1.0  0.02284  0.97387  0.59497  1.0000
  Fe  Fe27      1.0  0.00420  0.94501  0.55614  1.0000
  H   H138      1.0  0.01577  0.73236  0.63368  1.0000
  C   C155      1.0  0.12027  0.53201  0.38948  1.0000
  H   H139      1.0  0.17495  0.51168  0.40381  1.0000
  H   H140      1.0  0.38263  0.96608  0.54839  1.0000
  H   H141      1.0  0.03585  0.52150  0.42081  1.0000
  N   N15       1.0  0.44961  0.61455  0.45038  1.0000
  S   S57       1.0  0.13431  0.95442  0.60972  1.0000
  C   C156      1.0  0.17496  0.97907  0.59719  1.0000
  C   C157      1.0  0.99272  0.75203  0.63848  1.0000
  C   C158      1.0  0.41542  0.57637  0.48221  1.0000
  H   H142      1.0  0.31586  0.96977  0.59005  1.0000
  Fe  Fe28      1.0  0.99609  0.92529  0.61708  1.0000
  H   H143      1.0  0.38927  0.56252  0.48835  1.0000
  C   C159      1.0  0.41630  0.59819  0.45872  1.0000
  H   H144      1.0  0.05750  0.58316  0.37693  1.0000
  C   C160      1.0  0.32326  0.98594  0.49618  1.0000
  H   H145      1.0  0.02862  0.80107  0.63361  1.0000
  H   H146      1.0  0.26165  0.95374  0.54359  1.0000
  C   C161      1.0  0.05684  0.55204  0.37393  1.0000
  H   H147      1.0  0.00750  0.78458  0.51097  1.0000
  C   C162      1.0  0.98755  0.80820  0.50957  1.0000
  C   C163      1.0  0.12889  0.49806  0.43118  1.0000
  C   C164      1.0  0.47390  0.98711  0.44616  1.0000
  C   C165      1.0  0.46366  0.69675  0.36929  1.0000
  H   H148      1.0  0.01696  0.97308  0.43029  1.0000
  C   C166      1.0  0.23471  0.52228  0.33873  1.0000
  H   H149      1.0  0.26202  0.97887  0.49712  1.0000
  H   H150      1.0  0.06646  0.54495  0.35298  1.0000
  H   H151      1.0  0.02671  0.54229  0.37571  1.0000
  H   H152      1.0  0.46482  0.61827  0.40910  1.0000
  H   H153      1.0  0.20649  0.97184  0.63430  1.0000
  S   S58       1.0  0.47429  0.89562  0.35888  1.0000
  C   C167      1.0  0.00023  0.79089  0.63857  1.0000
  C   C168      1.0  0.19570  0.51850  0.33174  1.0000
  H   H154      1.0  0.25067  0.54655  0.33199  1.0000
  C   C169      1.0  0.17618  0.99440  0.57121  1.0000
  H   H155      1.0  0.07549  0.99405  0.63839  1.0000
  S   S59       1.0  0.30253  0.49680  0.36298  1.0000
  H   H156      1.0  0.38410  0.99084  0.50197  1.0000
  C   C170      1.0  0.06840  0.99172  0.65967  1.0000
  Fe  Fe29      1.0  0.02049  0.58050  0.81216  1.0000
  S   S60       1.0  0.07064  0.61494  0.82594  1.0000
  C   C171      1.0  0.43188  0.98189  0.97964  1.0000
  Fe  Fe30      1.0  0.01212  0.54862  0.86999  1.0000
  S   S61       1.0  0.06178  0.58179  0.88652  1.0000
  Fe  Fe31      1.0  0.03631  0.62989  0.86264  1.0000
  S   S62       1.0  0.03542  0.69101  0.87742  1.0000
  Fe  Fe32      1.0  0.09219  0.56367  0.84803  1.0000
  S   S63       1.0  0.15668  0.55518  0.84029  1.0000
  S   S64       1.0  0.04372  0.52781  0.83224  1.0000
  H   H157      1.0  0.32671  0.50168  0.87646  1.0000
  H   H158      1.0  0.03350  0.51209  0.74462  1.0000
  C   C172      1.0  0.25881  0.49801  0.84197  1.0000
  C   C173      1.0  0.36912  0.53470  0.89746  1.0000
  C   C174      1.0  0.40531  0.86253  0.98539  1.0000
  H   H159      1.0  0.15326  0.49995  0.79697  1.0000
  H   H160      1.0  0.03572  0.50003  0.98509  1.0000
  C   C175      1.0  0.01716  0.71894  0.80746  1.0000
  H   H161      1.0  0.37555  0.55222  0.88016  1.0000
  C   C176      1.0  0.22965  0.52511  0.83734  1.0000
  H   H162      1.0  0.37625  0.86149  0.97774  1.0000
  C   C177      1.0  0.99657  0.72316  0.87377  1.0000
  H   H163      1.0  0.12347  0.96869  0.67025  1.0000
  C   C178      1.0  0.19220  0.51997  0.84721  1.0000
  H   H164      1.0  0.03108  0.77150  0.88393  1.0000
  C   C179      1.0  0.00447  0.90822  0.72641  1.0000
  H   H165      1.0  0.03352  0.51771  0.93650  1.0000
  H   H166      1.0  0.02831  0.93367  0.96795  1.0000
  C   C180      1.0  0.34185  0.50626  0.89532  1.0000
  C   C181      1.0  0.01343  0.75824  0.81019  1.0000
  H   H167      1.0  0.02216  0.90563  0.68437  1.0000
  H   H168      1.0  0.41085  0.56108  0.92342  1.0000
  H   H169      1.0  0.13423  0.58903  0.78669  1.0000
  H   H170      1.0  0.03493  0.65706  0.93095  1.0000
  H   H171      1.0  0.03226  0.89979  0.73400  1.0000
  C   C182      1.0  0.08607  0.53868  0.75704  1.0000
  C   C183      1.0  0.43226  0.88581  0.97319  1.0000
  H   H172      1.0  0.08187  0.97729  0.95993  1.0000
  C   C184      1.0  0.38870  0.53987  0.92177  1.0000
  C   C185      1.0  0.14579  0.56707  0.77261  1.0000
  H   H173      1.0  0.99686  0.82866  0.82261  1.0000
  H   H174      1.0  0.04417  0.70497  0.81194  1.0000
  H   H175      1.0  0.23620  0.55030  0.82602  1.0000
  H   H176      1.0  0.17441  0.55837  0.78032  1.0000
  C   C186      1.0  0.99475  0.59336  0.97338  1.0000
  C   C187      1.0  0.08647  0.97532  0.70514  1.0000
  H   H177      1.0  0.98796  0.66707  0.79789  1.0000
  N   N16       1.0  0.11938  0.53510  0.77132  1.0000
  H   H178      1.0  0.04713  0.62515  0.97485  1.0000
  H   H179      1.0  0.10733  0.96434  0.71934  1.0000
  C   C188      1.0  0.00287  0.76193  0.87819  1.0000
  H   H180      1.0  0.14982  0.57956  0.75228  1.0000
  H   H181      1.0  0.42435  0.90325  0.95607  1.0000
  C   C189      1.0  0.46936  0.88743  0.98373  1.0000
  H   H182      1.0  0.07927  0.56481  0.74664  1.0000
  S   S65       1.0  0.00881  0.59822  0.76832  1.0000
  C   C190      1.0  0.02131  0.61909  0.96350  1.0000
  H   H183      1.0  0.03806  0.77451  0.81653  1.0000
  C   C191      1.0  0.01456  0.63689  0.93886  1.0000
  H   H184      1.0  0.28726  0.50237  0.83402  1.0000
  C   C192      1.0  0.07504  0.96941  0.98052  1.0000
  H   H185      1.0  0.40125  0.99448  0.94276  1.0000
  C   C193      1.0  0.05023  0.98714  0.71412  1.0000
  H   H186      1.0  0.04329  0.98504  0.73548  1.0000
  C   C194      1.0  0.99881  0.91139  0.69824  1.0000
  C   C195      1.0  0.46755  0.98079  0.99246  1.0000
  H   H187      1.0  0.99979  0.57899  0.99239  1.0000
  C   C196      1.0  0.00849  0.50596  0.94611  1.0000
  C   C197      1.0  0.09553  0.97769  0.67770  1.0000
  C   C198      1.0  0.04474  0.94455  0.98490  1.0000
  H   H188      1.0  0.39719  0.51970  0.96210  1.0000
  C   C199      1.0  0.38097  0.51613  0.94356  1.0000
  C   C200      1.0  0.12724  0.50258  0.78516  1.0000
  H   H189      1.0  0.00010  0.62601  0.71434  1.0000
  C   C201      1.0  0.42898  0.99378  0.95247  1.0000
  C   C202      1.0  0.05991  0.50898  0.75593  1.0000
  H   H190      1.0  0.40657  0.97347  0.99059  1.0000
  Fe  Fe33      1.0  0.85739  0.44766  0.07850  1.0000
  H   H191      1.0  0.76058  0.44942  0.11499  1.0000
  C   C203      1.0  0.65196  0.44087  0.05618  1.0000
  Fe  Fe34      1.0  0.90494  0.37401  0.07895  1.0000
  S   S66       1.0  0.96046  0.40451  0.08409  1.0000
  S   S67       1.0  0.90037  0.30967  0.07542  1.0000
  Fe  Fe35      1.0  0.92858  0.43936  0.11524  1.0000
  S   S68       1.0  0.86220  0.10531  0.31988  1.0000
  Fe  Fe36      1.0  0.93813  0.44527  0.05273  1.0000
  S   S69       1.0  0.97306  0.01018  0.03552  1.0000
  S   S70       1.0  0.87345  0.40698  0.11178  1.0000
  S   S71       1.0  0.88457  0.41202  0.04526  1.0000
  H   H192      1.0  0.97442  0.24115  0.13175  1.0000
  C   C204      1.0  0.57396  0.47720  0.01107  1.0000
  H   H193      1.0  0.83890  0.47018  0.18997  1.0000
  H   H194      1.0  0.93395  0.15868  0.12201  1.0000
  H   H195      1.0  0.64551  0.41934  0.09657  1.0000
  S   S72       1.0  0.91056  0.48264  0.08434  1.0000
  H   H196      1.0  0.78810  0.08178  0.29211  1.0000
  H   H197      1.0  0.91885  0.33595  0.01361  1.0000
  C   C205      1.0  0.94431  0.31836  0.01159  1.0000
  N   N17       1.0  0.97786  0.18395  0.14515  1.0000
  C   C206      1.0  0.63291  0.45663  0.03405  1.0000
  H   H198      1.0  0.64962  0.46599  0.01691  1.0000
  C   C207      1.0  0.93909  0.27691  0.07680  1.0000
  C   C208      1.0  0.96148  0.21103  0.07427  1.0000
  C   C209      1.0  0.93145  0.23791  0.07531  1.0000
  H   H199      1.0  0.95521  0.18117  0.07267  1.0000
  H   H200      1.0  0.90208  0.22849  0.07444  1.0000
  H   H201      1.0  0.69529  0.46282  0.13310  1.0000
  S   S73       1.0  0.90813  0.05336  0.26254  1.0000
  N   N18       1.0  0.97978  0.33431  0.00986  1.0000
  C   C210      1.0  0.93230  0.41984  0.19720  1.0000
  H   H202      1.0  0.92253  0.35211  0.31438  1.0000
  H   H203      1.0  0.91092  0.40856  0.18360  1.0000
  N   N19       1.0  0.78743  0.02406  0.28051  1.0000
  Fe  Fe37      1.0  0.90795  0.06317  0.30862  1.0000
  H   H204      1.0  0.82507  0.06847  0.26837  1.0000
  C   C211      1.0  0.97717  0.28874  0.07771  1.0000
  C   C212      1.0  0.98220  0.06251  0.24209  1.0000
  C   C213      1.0  0.75055  0.01249  0.28428  1.0000
  S   S74       1.0  0.96079  0.45961  0.15301  1.0000
  H   H205      1.0  0.90183  0.05050  0.20462  1.0000
  H   H206      1.0  0.95591  0.39037  0.00745  1.0000
  C   C214      1.0  0.94044  0.26390  0.29531  1.0000
  H   H207      1.0  0.92489  0.16095  0.15805  1.0000
  H   H208      1.0  0.68297  0.43853  0.05630  1.0000
  C   C215      1.0  0.93176  0.05460  0.20924  1.0000
  C   C216      1.0  0.94333  0.05748  0.23650  1.0000
  C   C217      1.0  0.95906  0.42505  0.24306  1.0000
  C   C218      1.0  0.75525  0.48817  0.08191  1.0000
  C   C219      1.0  0.93719  0.17634  0.14058  1.0000
  N   N20       1.0  0.59390  0.46068  0.03427  1.0000
  C   C220      1.0  0.93161  0.41054  0.22494  1.0000
  C   C221      1.0  0.74215  0.46964  0.10500  1.0000
  C   C222      1.0  0.63094  0.42993  0.07877  1.0000
  C   C223      1.0  0.96029  0.44418  0.18726  1.0000
  C   C224      1.0  0.70504  0.47725  0.11518  1.0000
  C   C225      1.0  0.95861  0.05636  0.18787  1.0000
  C   C226      1.0  0.59130  0.43480  0.07901  1.0000
  S   S75       1.0  0.95597  0.41306  0.27797  1.0000
  C   C227      1.0  0.79468  0.06377  0.27412  1.0000
  H   H209      1.0  0.72706  0.03261  0.28297  1.0000
  C   C228      1.0  0.57313  0.45018  0.05640  1.0000
  H   H210      1.0  0.91223  0.26660  0.01400  1.0000
  H   H211      1.0  0.98353  0.31860  0.07878  1.0000
  H   H212      1.0  0.90859  0.34122  0.28021  1.0000
  H   H213      1.0  0.90958  0.39204  0.23243  1.0000
  H   H214      1.0  0.57491  0.42788  0.09693  1.0000
  N   N21       1.0  0.94719  0.30188  0.29759  1.0000
  H   H215      1.0  0.77661  0.07295  0.25690  1.0000
  H   H216      1.0  0.91150  0.25312  0.29636  1.0000
  H   H217      1.0  0.94924  0.05350  0.16711  1.0000
  H   H218      1.0  0.54232  0.45415  0.05684  1.0000
  C   C229      1.0  0.94034  0.27902  0.01170  1.0000
  C   C230      1.0  0.91513  0.32865  0.30023  1.0000
  H   H219      1.0  0.88914  0.31489  0.30839  1.0000
  H   H220      1.0  0.92035  0.20286  0.13790  1.0000
  C   C231      1.0  0.97228  0.00459  0.99960  1.0000
  H   H221      1.0  0.96544  0.20802  0.29178  1.0000
  H   H222      1.0  0.55035  0.45840  0.00439  1.0000
  C   C232      1.0  0.97088  0.23819  0.29262  1.0000
  S   S76       1.0  0.98065  0.46925  0.02178  1.0000
  S   S77       1.0  0.80234  0.48109  0.06863  1.0000
  C   C233      1.0  0.97294  0.25602  0.01063  1.0000
  H   H223      1.0  0.97037  0.22550  0.01185  1.0000
  C   C234      1.0  0.84475  0.48968  0.17367  1.0000
  C   C235      1.0  0.98376  0.31529  0.29659  1.0000
  H   H224      1.0  0.78895  0.48437  0.15543  1.0000
  C   C236      1.0  0.98384  0.37552  0.00995  1.0000
  H   H225      1.0  0.84654  0.00835  0.28088  1.0000
  C   C237      1.0  0.81725  0.99914  0.28351  1.0000
  C   C238      1.0  0.49328  0.15363  0.64696  1.0000
  H   H226      1.0  0.85316  0.48320  0.45699  1.0000
  S   S78       1.0  0.52353  0.47313  0.59801  1.0000
  Fe  Fe38      1.0  0.49914  0.43188  0.62791  1.0000
  S   S79       1.0  0.55348  0.39854  0.63151  1.0000
  Fe  Fe39      1.0  0.50435  0.43260  0.56525  1.0000
  S   S80       1.0  0.56005  0.39953  0.56518  1.0000
  H   H227      1.0  0.90498  0.27089  0.36372  1.0000
  Fe  Fe40      1.0  0.53140  0.36360  0.59671  1.0000
  S   S81       1.0  0.53684  0.29929  0.59628  1.0000
  Fe  Fe41      1.0  0.57760  0.43769  0.59997  1.0000
  S   S82       1.0  0.63525  0.46144  0.61435  1.0000
  H   H228      1.0  0.92908  0.41839  0.50681  1.0000
  Fe  Fe42      1.0  0.90191  0.12645  0.35203  1.0000
  S   S83       1.0  0.94941  0.08693  0.33934  1.0000
  S   S84       1.0  0.90365  0.19053  0.35856  1.0000
  Fe  Fe43      1.0  0.84045  0.06281  0.34965  1.0000
  C   C239      1.0  0.94214  0.16568  0.42105  1.0000
  Fe  Fe44      1.0  0.92228  0.04643  0.36921  1.0000
  C   C240      1.0  0.93688  0.00829  0.47851  1.0000
  S   S85       1.0  0.87669  0.08760  0.38329  1.0000
  H   H229      1.0  0.91431  0.01815  0.49189  1.0000
  C   C241      1.0  0.90466  0.43726  0.50475  1.0000
  C   C242      1.0  0.70122  0.03091  0.34621  1.0000
  H   H230      1.0  0.97788  0.25470  0.42523  1.0000
  C   C243      1.0  0.73998  0.02201  0.35111  1.0000
  C   C244      1.0  0.86194  0.47416  0.47696  1.0000
  H   H231      1.0  0.49932  0.26319  0.51802  1.0000
  H   H232      1.0  0.94662  0.09231  0.42289  1.0000
  S   S86       1.0  0.88455  0.01927  0.33719  1.0000
  H   H233      1.0  0.53508  0.21895  0.58842  1.0000
  C   C245      1.0  0.96407  0.28808  0.36332  1.0000
  C   C246      1.0  0.56841  0.00207  0.44592  1.0000
  H   H234      1.0  0.91574  0.22105  0.42211  1.0000
  C   C247      1.0  0.85655  0.47798  0.52480  1.0000
  H   H235      1.0  0.53521  0.05052  0.41464  1.0000
  H   H236      1.0  0.91044  0.03196  0.44271  1.0000
  H   H237      1.0  0.58175  0.06160  0.40077  1.0000
  C   C248      1.0  0.56084  0.03864  0.40411  1.0000
  S   S87       1.0  0.96254  0.01304  0.39734  1.0000
  H   H238      1.0  0.95732  0.31778  0.36581  1.0000
  H   H239      1.0  0.52825  0.48218  0.50276  1.0000
  C   C249      1.0  0.94248  0.22256  0.35905  1.0000
  C   C250      1.0  0.93442  0.26137  0.36216  1.0000
  N   N22       1.0  0.97570  0.14547  0.42118  1.0000
  H   H240      1.0  0.64329  0.01013  0.34235  1.0000
  C   C251      1.0  0.97725  0.22400  0.42475  1.0000
  H   H241      1.0  0.54668  0.01964  0.45557  1.0000
  C   C252      1.0  0.67271  0.00279  0.34674  1.0000
  C   C253      1.0  0.50326  0.48420  0.48994  1.0000
  S   S88       1.0  0.77467  0.05863  0.34858  1.0000
  C   C254      1.0  0.93463  0.01627  0.45056  1.0000
  H   H242      1.0  0.89719  0.44505  0.54775  1.0000
  H   H243      1.0  0.52755  0.32848  0.50806  1.0000
  C   C255      1.0  0.96344  0.00364  0.43288  1.0000
  C   C256      1.0  0.67667  0.48186  0.59922  1.0000
  C   C257      1.0  0.50607  0.22942  0.58621  1.0000
  N   N23       1.0  0.57861  0.00797  0.41955  1.0000
  H   H244      1.0  0.55056  0.02769  0.38428  1.0000
  H   H245      1.0  0.91492  0.15147  0.41866  1.0000
  C   C258      1.0  0.70804  0.49109  0.61585  1.0000
  H   H246      1.0  0.84293  0.48964  0.54277  1.0000
  C   C259      1.0  0.88684  0.45228  0.52775  1.0000
  C   C260      1.0  0.94239  0.20516  0.42313  1.0000
  H   H247      1.0  0.70664  0.48531  0.63728  1.0000
  H   H248      1.0  0.51899  0.33193  0.54406  1.0000
  C   C261      1.0  0.98069  0.21059  0.35737  1.0000
  C   C262      1.0  0.49860  0.26841  0.58886  1.0000
  H   H249      1.0  0.90644  0.43735  0.46114  1.0000
  C   C263      1.0  0.96691  0.49320  0.43996  1.0000
  H   H250      1.0  0.50213  0.36849  0.52170  1.0000
  H   H251      1.0  0.69325  0.05979  0.34165  1.0000
  C   C264      1.0  0.89200  0.44798  0.47916  1.0000
  N   N24       1.0  0.84470  0.48883  0.49967  1.0000
  C   C265      1.0  0.97526  0.10418  0.41836  1.0000
  H   H252      1.0  0.51927  0.16094  0.65873  1.0000
  S   S89       1.0  0.97490  0.39869  0.35255  1.0000
  S   S90       1.0  0.96590  0.48664  0.40415  1.0000
  C   C266      1.0  0.50657  0.33744  0.52379  1.0000
  H   H253      1.0  0.50743  0.22761  0.65219  1.0000
  H   H254      1.0  0.50162  0.14685  0.62577  1.0000
  H   H255      1.0  0.98312  0.09570  0.39736  1.0000
  H   H256      1.0  0.65529  0.48275  0.55845  1.0000
  C   C267      1.0  0.67907  0.48955  0.57154  1.0000
  C   C268      1.0  0.53917  0.46858  0.72769  1.0000
  Fe  Fe45      1.0  0.52480  0.04439  0.81323  1.0000
  S   S91       1.0  0.57838  0.07685  0.82295  1.0000
  H   H257      1.0  0.61065  0.45851  0.66847  1.0000
  H   H258      1.0  0.80507  0.03437  0.87606  1.0000
  S   S92       1.0  0.55423  0.07219  0.88717  1.0000
  Fe  Fe46      1.0  0.54038  0.10994  0.85189  1.0000
  S   S93       1.0  0.54492  0.17419  0.85453  1.0000
  Fe  Fe47      1.0  0.58744  0.03610  0.85712  1.0000
  C   C269      1.0  0.50604  0.20590  0.85983  1.0000
  H   H259      1.0  0.86912  0.04001  0.85671  1.0000
  H   H260      1.0  0.50110  0.31639  0.79591  1.0000
  N   N25       1.0  0.85706  0.03127  0.89846  1.0000
  C   C270      1.0  0.49653  0.28600  0.79579  1.0000
  H   H261      1.0  0.53121  0.14726  0.91834  1.0000
  C   C271      1.0  0.52771  0.26149  0.79177  1.0000
  S   S94       1.0  0.51800  0.02303  0.76947  1.0000
  C   C272      1.0  0.79650  0.00948  0.91505  1.0000
  C   C273      1.0  0.97737  0.48079  0.98675  1.0000
  H   H262      1.0  0.91887  0.46387  0.98131  1.0000
  H   H263      1.0  0.54216  0.25502  0.85875  1.0000
  C   C274      1.0  0.70341  0.02044  0.83839  1.0000
  C   C275      1.0  0.59421  0.43792  0.70747  1.0000
  C   C276      1.0  0.49720  0.00380  0.95065  1.0000
  C   C277      1.0  0.52189  0.22247  0.79192  1.0000
  H   H264      1.0  0.59324  0.48146  0.99350  1.0000
  C   C278      1.0  0.50710  0.16545  0.92359  1.0000
  C   C279      1.0  0.49016  0.03992  0.74172  1.0000
  H   H265      1.0  0.87799  0.08002  0.87890  1.0000
  C   C280      1.0  0.81868  0.02600  0.89481  1.0000
  C   C281      1.0  0.51322  0.24495  0.86123  1.0000
  C   C282      1.0  0.56833  0.44151  0.72890  1.0000
  C   C283      1.0  0.94290  0.48523  0.94400  1.0000
  H   H266      1.0  0.75297  0.03353  0.81412  1.0000
  H   H267      1.0  0.91029  0.03975  0.87820  1.0000
  S   S95       1.0  0.53592  0.00140  0.84593  1.0000
  H   H268      1.0  0.91688  0.48093  0.93258  1.0000
  C   C284      1.0  0.59037  0.46147  0.68501  1.0000
  H   H269      1.0  0.52259  0.01201  0.93967  1.0000
  H   H270      1.0  0.51835  0.47102  0.74396  1.0000
  H   H271      1.0  0.57048  0.42309  0.74628  1.0000
  C   C285      1.0  0.53590  0.49133  0.70479  1.0000
  H   H272      1.0  0.49596  0.36414  0.73595  1.0000
  C   C286      1.0  0.61380  0.00338  0.75804  1.0000
  C   C287      1.0  0.87972  0.04877  0.87705  1.0000
  H   H273      1.0  0.68559  0.04219  0.82953  1.0000
  C   C288      1.0  0.94394  0.47548  0.97168  1.0000
  H   H274      1.0  0.76615  0.00485  0.91183  1.0000
  Fe  Fe48      1.0  0.50254  0.03955  0.87409  1.0000
  H   H275      1.0  0.55626  0.27267  0.78911  1.0000
  H   H276      1.0  0.90407  0.02757  0.92573  1.0000
  H   H277      1.0  0.96326  0.00616  0.69090  1.0000
  H   H278      1.0  0.97799  0.99917  0.72507  1.0000
  C   C289      1.0  0.74162  0.01535  0.82964  1.0000
  N   N26       1.0  0.56119  0.48744  0.68378  1.0000
  C   C290      1.0  0.87396  0.02210  0.92249  1.0000
  H   H279      1.0  0.60427  0.03061  0.76735  1.0000
  H   H280      1.0  0.61699  0.41693  0.70806  1.0000
  H   H281      1.0  0.49089  0.09334  0.93050  1.0000
  S   S96       1.0  0.64021  0.00153  0.87012  1.0000
  C   C291      1.0  0.49398  0.02199  0.71626  1.0000
  H   H282      1.0  0.49923  0.38825  0.68889  1.0000
  H   H283      1.0  0.54595  0.20304  0.78988  1.0000
  H   H284      1.0  0.54101  0.21616  0.92217  1.0000
  C   C292      1.0  0.85273  0.00546  0.94318  1.0000
  H   H285      1.0  0.48940  0.30100  0.86769  1.0000
  H   H286      1.0  0.63718  0.00907  0.74344  1.0000
  C   C293      1.0  0.51285  0.20447  0.92577  1.0000
  H   H287      1.0  0.86650  0.99774  0.96204  1.0000
  C   C294      1.0  0.81378  0.99888  0.93929  1.0000
  C   C295      1.0  0.68842  0.99741  0.85863  1.0000
  S   S97       1.0  0.48648  0.07974  0.84032  1.0000
  H   H288      1.0  0.51368  0.99844  0.71395  1.0000
  Fe  Fe49      1.0  0.57953  0.54302  0.10191  1.0000
  H   H289      1.0  0.74025  0.52853  0.05115  1.0000
  Fe  Fe50      1.0  0.53621  0.61458  0.08367  1.0000
  S   S98       1.0  0.54326  0.67778  0.07587  1.0000
  C   C296      1.0  0.74270  0.97491  0.29078  1.0000
  C   C297      1.0  0.69321  0.52129  0.07902  1.0000
  H   H290      1.0  0.50965  0.52603  0.19177  1.0000
  S   S99       1.0  0.55607  0.59413  0.12436  1.0000
  S   S100      1.0  0.56457  0.56582  0.06073  1.0000
  C   C298      1.0  0.88054  0.50692  0.17178  1.0000
  H   H291      1.0  0.51022  0.50835  0.24034  1.0000
  H   H292      1.0  0.53442  0.71225  0.14233  1.0000
  C   C299      1.0  0.77292  0.94935  0.29399  1.0000
  H   H293      1.0  0.52652  0.84394  0.02815  1.0000
  H   H294      1.0  0.56135  0.50504  0.01691  1.0000
  H   H295      1.0  0.51788  0.89420  0.03207  1.0000
  H   H296      1.0  0.94152  0.53634  0.13066  1.0000
  H   H297      1.0  0.49113  0.80727  0.07907  1.0000
  N   N27       1.0  0.88846  0.53095  0.15097  1.0000
  C   C300      1.0  0.51362  0.75015  0.07661  1.0000
  H   H298      1.0  0.54111  0.70193  0.31070  1.0000
  H   H299      1.0  0.54316  0.75893  0.07784  1.0000
  C   C301      1.0  0.81048  0.96147  0.29037  1.0000
  Fe  Fe51      1.0  0.49980  0.56403  0.12600  1.0000
  C   C302      1.0  0.81687  0.49751  0.15428  1.0000
  H   H300      1.0  0.53336  0.78224  0.14584  1.0000
  C   C303      1.0  0.50749  0.93867  0.20942  1.0000
  C   C304      1.0  0.92632  0.54823  0.14864  1.0000
  H   H301      1.0  0.53206  0.95316  0.20127  1.0000
  C   C305      1.0  0.51389  0.71578  0.30681  1.0000
  H   H302      1.0  0.94458  0.54213  0.16653  1.0000
  H   H303      1.0  0.86790  0.55677  0.11486  1.0000
  C   C306      1.0  0.82516  0.52213  0.13322  1.0000
  S   S101      1.0  0.52396  0.51134  0.10635  1.0000
  C   C307      1.0  0.50497  0.93272  0.23758  1.0000
  C   C308      1.0  0.50715  0.72719  0.14300  1.0000
  C   C309      1.0  0.48865  0.52786  0.23304  1.0000
  S   S102      1.0  0.63315  0.51002  0.11554  1.0000
  H   H304      1.0  0.49597  0.82681  0.28990  1.0000
  H   H305      1.0  0.90213  0.50044  0.18683  1.0000
  Fe  Fe52      1.0  0.50790  0.53649  0.06600  1.0000
  C   C310      1.0  0.51769  0.87011  0.01745  1.0000
  H   H306      1.0  0.71346  0.96603  0.29436  1.0000
  C   C311      1.0  0.73047  0.51393  0.06900  1.0000
  H   H307      1.0  0.67462  0.54118  0.06883  1.0000
  H   H308      1.0  0.52743  0.94261  0.25085  1.0000
  C   C312      1.0  0.50517  0.71134  0.07510  1.0000
  C   C313      1.0  0.68027  0.50309  0.10229  1.0000
  H   H309      1.0  0.92364  0.57938  0.14669  1.0000
  C   C314      1.0  0.86140  0.53845  0.13173  1.0000
  H   H310      1.0  0.53933  0.87559  0.00150  1.0000
  H   H311      1.0  0.80384  0.52815  0.11787  1.0000
  H   H312      1.0  0.93097  0.95967  0.00099  1.0000
  H   H313      1.0  0.83431  0.94204  0.29314  1.0000
  H   H314      1.0  0.76720  0.92042  0.29983  1.0000
  Fe  Fe53      1.0  0.50564  0.91426  0.32129  1.0000
  C   C315      1.0  0.51116  0.75531  0.30696  1.0000
  H   H315      1.0  0.53652  0.77188  0.31127  1.0000
  H   H316      1.0  0.49637  0.65694  0.12380  1.0000
  C   C316      1.0  0.48843  0.53784  0.20545  1.0000
  C   C317      1.0  0.50674  0.76673  0.14491  1.0000
  S   S103      1.0  0.55521  0.87435  0.32756  1.0000
  Fe  Fe54      1.0  0.90812  0.55685  0.62200  1.0000
  S   S104      1.0  0.85850  0.59590  0.61295  1.0000
  Fe  Fe55      1.0  0.92753  0.54656  0.56112  1.0000
  S   S105      1.0  0.87994  0.58563  0.54860  1.0000
  Fe  Fe56      1.0  0.89903  0.62289  0.58327  1.0000
  S   S106      1.0  0.89701  0.68758  0.58210  1.0000
  Fe  Fe57      1.0  0.84324  0.55546  0.57925  1.0000
  S   S107      1.0  0.78463  0.53720  0.56257  1.0000
  S   S108      1.0  0.94949  0.58588  0.59410  1.0000
  C   C318      1.0  0.94309  0.52109  0.45183  1.0000
  H   H317      1.0  0.97589  0.84678  0.64391  1.0000
  H   H318      1.0  0.49117  0.94003  0.50498  1.0000
  Fe  Fe58      1.0  0.52492  0.85759  0.36569  1.0000
  S   S109      1.0  0.52431  0.79431  0.37475  1.0000
  Fe  Fe59      1.0  0.58257  0.92096  0.35234  1.0000
  H   H319      1.0  0.52720  0.51279  0.65323  1.0000
  C   C319      1.0  0.97060  0.81653  0.64405  1.0000
  Fe  Fe60      1.0  0.50734  0.94028  0.38159  1.0000
  C   C320      1.0  0.72125  0.95636  0.35748  1.0000
  H   H320      1.0  0.80683  0.52363  0.47610  1.0000
  S   S110      1.0  0.55605  0.90074  0.39125  1.0000
  C   C321      1.0  0.50521  0.50356  0.46511  1.0000
  H   H321      1.0  0.76506  0.51469  0.61819  1.0000
  C   C322      1.0  0.92322  0.83328  0.51176  1.0000
  H   H322      1.0  0.49915  0.93298  0.45511  1.0000
  H   H323      1.0  0.89872  0.75378  0.65278  1.0000
  C   C323      1.0  0.62360  0.95633  0.42166  1.0000
  S   S111      1.0  0.97308  0.89920  0.57871  1.0000
  C   C324      1.0  0.68254  0.96523  0.35240  1.0000
  H   H324      1.0  0.92422  0.54883  0.48889  1.0000
  S   S112      1.0  0.64819  0.92805  0.35255  1.0000
  H   H325      1.0  0.57579  0.96726  0.48122  1.0000
  C   C325      1.0  0.92740  0.76403  0.64898  1.0000
  H   H326      1.0  0.50940  0.62082  0.45740  1.0000
  H   H327      1.0  0.91123  0.91626  0.52773  1.0000
  C   C326      1.0  0.93538  0.71922  0.57723  1.0000
  C   C327      1.0  0.92821  0.75829  0.57966  1.0000
  S   S113      1.0  0.95562  0.93209  0.65325  1.0000
  H   H328      1.0  0.89941  0.76825  0.58380  1.0000
  C   C328      1.0  0.97526  0.87512  0.50546  1.0000
  H   H329      1.0  0.62540  0.92614  0.45930  1.0000
  H   H330      1.0  0.72930  0.92743  0.36183  1.0000
  C   C329      1.0  0.60604  0.98577  0.40747  1.0000
  C   C330      1.0  0.55740  0.51225  0.66033  1.0000
  H   H331      1.0  0.64487  0.93842  0.41172  1.0000
  C   C331      1.0  0.49305  0.72332  0.37317  1.0000
  H   H332      1.0  0.52204  0.71353  0.37658  1.0000
  H   H333      1.0  0.91071  0.82290  0.65339  1.0000
  H   H334      1.0  0.89287  0.82849  0.51457  1.0000
  S   S114      1.0  0.96661  0.51155  0.53280  1.0000
  C   C332      1.0  0.74979  0.98449  0.35688  1.0000
  C   C333      1.0  0.97269  0.70663  0.57190  1.0000
  S   S115      1.0  0.89017  0.51444  0.59000  1.0000
  S   S116      1.0  0.53492  0.96254  0.34338  1.0000
  H   H335      1.0  0.95215  0.81448  0.57938  1.0000
  H   H336      1.0  0.71362  0.51245  0.53940  1.0000
  N   N28       1.0  0.95659  0.73909  0.64343  1.0000
  N   N29       1.0  0.93679  0.86906  0.50790  1.0000
  C   C334      1.0  0.71230  0.50640  0.56079  1.0000
  C   C335      1.0  0.96786  0.98760  0.48932  1.0000
  C   C336      1.0  0.94283  0.52741  0.48010  1.0000
  C   C337      1.0  0.48612  0.95835  0.46350  1.0000
  C   C338      1.0  0.95806  0.78455  0.57721  1.0000
  C   C339      1.0  0.74364  0.51568  0.57744  1.0000
  H   H337      1.0  0.91867  0.92198  0.49194  1.0000
  C   C340      1.0  0.96661  0.50598  0.49691  1.0000
  H   H338      1.0  0.92466  0.53796  0.43906  1.0000
  C   C341      1.0  0.91035  0.90145  0.50779  1.0000
  H   H339      1.0  0.88047  0.89281  0.50352  1.0000
  C   C342      1.0  0.61266  0.94947  0.44831  1.0000
  H   H340      1.0  0.82150  0.54328  0.50809  1.0000
  H   H341      1.0  0.50924  0.58288  0.49929  1.0000
  S   S117      1.0  0.96819  0.97759  0.52478  1.0000
  C   C343      1.0  0.94956  0.69823  0.64396  1.0000
  C   C344      1.0  0.58494  0.97251  0.46060  1.0000
  H   H342      1.0  0.91918  0.69172  0.63915  1.0000
  H   H343      1.0  0.93767  0.77397  0.51592  1.0000
  H   H344      1.0  0.77938  0.97708  0.36069  1.0000
  C   C345      1.0  0.94834  0.80229  0.51241  1.0000
  H   H345      1.0  0.96698  0.68313  0.62835  1.0000
  C   C346      1.0  0.93394  0.80308  0.64932  1.0000
  C   C347      1.0  0.81355  0.51664  0.49742  1.0000
  H   H346      1.0  0.78719  0.50562  0.50713  1.0000
  H   H347      1.0  0.61403  0.99032  0.38657  1.0000
  C   C348      1.0  0.74132  0.50777  0.60508  1.0000
  H   H348      1.0  0.97855  0.67663  0.56989  1.0000
  H   H349      1.0  0.53183  0.51646  0.45908  1.0000
  H   H350      1.0  0.57538  0.50230  0.64306  1.0000
  C   C349      1.0  0.97505  0.50072  0.93103  1.0000
  H   H351      1.0  0.91024  0.56522  0.92322  1.0000
  Fe  Fe61      1.0  0.90592  0.87234  0.85787  1.0000
  S   S118      1.0  0.96420  0.89797  0.85520  1.0000
  S   S119      1.0  0.89781  0.80903  0.86379  1.0000
  Fe  Fe62      1.0  0.86512  0.94584  0.84148  1.0000
  H   H352      1.0  0.92596  0.50763  0.71918  1.0000
  C   C350      1.0  0.60909  0.93791  0.81690  1.0000
  Fe  Fe63      1.0  0.94314  0.92253  0.81590  1.0000
  S   S120      1.0  0.92187  0.97533  0.83692  1.0000
  Fe  Fe64      1.0  0.93774  0.94837  0.87665  1.0000
  C   C351      1.0  0.93899  0.92737  0.73477  1.0000
  S   S121      1.0  0.88579  0.89474  0.81771  1.0000
  S   S122      1.0  0.88007  0.92119  0.88214  1.0000
  H   H353      1.0  0.95459  0.68142  0.86301  1.0000
  H   H354      1.0  0.89937  0.61542  0.92166  1.0000
  C   C352      1.0  0.66369  0.96914  0.78324  1.0000
  C   C353      1.0  0.97564  0.81701  0.80809  1.0000
  C   C354      1.0  0.98376  0.60024  0.71555  1.0000
  C   C355      1.0  0.64767  0.92934  0.82094  1.0000
  H   H355      1.0  0.97663  0.64206  0.90500  1.0000
  C   C356      1.0  0.92171  0.59350  0.91797  1.0000
  H   H356      1.0  0.58756  0.92695  0.83052  1.0000
  C   C357      1.0  0.48931  0.51808  0.98331  1.0000
  S   S123      1.0  0.91925  0.53423  0.66474  1.0000
  H   H357      1.0  0.70537  0.93912  0.80740  1.0000
  C   C358      1.0  0.94774  0.75505  0.79820  1.0000
  H   H358      1.0  0.96573  0.60224  0.67358  1.0000
  C   C359      1.0  0.96333  0.92327  0.68820  1.0000
  H   H359      1.0  0.76815  0.94233  0.86995  1.0000
  C   C360      1.0  0.93334  0.93059  0.70661  1.0000
  C   C361      1.0  0.98154  0.62815  0.92418  1.0000
  C   C362      1.0  0.94790  0.97047  0.95968  1.0000
  H   H360      1.0  0.79699  0.98578  0.95509  1.0000
  C   C363      1.0  0.93627  0.77655  0.86803  1.0000
  C   C364      1.0  0.92983  0.73769  0.86401  1.0000
  H   H361      1.0  0.97829  0.81828  0.87859  1.0000
  H   H362      1.0  0.90148  0.72815  0.85861  1.0000
  C   C365      1.0  0.76535  0.98720  0.84090  1.0000
  C   C366      1.0  0.96195  0.58544  0.95823  1.0000
  C   C367      1.0  0.94209  0.53357  0.71809  1.0000
  S   S124      1.0  0.97140  0.51404  0.89637  1.0000
  C   C368      1.0  0.95989  0.71112  0.86656  1.0000
  N   N30       1.0  0.95613  0.60217  0.93369  1.0000
  C   C369      1.0  0.97065  0.99224  0.94257  1.0000
  H   H363      1.0  0.94177  0.56495  0.96589  1.0000
  H   H364      1.0  0.70089  0.95122  0.88552  1.0000
  H   H365      1.0  0.92566  0.69925  0.78951  1.0000
  N   N31       1.0  0.62571  0.97711  0.77926  1.0000
  C   C370      1.0  0.67519  0.94476  0.80390  1.0000
  C   C371      1.0  0.71219  0.96929  0.86990  1.0000
  H   H366      1.0  0.91587  0.93396  0.74867  1.0000
  C   C372      1.0  0.97300  0.78855  0.87509  1.0000
  C   C373      1.0  0.94341  0.55330  0.69346  1.0000
  C   C374      1.0  0.75034  0.96410  0.86107  1.0000
  C   C375      1.0  0.96130  0.54708  0.74133  1.0000
  H   H367      1.0  0.90572  0.93971  0.69909  1.0000
  S   S125      1.0  0.81375  0.98332  0.82971  1.0000
  H   H368      1.0  0.92974  0.94879  0.95114  1.0000
  C   C376      1.0  0.97482  0.91675  0.74487  1.0000
  H   H369      1.0  0.92851  0.59205  0.89600  1.0000
  H   H370      1.0  0.52787  0.99111  0.98742  1.0000
  H   H371      1.0  0.65633  0.91184  0.83782  1.0000
  H   H372      1.0  0.94693  0.82556  0.81585  1.0000
  H   H373      1.0  0.56636  0.54136  0.66579  1.0000
  C   C377      1.0  0.59854  0.96186  0.79576  1.0000
  H   H374      1.0  0.92030  0.76890  0.79507  1.0000
  H   H375      1.0  0.49720  0.53457  0.94169  1.0000
  H   H376      1.0  0.68543  0.98201  0.77074  1.0000
  C   C378      1.0  0.94862  0.97675  0.98796  1.0000
  H   H377      1.0  0.50344  0.54275  0.99152  1.0000
  N   N32       1.0  0.97893  0.77573  0.80579  1.0000
  S   S126      1.0  0.97013  0.98672  0.90663  1.0000
  C   C379      1.0  0.96429  0.58688  0.69237  1.0000
  C   C380      1.0  0.95053  0.71570  0.79511  1.0000
  H   H378      1.0  0.56848  0.96866  0.79287  1.0000
  H   H379      1.0  0.95978  0.53159  0.76007  1.0000
  C   C381      1.0  0.98248  0.58042  0.74014  1.0000
  H   H380      1.0  0.98018  0.83030  0.78806  1.0000
  C   C382      1.0  0.50010  0.99191  0.97777  1.0000
  C   C383      1.0  0.48576  0.51332  0.95502  1.0000
  H   H381      1.0  0.48981  0.90648  0.97465  1.0000
  H   H382      1.0  0.95653  0.68667  0.66419  1.0000
  H   H383      1.0  0.51224  0.51131  0.70351  1.0000
  S   S127      1.0  0.98501  0.59830  0.84828  1.0000
  H   H384      1.0  0.58931  0.99156  0.74642  1.0000
  S   S128      1.0  0.98478  0.91593  0.78015  1.0000
  C   C384      1.0  0.98550  0.69761  0.79981  1.0000
