data_image0
_chemical_formula_structural       FeSNCHCFeS2FeS2FeSFeS3FeSHSFeSHSC8H4C2HC3H4C7H3CFeH3NHC2H2CHC5SHCHFeHCHSH4CHCHC2H2CSH2C3H2NHCH2CSC2HC5HCH5SHNCH4CH2CNC2H3FeS2FeS2FeSFeS3FeHC2H2SH2FeS2FeS2FeSFeS3H2SHCHFeC7HC2HC4HCH2CSHSHC2H4C7H5CHC4FeHC6H5CNC6FeH2CH5SCNCH2SHCFeH2CHCNCHCH2C3HSHNH2SC2HNC6H8FeC2HCH3C2H2CHNSC4SH2CHC3SH3FeS2FeSFeSFeS2FeS2FeSFeS3FeS2HCHC2H3C2H2CH3CHC6H5CHSC8H4CH2NC3H2C2HC2SCNH2C2H3CHNC6H5CSHNC3HCH4FeC3H2C2H2CSHCSC2H2SHFeS2FeS2FeS2FeS2FeSFeS3C3HC6H4NC5HCHC7H4SH2CH3CH2NCHC3HC2HCNH2CNH4C3H3SCH2NC2H3SC2HC2HCH3CHCFe2CHSNCH4CHCSHCSH3C2H2C3H2FeH3FeS2FeS2FeSFeS3H2SHFe2SCHCH4SHFeS2FeS2FeSFeS3HC3HNCHC2HC6H2CHNHC3HCH2C6H4CSC2H4C9H3C6HCHNHCNC6H8CNC2HFeC5NH2C3H5NH4SC2HC2H2CH4CH2C2S2H2CHC2H3CHC2H3FeHCH3NCHC2SH3CFeS2FeS2FeSFeS3CFeS3Fe2S2H3CN2FeH2C3HSHC2HSCH4C6H2CHC6HCH2C6H4NC6H4SHSHCSH3CHCH2C3HCHCHCNHCH4SH3C3H3CHCHCS2CHCH3FeH2FeSH2FeCH3C3HCFeHFeSFeSFeSFeS3FeS2FeS2FeSFeS3C6H5NC2HCNHCH3C2H2CH3CSCHSH2C2H2CH2C3H2CSHCH6SC2HC2HCH2CH3C2H2C3HCNHCH3C5SCH2C2HC2H4SC2H4CH2SNH3SCHC2SFeS2FeS2FeSFeS3CHC2SFeCFeS2FeS2FeSFeS3C6H4SHSC3FeH2C7H2CHC6H4C6H4C6H2CHC8H4CH2C2HSC2H3C5H3SHCNCH3CHCNSCH3FeH4SH3CH2NH2Fe2CH2FeH2C2HCH2CSHC4FeSFeS2FeSFeS3FeS2FeS2FeSFeS3HFeHC3H2C2HNHCH2C6H4C6H3CHC2HC2H2SC3HCNCHCHC3SNCH2SH3CH2C4H2CHNC4HCH2C2NSCHCHCHCHCH6C2H2CH3CH2CHCH8C4H2FeHFeS2FeS2FeSFeS3HFeS2FeS2Fe2S3HC3NH5C3HC3HCH2C6H4SHC4HCH2C2HC3H2CSNC6H8NCNCH3CHCHCH4C3NH3CSCH2C2HC2H2C3HC4H2C2H3CHNC2HSH2C2H2C3FeS2FeS2FeSFeS3HSHFeHSH3FeS2FeS2FeSFeS3FeSFeC2HC3HC3HC2HNHC7H4C6HNH2C6H4C6H2CHC5H2CHC6H4NC6H7SHCH2CHCH5C2NH3CHC2HC2HC2N2H3SHSFeNHC2NCHCHC3H2C2H3C2H3CH5CH3CHC4HCFeS2FeS2FeSFeS3FeS2FeS2Fe2S2HFeHSH2C2HC4H4SH4CH3C3H4C2HSC2H4C6H3FeHCSHCHCHCH2NH2CNCHNC3H2C2HSC4NH5C4H4C7H2SC2HC2NCH5FeC
_chemical_formula_sum              "Fe128 S256 N64 C768 H768"
_cell_length_a       39.788
_cell_length_b       40.2248
_cell_length_c       66.7142
_cell_angle_alpha    89.8675
_cell_angle_beta     89.8753
_cell_angle_gamma    90.2621

_space_group_name_H-M_alt    "P 1"
_space_group_IT_number       1

loop_
  _space_group_symop_operation_xyz
  'x, y, z'

loop_
  _atom_site_type_symbol
  _atom_site_label
  _atom_site_symmetry_multiplicity
  _atom_site_fract_x
  _atom_site_fract_y
  _atom_site_fract_z
  _atom_site_occupancy
  Fe  Fe1       1.0  0.13344  0.42811  0.33818  1.0000
  S   S1        1.0  0.15798  0.45895  0.31341  1.0000
  N   N1        1.0  0.33171  0.41589  0.16162  1.0000
  C   C1        1.0  0.14441  0.49287  0.25650  1.0000
  H   H1        1.0  0.35880  0.37568  0.17502  1.0000
  C   C2        1.0  0.07553  0.45330  0.12912  1.0000
  Fe  Fe2       1.0  0.32779  0.35013  0.07362  1.0000
  S   S2        1.0  0.29780  0.31534  0.09318  1.0000
  S   S3        1.0  0.32564  0.35374  0.03963  1.0000
  Fe  Fe3       1.0  0.37677  0.36772  0.10771  1.0000
  S   S4        1.0  0.35103  0.33398  0.12983  1.0000
  S   S5        1.0  0.42193  0.40118  0.11267  1.0000
  Fe  Fe4       1.0  0.34756  0.29719  0.10458  1.0000
  S   S6        1.0  0.36172  0.24270  0.10335  1.0000
  Fe  Fe5       1.0  0.30330  0.35507  0.11679  1.0000
  S   S7        1.0  0.26206  0.36738  0.13903  1.0000
  S   S8        1.0  0.37732  0.32940  0.08353  1.0000
  S   S9        1.0  0.32935  0.39147  0.09632  1.0000
  Fe  Fe6       1.0  0.42313  0.04606  0.17960  1.0000
  S   S10       1.0  0.39638  0.07436  0.20375  1.0000
  H   H2        1.0  0.22935  0.01464  0.17849  1.0000
  S   S11       1.0  0.32638  0.05177  0.18194  1.0000
  Fe  Fe7       1.0  0.36404  0.09320  0.17862  1.0000
  S   S12       1.0  0.35025  0.14780  0.17914  1.0000
  H   H3        1.0  0.31594  0.36667  0.16800  1.0000
  S   S13       1.0  0.39323  0.06775  0.15436  1.0000
  C   C3        1.0  0.10935  0.40518  0.13658  1.0000
  C   C4        1.0  0.33053  0.26437  0.04981  1.0000
  C   C5        1.0  0.35545  0.21589  0.12401  1.0000
  C   C6        1.0  0.36585  0.18264  0.12258  1.0000
  C   C7        1.0  0.36341  0.16114  0.13918  1.0000
  C   C8        1.0  0.35051  0.17280  0.15736  1.0000
  C   C9        1.0  0.33956  0.20588  0.15868  1.0000
  C   C10       1.0  0.34193  0.22737  0.14206  1.0000
  H   H4        1.0  0.37632  0.17363  0.10864  1.0000
  H   H5        1.0  0.37195  0.13576  0.13800  1.0000
  H   H6        1.0  0.32953  0.21503  0.17271  1.0000
  H   H7        1.0  0.33376  0.25290  0.14330  1.0000
  C   C11       1.0  0.45215  0.39434  0.13157  1.0000
  C   C12       1.0  0.48137  0.41406  0.13184  1.0000
  H   H8        1.0  0.08186  0.43509  0.25702  1.0000
  C   C13       1.0  0.50020  0.38687  0.16231  1.0000
  C   C14       1.0  0.47108  0.36697  0.16199  1.0000
  C   C15       1.0  0.44720  0.37051  0.14660  1.0000
  H   H9        1.0  0.48532  0.43256  0.12025  1.0000
  H   H10       1.0  0.37793  0.40550  0.14662  1.0000
  H   H11       1.0  0.46694  0.34882  0.17374  1.0000
  H   H12       1.0  0.42485  0.35512  0.14651  1.0000
  C   C16       1.0  0.20741  0.46738  0.13788  1.0000
  C   C17       1.0  0.22891  0.45859  0.12206  1.0000
  C   C18       1.0  0.24547  0.42780  0.12208  1.0000
  C   C19       1.0  0.24054  0.40555  0.13794  1.0000
  C   C20       1.0  0.21871  0.41417  0.15366  1.0000
  C   C21       1.0  0.20225  0.44506  0.15368  1.0000
  C   C22       1.0  0.50938  0.08737  0.12830  1.0000
  H   H13       1.0  0.26214  0.42138  0.10988  1.0000
  H   H14       1.0  0.21477  0.39701  0.16598  1.0000
  H   H15       1.0  0.18559  0.45158  0.16589  1.0000
  C   C23       1.0  0.14270  0.46319  0.28862  1.0000
  Fe  Fe8       1.0  0.36140  0.03055  0.20514  1.0000
  H   H16       1.0  0.26643  0.27838  0.05863  1.0000
  H   H17       1.0  0.05188  0.46641  0.13061  1.0000
  H   H18       1.0  0.49790  0.09489  0.11432  1.0000
  N   N2        1.0  0.10202  0.46757  0.11915  1.0000
  H   H19       1.0  0.17846  0.50173  0.28109  1.0000
  C   C24       1.0  0.25794  0.36550  0.03321  1.0000
  C   C25       1.0  0.24496  0.28308  0.02929  1.0000
  H   H20       1.0  0.22013  0.28931  0.03482  1.0000
  H   H21       1.0  0.25527  0.36718  0.04932  1.0000
  C   C26       1.0  0.35505  0.44986  0.13532  1.0000
  H   H22       1.0  0.46229  0.07375  0.14211  1.0000
  C   C27       1.0  0.10291  0.44977  0.26225  1.0000
  C   C28       1.0  0.50547  0.41019  0.14706  1.0000
  C   C29       1.0  0.03604  0.48279  0.29356  1.0000
  C   C30       1.0  0.11558  0.44432  0.28166  1.0000
  C   C31       1.0  0.13576  0.41936  0.12571  1.0000
  S   S14       1.0  0.47986  0.04436  0.18047  1.0000
  H   H23       1.0  0.46854  0.12673  0.17521  1.0000
  C   C32       1.0  0.33297  0.38603  0.17424  1.0000
  H   H24       1.0  0.42313  0.12678  0.17564  1.0000
  Fe  Fe9       1.0  0.35822  0.02444  0.15970  1.0000
  H   H25       1.0  0.32125  0.25817  0.06512  1.0000
  C   C33       1.0  0.45979  0.16794  0.14517  1.0000
  H   H26       1.0  0.20533  0.37395  0.02729  1.0000
  S   S15       1.0  0.09682  0.48295  0.22658  1.0000
  H   H27       1.0  0.10428  0.42565  0.29127  1.0000
  H   H28       1.0  0.45513  0.02982  0.09179  1.0000
  H   H29       1.0  0.32485  0.39178  0.18978  1.0000
  H   H30       1.0  0.34645  0.28706  0.05084  1.0000
  C   C34       1.0  0.48915  0.07556  0.14406  1.0000
  H   H31       1.0  0.47368  0.14580  0.14116  1.0000
  C   C35       1.0  0.50395  0.06434  0.16178  1.0000
  H   H32       1.0  0.23288  0.47574  0.10974  1.0000
  C   C36       1.0  0.11687  0.47440  0.24970  1.0000
  C   C37       1.0  0.13155  0.45068  0.11693  1.0000
  H   H33       1.0  0.40835  0.24586  0.15849  1.0000
  H   H34       1.0  0.37480  0.45436  0.12436  1.0000
  C   C38       1.0  0.30234  0.46478  0.15072  1.0000
  S   S16       1.0  0.09211  0.38982  0.33895  1.0000
  H   H35       1.0  0.41306  0.19922  0.18257  1.0000
  H   H36       1.0  0.44654  0.15114  0.19339  1.0000
  C   C39       1.0  0.44592  0.14239  0.17761  1.0000
  C   C40       1.0  0.42360  0.22441  0.15482  1.0000
  C   C41       1.0  0.35667  0.42212  0.14795  1.0000
  H   H37       1.0  0.15241  0.46183  0.10880  1.0000
  H   H38       1.0  0.46836  0.19133  0.11638  1.0000
  N   N3        1.0  0.44476  0.17043  0.16357  1.0000
  H   H39       1.0  0.09411  0.50531  0.32834  1.0000
  C   C42       1.0  0.07890  0.42209  0.13819  1.0000
  H   H40       1.0  0.43515  0.24166  0.12498  1.0000
  H   H41       1.0  0.11257  0.38123  0.14384  1.0000
  C   C43       1.0  0.09859  0.50068  0.11018  1.0000
  S   S17       1.0  0.10448  0.49184  0.17047  1.0000
  C   C44       1.0  0.27131  0.27703  0.04267  1.0000
  C   C45       1.0  0.43867  0.22203  0.13599  1.0000
  H   H42       1.0  0.32583  0.49261  0.12682  1.0000
  C   C46       1.0  0.32765  0.47126  0.13672  1.0000
  C   C47       1.0  0.15735  0.48712  0.27586  1.0000
  C   C48       1.0  0.28955  0.35966  0.02478  1.0000
  C   C49       1.0  0.42653  0.19804  0.16842  1.0000
  C   C50       1.0  0.30466  0.43664  0.16301  1.0000
  H   H43       1.0  0.05819  0.41145  0.14668  1.0000
  C   C51       1.0  0.45699  0.19366  0.13111  1.0000
  H   H44       1.0  0.15966  0.40657  0.12442  1.0000
  H   H45       1.0  0.28429  0.43109  0.17334  1.0000
  H   H46       1.0  0.51060  0.01994  0.10739  1.0000
  H   H47       1.0  0.24139  0.10542  0.34178  1.0000
  H   H48       1.0  0.28057  0.48090  0.15170  1.0000
  S   S18       1.0  0.18692  0.50609  0.13693  1.0000
  H   H49       1.0  0.34641  0.24329  0.04487  1.0000
  N   N4        1.0  0.30290  0.27010  0.03571  1.0000
  C   C52       1.0  0.05269  0.48380  0.31202  1.0000
  H   H50       1.0  0.19837  0.46603  0.34901  1.0000
  H   H51       1.0  0.09258  0.49845  0.09401  1.0000
  H   H52       1.0  0.04470  0.46785  0.32434  1.0000
  H   H53       1.0  0.03296  0.47492  0.25206  1.0000
  C   C53       1.0  0.22973  0.36923  0.02072  1.0000
  H   H54       1.0  0.32219  0.10856  0.34515  1.0000
  H   H55       1.0  0.20097  0.15010  0.34967  1.0000
  C   C54       1.0  0.45670  0.01692  0.10606  1.0000
  N   N5        1.0  0.04649  0.50242  0.27793  1.0000
  C   C55       1.0  0.02915  0.50003  0.25860  1.0000
  C   C56       1.0  0.08025  0.50499  0.31435  1.0000
  H   H56       1.0  0.29127  0.07628  0.34929  1.0000
  H   H57       1.0  0.15538  0.51186  0.24699  1.0000
  H   H58       1.0  0.28293  0.06241  0.41237  1.0000
  Fe  Fe10      1.0  0.21237  0.09099  0.40684  1.0000
  S   S19       1.0  0.18677  0.06836  0.43359  1.0000
  S   S20       1.0  0.23164  0.05937  0.38137  1.0000
  Fe  Fe11      1.0  0.20297  0.16179  0.42202  1.0000
  S   S21       1.0  0.17778  0.14464  0.45037  1.0000
  S   S22       1.0  0.21457  0.21646  0.41743  1.0000
  Fe  Fe12      1.0  0.21734  0.10501  0.45150  1.0000
  S   S23       1.0  0.24972  0.08593  0.47706  1.0000
  Fe  Fe13      1.0  0.14947  0.10975  0.42995  1.0000
  S   S24       1.0  0.09297  0.10694  0.43378  1.0000
  S   S25       1.0  0.24522  0.12506  0.42468  1.0000
  S   S26       1.0  0.17246  0.12954  0.40155  1.0000
  Fe  Fe14      1.0  0.14106  0.42797  0.38344  1.0000
  H   H59       1.0  0.46954  0.31001  0.65203  1.0000
  C   C57       1.0  0.26970  0.03790  0.38481  1.0000
  C   C58       1.0  0.18986  0.10109  0.67221  1.0000
  H   H60       1.0  0.41659  0.17675  0.67603  1.0000
  H   H61       1.0  0.44950  0.19399  0.63459  1.0000
  S   S27       1.0  0.10011  0.38998  0.38847  1.0000
  H   H62       1.0  0.25270  0.18325  0.45164  1.0000
  H   H63       1.0  0.31216  0.14719  0.38245  1.0000
  Fe  Fe15      1.0  0.30017  0.10556  0.62644  1.0000
  S   S28       1.0  0.32740  0.10203  0.59681  1.0000
  S   S29       1.0  0.28525  0.06049  0.64496  1.0000
  Fe  Fe16      1.0  0.30809  0.18118  0.62869  1.0000
  S   S30       1.0  0.33572  0.18338  0.59947  1.0000
  S   S31       1.0  0.29365  0.22725  0.64622  1.0000
  Fe  Fe17      1.0  0.29692  0.14705  0.58813  1.0000
  S   S32       1.0  0.26839  0.16123  0.55968  1.0000
  Fe  Fe18      1.0  0.36367  0.13848  0.61076  1.0000
  S   S33       1.0  0.42067  0.13827  0.60817  1.0000
  S   S34       1.0  0.26718  0.14776  0.61695  1.0000
  S   S35       1.0  0.33861  0.13906  0.64086  1.0000
  H   H64       1.0  0.22256  0.22832  0.46911  1.0000
  H   H65       1.0  0.49302  0.32760  0.63110  1.0000
  S   S36       1.0  0.40620  0.41963  0.65588  1.0000
  H   H66       1.0  0.17949  0.11685  0.66057  1.0000
  C   C59       1.0  0.30374  0.09834  0.35608  1.0000
  H   H67       1.0  0.24484  0.01635  0.44752  1.0000
  Fe  Fe19      1.0  0.36175  0.44993  0.66559  1.0000
  C   C60       1.0  0.24285  0.21535  0.47665  1.0000
  C   C61       1.0  0.44493  0.11109  0.62312  1.0000
  C   C62       1.0  0.48017  0.11346  0.62246  1.0000
  C   C63       1.0  0.50018  0.09426  0.63541  1.0000
  C   C64       1.0  0.48508  0.07195  0.64881  1.0000
  C   C65       1.0  0.44990  0.06889  0.64908  1.0000
  C   C66       1.0  0.42986  0.08854  0.63639  1.0000
  H   H68       1.0  0.49202  0.13068  0.61213  1.0000
  C   C67       1.0  0.03241  0.08766  0.41805  1.0000
  C   C68       1.0  0.17943  0.01546  0.64820  1.0000
  H   H69       1.0  0.40275  0.08634  0.63695  1.0000
  C   C69       1.0  0.32504  0.25492  0.65471  1.0000
  C   C70       1.0  0.35903  0.24951  0.65054  1.0000
  C   C71       1.0  0.38327  0.27298  0.65657  1.0000
  C   C72       1.0  0.37364  0.30223  0.66648  1.0000
  H   H70       1.0  0.03514  0.12260  0.36127  1.0000
  C   C73       1.0  0.31551  0.28380  0.66505  1.0000
  H   H71       1.0  0.36655  0.22734  0.64258  1.0000
  H   H72       1.0  0.08240  0.18120  0.42859  1.0000
  C   C74       1.0  0.02518  0.05567  0.38747  1.0000
  S   S37       1.0  0.11023  0.45896  0.36253  1.0000
  H   H73       1.0  0.12048  0.23676  0.37107  1.0000
  S   S38       1.0  0.16638  0.39868  0.35915  1.0000
  H   H74       1.0  0.42329  0.13270  0.67184  1.0000
  C   C75       1.0  0.21839  0.05604  0.63361  1.0000
  C   C76       1.0  0.24434  0.04369  0.64558  1.0000
  H   H75       1.0  0.09033  0.20856  0.40735  1.0000
  H   H76       1.0  0.29807  0.15264  0.46905  1.0000
  H   H77       1.0  0.22327  0.07643  0.62338  1.0000
  H   H78       1.0  0.50892  0.20706  0.62656  1.0000
  C   C77       1.0  0.06022  0.15053  0.38463  1.0000
  C   C78       1.0  0.25091  0.10401  0.50123  1.0000
  C   C79       1.0  0.27374  0.09171  0.51547  1.0000
  C   C80       1.0  0.27801  0.10772  0.53408  1.0000
  C   C81       1.0  0.25942  0.13620  0.53854  1.0000
  C   C82       1.0  0.23544  0.14746  0.52468  1.0000
  C   C83       1.0  0.23119  0.13150  0.50610  1.0000
  H   H79       1.0  0.28893  0.07029  0.51188  1.0000
  H   H80       1.0  0.29657  0.09882  0.54462  1.0000
  H   H81       1.0  0.22071  0.16927  0.52811  1.0000
  H   H82       1.0  0.21325  0.14096  0.49537  1.0000
  H   H83       1.0  0.50654  0.39249  0.61557  1.0000
  C   C84       1.0  0.46926  0.18480  0.64432  1.0000
  H   H84       1.0  0.47208  0.42381  0.63991  1.0000
  C   C85       1.0  0.06751  0.08627  0.41602  1.0000
  C   C86       1.0  0.08144  0.06947  0.39969  1.0000
  C   C87       1.0  0.48098  0.33305  0.64578  1.0000
  C   C88       1.0  0.28785  0.14783  0.37515  1.0000
  Fe  Fe20      1.0  0.43538  0.44756  0.67900  1.0000
  H   H85       1.0  0.10845  0.06814  0.39802  1.0000
  C   C89       1.0  0.18722  0.24155  0.40295  1.0000
  C   C90       1.0  0.19268  0.27605  0.40194  1.0000
  C   C91       1.0  0.17203  0.29642  0.38998  1.0000
  C   C92       1.0  0.14598  0.28233  0.37874  1.0000
  C   C93       1.0  0.14047  0.24783  0.37981  1.0000
  C   C94       1.0  0.16084  0.22755  0.39193  1.0000
  H   H86       1.0  0.21304  0.28713  0.41036  1.0000
  H   H87       1.0  0.17654  0.32295  0.38927  1.0000
  H   H88       1.0  0.03757  0.35653  0.36344  1.0000
  H   H89       1.0  0.15651  0.20106  0.39246  1.0000
  H   H90       1.0  0.16598  0.05146  0.62561  1.0000
  C   C95       1.0  0.33969  0.30759  0.67073  1.0000
  N   N6        1.0  0.05634  0.16880  0.40176  1.0000
  C   C96       1.0  0.48641  0.15282  0.67245  1.0000
  C   C97       1.0  0.49359  0.36407  0.67635  1.0000
  C   C98       1.0  0.29034  0.04425  0.40131  1.0000
  C   C99       1.0  0.28564  0.17302  0.47665  1.0000
  C   C100      1.0  0.32051  0.02663  0.40369  1.0000
  C   C101      1.0  0.50280  0.19222  0.63966  1.0000
  Fe  Fe21      1.0  0.07151  0.41829  0.36512  1.0000
  H   H91       1.0  0.27780  0.47633  0.39189  1.0000
  H   H92       1.0  0.34666  0.17629  0.50129  1.0000
  C   C102      1.0  0.22371  0.10391  0.67738  1.0000
  H   H93       1.0  0.32307  0.13766  0.50128  1.0000
  H   H94       1.0  0.46054  0.35121  0.64288  1.0000
  H   H95       1.0  0.23987  0.12171  0.66969  1.0000
  H   H96       1.0  0.03163  0.39433  0.40263  1.0000
  H   H97       1.0  0.33209  0.32989  0.67852  1.0000
  S   S39       1.0  0.40482  0.33153  0.67304  1.0000
  C   C103      1.0  0.02491  0.17562  0.40897  1.0000
  N   N7        1.0  0.27920  0.12390  0.36153  1.0000
  C   C104      1.0  0.25197  0.22374  0.49620  1.0000
  H   H98       1.0  0.14381  0.07407  0.67701  1.0000
  H   H99       1.0  0.02184  0.18992  0.42259  1.0000
  S   S40       1.0  0.12015  0.30664  0.36290  1.0000
  H   H100      1.0  0.22451  0.48297  0.43028  1.0000
  C   C105      1.0  0.49907  0.42412  0.64121  1.0000
  Fe  Fe22      1.0  0.12284  0.36313  0.36239  1.0000
  H   H101      1.0  0.21660  0.19407  0.37414  1.0000
  H   H102      1.0  0.23863  0.24315  0.50414  1.0000
  C   C106      1.0  0.08584  0.18241  0.41206  1.0000
  H   H103      1.0  0.28926  0.28798  0.66840  1.0000
  C   C107      1.0  0.03215  0.13820  0.37441  1.0000
  N   N8        1.0  0.29446  0.18143  0.49581  1.0000
  C   C108      1.0  0.06032  0.05397  0.38557  1.0000
  H   H104      1.0  0.10863  0.16753  0.40880  1.0000
  C   C109      1.0  0.16986  0.07684  0.68154  1.0000
  H   H105      1.0  0.28473  0.21278  0.52091  1.0000
  H   H106      1.0  0.43802  0.05148  0.65929  1.0000
  C   C110      1.0  0.18631  0.49023  0.40790  1.0000
  C   C111      1.0  0.32251  0.16434  0.50559  1.0000
  C   C112      1.0  0.27820  0.20660  0.50556  1.0000
  H   H107      1.0  0.40953  0.26865  0.65333  1.0000
  S   S41       1.0  0.17413  0.44805  0.40822  1.0000
  H   H108      1.0  0.31996  0.16499  0.52221  1.0000
  N   N9        1.0  0.50515  0.34687  0.66010  1.0000
  H   H109      1.0  0.08511  0.14457  0.37909  1.0000
  H   H110      1.0  0.04219  0.33097  0.38502  1.0000
  S   S42       1.0  0.32367  0.46574  0.64221  1.0000
  C   C113      1.0  0.23774  0.01730  0.65877  1.0000
  C   C114      1.0  0.25980  0.18991  0.46679  1.0000
  H   H111      1.0  0.15045  0.50561  0.38569  1.0000
  N   N10       1.0  0.29885  0.36568  0.63420  1.0000
  C   C115      1.0  0.28587  0.33585  0.62800  1.0000
  C   C116      1.0  0.33245  0.37227  0.63227  1.0000
  C   C117      1.0  0.30686  0.31146  0.61992  1.0000
  C   C118      1.0  0.35423  0.34831  0.62449  1.0000
  C   C119      1.0  0.34128  0.31770  0.61832  1.0000
  C   C120      1.0  0.27679  0.39134  0.64249  1.0000
  H   H112      1.0  0.25929  0.33040  0.62961  1.0000
  H   H113      1.0  0.34257  0.39609  0.63695  1.0000
  H   H114      1.0  0.29672  0.28731  0.61573  1.0000
  H   H115      1.0  0.38103  0.35322  0.62372  1.0000
  H   H116      1.0  0.35794  0.29847  0.61281  1.0000
  H   H117      1.0  0.27366  0.41178  0.63141  1.0000
  H   H118      1.0  0.25166  0.38128  0.64661  1.0000
  H   H119      1.0  0.28804  0.40215  0.65629  1.0000
  Fe  Fe23      1.0  0.39270  0.38497  0.68094  1.0000
  C   C121      1.0  0.18598  0.04193  0.63495  1.0000
  C   C122      1.0  0.21254  0.50072  0.42043  1.0000
  H   H120      1.0  0.41035  0.15852  0.65158  1.0000
  C   C123      1.0  0.51439  0.44213  0.65661  1.0000
  H   H121      1.0  0.23432  0.44161  0.37555  1.0000
  H   H122      1.0  0.31727  0.08922  0.36957  1.0000
  H   H123      1.0  0.07121  0.04071  0.37307  1.0000
  C   C124      1.0  0.26543  0.17337  0.37991  1.0000
  C   C125      1.0  0.42621  0.15800  0.66529  1.0000
  H   H124      1.0  0.27678  0.49783  0.61595  1.0000
  H   H125      1.0  0.04001  0.31199  0.36054  1.0000
  C   C126      1.0  0.30280  0.50442  0.64398  1.0000
  H   H126      1.0  0.27204  0.19223  0.39086  1.0000
  N   N11       1.0  0.46149  0.16500  0.66041  1.0000
  S   S43       1.0  0.50924  0.04706  0.66517  1.0000
  C   C127      1.0  0.26226  0.48720  0.38029  1.0000
  C   C128      1.0  0.23794  0.46732  0.37099  1.0000
  C   C129      1.0  0.27972  0.01436  0.37054  1.0000
  C   C130      1.0  0.21750  0.48109  0.35622  1.0000
  S   S44       1.0  0.49010  0.46238  0.67517  1.0000
  H   H127      1.0  0.46686  0.36771  0.67850  1.0000
  H   H128      1.0  0.33612  0.03123  0.41666  1.0000
  C   C131      1.0  0.23414  0.17437  0.37057  1.0000
  H   H129      1.0  0.02146  0.10052  0.43068  1.0000
  C   C132      1.0  0.02997  0.33228  0.37008  1.0000
  C   C133      1.0  0.22547  0.14983  0.35676  1.0000
  C   C134      1.0  0.24851  0.12471  0.35231  1.0000
  S   S45       1.0  0.06671  0.03193  0.87801  1.0000
  H   H130      1.0  0.23111  0.28775  0.99816  1.0000
  H   H131      1.0  0.38239  0.44461  0.80823  1.0000
  H   H132      1.0  0.28868  0.27580  0.98576  1.0000
  Fe  Fe24      1.0  0.06248  0.08667  0.88343  1.0000
  S   S46       1.0  0.07883  0.09988  0.85231  1.0000
  S   S47       1.0  0.14164  0.04714  0.85784  1.0000
  Fe  Fe25      1.0  0.13092  0.10106  0.86520  1.0000
  S   S48       1.0  0.15982  0.14765  0.85692  1.0000
  Fe  Fe26      1.0  0.08782  0.04534  0.84768  1.0000
  S   S49       1.0  0.11408  0.09081  0.89666  1.0000
  Fe  Fe27      1.0  0.21566  0.36994  0.90870  1.0000
  S   S50       1.0  0.17380  0.38972  0.92801  1.0000
  S   S51       1.0  0.23995  0.40416  0.88576  1.0000
  Fe  Fe28      1.0  0.20553  0.29868  0.92319  1.0000
  S   S52       1.0  0.16371  0.31351  0.94367  1.0000
  S   S53       1.0  0.21682  0.24364  0.92449  1.0000
  Fe  Fe29      1.0  0.14516  0.34450  0.91806  1.0000
  S   S54       1.0  0.09062  0.33587  0.90996  1.0000
  Fe  Fe30      1.0  0.19627  0.35687  0.95189  1.0000
  S   S55       1.0  0.19705  0.37219  0.98463  1.0000
  S   S56       1.0  0.18513  0.32683  0.89696  1.0000
  S   S57       1.0  0.24015  0.34006  0.93327  1.0000
  Fe  Fe31      1.0  0.37848  0.44314  0.70972  1.0000
  S   S58       1.0  0.35524  0.45960  0.73931  1.0000
  S   S59       1.0  0.42404  0.41166  0.70396  1.0000
  H   H133      1.0  0.31802  0.36499  0.84560  1.0000
  C   C135      1.0  0.23287  0.36663  0.99980  1.0000
  H   H134      1.0  0.19131  0.43952  0.96161  1.0000
  C   C136      1.0  0.41253  0.47912  0.75979  1.0000
  C   C137      1.0  0.30061  0.44903  0.98352  1.0000
  H   H135      1.0  0.26728  0.35940  0.97528  1.0000
  H   H136      1.0  0.12550  0.29426  0.87732  1.0000
  H   H137      1.0  0.08960  0.04554  0.93055  1.0000
  C   C138      1.0  0.07593  0.39890  0.89537  1.0000
  C   C139      1.0  0.06441  0.36666  0.89950  1.0000
  H   H138      1.0  0.06282  0.44750  0.88398  1.0000
  H   H139      1.0  0.33548  0.40702  0.81758  1.0000
  C   C140      1.0  0.42926  0.49426  0.77597  1.0000
  H   H140      1.0  0.10169  0.40561  0.89864  1.0000
  H   H141      1.0  0.50670  0.39341  0.70223  1.0000
  H   H142      1.0  0.33926  0.44096  0.92360  1.0000
  C   C141      1.0  0.21636  0.44932  0.95870  1.0000
  H   H143      1.0  0.31723  0.35346  0.99724  1.0000
  C   C142      1.0  0.17566  0.17394  0.87589  1.0000
  C   C143      1.0  0.18111  0.20774  0.87161  1.0000
  C   C144      1.0  0.19321  0.22945  0.88648  1.0000
  C   C145      1.0  0.20083  0.21729  0.90559  1.0000
  C   C146      1.0  0.19586  0.18339  0.90978  1.0000
  C   C147      1.0  0.18290  0.16184  0.89507  1.0000
  H   H144      1.0  0.17586  0.21718  0.85676  1.0000
  H   H145      1.0  0.19739  0.25540  0.88300  1.0000
  H   H146      1.0  0.20198  0.17377  0.92447  1.0000
  H   H147      1.0  0.17925  0.13577  0.89842  1.0000
  H   H148      1.0  0.22682  0.04269  0.71237  1.0000
  C   C148      1.0  0.37744  0.47790  0.75945  1.0000
  H   H149      1.0  0.23591  0.43217  0.98676  1.0000
  S   S60       1.0  0.39221  0.48164  0.68654  1.0000
  C   C149      1.0  0.35927  0.49177  0.77547  1.0000
  C   C150      1.0  0.23702  0.08291  0.69199  1.0000
  C   C151      1.0  0.32920  0.47309  0.89842  1.0000
  C   C152      1.0  0.30794  0.47910  0.88219  1.0000
  C   C153      1.0  0.28024  0.45809  0.87875  1.0000
  C   C154      1.0  0.27345  0.43117  0.89158  1.0000
  C   C155      1.0  0.29463  0.42518  0.90787  1.0000
  C   C156      1.0  0.32250  0.44606  0.91122  1.0000
  H   H150      1.0  0.14794  0.04137  0.71795  1.0000
  H   H151      1.0  0.26404  0.46268  0.86604  1.0000
  H   H152      1.0  0.28986  0.40416  0.91763  1.0000
  H   H153      1.0  0.31619  0.38203  0.87040  1.0000
  C   C157      1.0  0.39659  0.45419  0.83884  1.0000
  H   H154      1.0  0.42677  0.46836  0.74761  1.0000
  H   H155      1.0  0.26212  0.48986  0.92312  1.0000
  N   N12       1.0  0.18327  0.05597  0.69561  1.0000
  C   C158      1.0  0.31653  0.38855  0.85419  1.0000
  C   C159      1.0  0.38994  0.44685  0.85891  1.0000
  C   C160      1.0  0.30932  0.26990  0.01555  1.0000
  H   H156      1.0  0.35926  0.41892  0.87937  1.0000
  H   H157      1.0  0.13554  0.02772  0.80913  1.0000
  C   C161      1.0  0.21623  0.05913  0.70115  1.0000
  C   C162      1.0  0.37720  0.43935  0.82390  1.0000
  H   H158      1.0  0.31966  0.46933  0.98378  1.0000
  C   C163      1.0  0.28350  0.27562  0.00174  1.0000
  C   C164      1.0  0.25607  0.47756  0.93720  1.0000
  S   S61       1.0  0.36528  0.49756  0.90262  1.0000
  C   C165      1.0  0.24180  0.44501  0.97288  1.0000
  N   N13       1.0  0.27369  0.45634  0.96920  1.0000
  H   H159      1.0  0.08875  0.21399  0.86315  1.0000
  H   H160      1.0  0.40454  0.45856  0.87072  1.0000
  C   C166      1.0  0.29278  0.35786  0.00383  1.0000
  C   C167      1.0  0.28102  0.47252  0.95164  1.0000
  H   H161      1.0  0.31311  0.42538  0.97932  1.0000
  H   H162      1.0  0.30640  0.48117  0.94852  1.0000
  H   H163      1.0  0.29225  0.40097  0.85081  1.0000
  C   C168      1.0  0.05389  0.42257  0.88705  1.0000
  H   H164      1.0  0.41669  0.47138  0.83489  1.0000
  N   N14       1.0  0.10692  0.24652  0.88597  1.0000
  C   C169      1.0  0.09664  0.21641  0.87862  1.0000
  C   C170      1.0  0.11722  0.24937  0.90545  1.0000
  C   C171      1.0  0.09708  0.18803  0.89076  1.0000
  C   C172      1.0  0.11837  0.22145  0.91794  1.0000
  C   C173      1.0  0.10823  0.19060  0.91051  1.0000
  C   C174      1.0  0.10548  0.27617  0.87320  1.0000
  H   H165      1.0  0.10927  0.26983  0.85717  1.0000
  H   H166      1.0  0.12528  0.27321  0.91131  1.0000
  H   H167      1.0  0.08980  0.16405  0.88469  1.0000
  H   H168      1.0  0.12796  0.22372  0.93309  1.0000
  H   H169      1.0  0.10981  0.16857  0.91983  1.0000
  C   C175      1.0  0.22366  0.46546  0.94067  1.0000
  S   S62       1.0  0.06623  0.01544  0.82189  1.0000
  H   H170      1.0  0.26351  0.08448  0.69573  1.0000
  N   N15       1.0  0.34468  0.41067  0.84900  1.0000
  C   C176      1.0  0.35090  0.41788  0.82928  1.0000
  C   C177      1.0  0.36402  0.42459  0.86373  1.0000
  C   C178      1.0  0.26453  0.36106  0.99137  1.0000
  H   H171      1.0  0.14366  0.02019  0.69415  1.0000
  C   C179      1.0  0.16191  0.03061  0.70508  1.0000
  H   H172      1.0  0.05376  0.09140  0.94287  1.0000
  H   H173      1.0  0.20436  0.46821  0.92930  1.0000
  H   H174      1.0  0.08083  0.28869  0.87519  1.0000
  H   H175      1.0  0.29062  0.44622  0.99904  1.0000
  Fe  Fe32      1.0  0.12014  0.03689  0.88849  1.0000
  C   C180      1.0  0.03097  0.35822  0.89515  1.0000
  C   C181      1.0  0.51605  0.37836  0.68995  1.0000
  C   C182      1.0  0.25113  0.28224  0.00870  1.0000
  H   H176      1.0  0.45645  0.49522  0.77607  1.0000
  H   H177      1.0  0.31297  0.49974  0.87219  1.0000
  C   C183      1.0  0.04260  0.06715  0.94026  1.0000
  C   C184      1.0  0.06294  0.04145  0.93315  1.0000
  H   H178      1.0  0.33463  0.26576  0.01007  1.0000
  H   H179      1.0  0.33209  0.49081  0.77533  1.0000
  C   C185      1.0  0.12278  0.01373  0.79756  1.0000
  S   S63       1.0  0.34568  0.41280  0.68891  1.0000
  H   H180      1.0  0.02185  0.33337  0.89831  1.0000
  C   C186      1.0  0.41113  0.50870  0.79180  1.0000
  S   S64       1.0  0.02233  0.11785  0.89836  1.0000
  C   C187      1.0  0.02035  0.41408  0.88284  1.0000
  C   C188      1.0  0.37601  0.50731  0.79155  1.0000
  H   H181      1.0  0.48037  0.13695  0.68514  1.0000
  H   H182      1.0  0.11284  0.54057  0.29983  1.0000
  S   S65       1.0  0.42113  0.93400  0.30035  1.0000
  H   H183      1.0  0.28013  0.76992  0.02567  1.0000
  Fe  Fe33      1.0  0.12293  0.58458  0.18008  1.0000
  S   S66       1.0  0.11587  0.56419  0.14918  1.0000
  S   S67       1.0  0.13077  0.63996  0.18482  1.0000
  Fe  Fe34      1.0  0.07273  0.53576  0.16229  1.0000
  S   S68       1.0  0.07677  0.55915  0.19260  1.0000
  S   S69       1.0  0.15836  0.54432  0.19046  1.0000
  Fe  Fe35      1.0  0.17493  0.84402  0.08650  1.0000
  S   S70       1.0  0.21832  0.82241  0.10347  1.0000
  S   S71       1.0  0.17457  0.85651  0.05326  1.0000
  Fe  Fe36      1.0  0.12585  0.83657  0.12218  1.0000
  S   S72       1.0  0.16598  0.81496  0.14177  1.0000
  S   S73       1.0  0.07165  0.82990  0.13235  1.0000
  Fe  Fe37      1.0  0.19978  0.85468  0.12873  1.0000
  S   S74       1.0  0.23478  0.87954  0.15100  1.0000
  Fe  Fe38      1.0  0.18087  0.78490  0.11512  1.0000
  S   S75       1.0  0.18820  0.72927  0.11371  1.0000
  S   S76       1.0  0.15827  0.87903  0.11104  1.0000
  S   S77       1.0  0.13903  0.80396  0.09612  1.0000
  C   C189      1.0  0.49507  0.87833  0.31949  1.0000
  C   C190      1.0  0.07202  0.67301  0.14939  1.0000
  C   C191      1.0  0.26563  0.75627  0.05583  1.0000
  H   H184      1.0  0.31153  0.92609  0.04951  1.0000
  C   C192      1.0  0.26448  0.91055  0.14458  1.0000
  C   C193      1.0  0.28948  0.91888  0.15854  1.0000
  C   C194      1.0  0.31134  0.94580  0.15507  1.0000
  C   C195      1.0  0.30892  0.96414  0.13733  1.0000
  C   C196      1.0  0.28464  0.95520  0.12302  1.0000
  C   C197      1.0  0.26226  0.92862  0.12671  1.0000
  H   H185      1.0  0.29159  0.90475  0.17230  1.0000
  H   H186      1.0  0.33015  0.95226  0.16610  1.0000
  H   H187      1.0  0.28846  0.99478  0.20330  1.0000
  H   H188      1.0  0.24282  0.92257  0.11603  1.0000
  N   N16       1.0  0.20029  0.76892  0.04332  1.0000
  C   C198      1.0  0.08327  0.76165  0.16533  1.0000
  C   C199      1.0  0.27772  0.94777  0.21721  1.0000
  C   C200      1.0  0.04621  0.86191  0.14228  1.0000
  C   C201      1.0  0.05808  0.89447  0.14453  1.0000
  C   C202      1.0  0.24560  0.99449  0.17265  1.0000
  H   H189      1.0  0.23453  0.98425  0.15866  1.0000
  C   C203      1.0  0.41306  0.96592  0.26433  1.0000
  H   H190      1.0  0.08352  0.90065  0.14010  1.0000
  C   C204      1.0  0.42995  0.98987  0.13419  1.0000
  C   C205      1.0  0.14960  0.66397  0.16553  1.0000
  C   C206      1.0  0.15350  0.69839  0.16820  1.0000
  C   C207      1.0  0.16558  0.71863  0.15250  1.0000
  C   C208      1.0  0.17426  0.70452  0.13406  1.0000
  C   C209      1.0  0.17131  0.67000  0.13159  1.0000
  C   C210      1.0  0.15896  0.64981  0.14723  1.0000
  H   H191      1.0  0.14672  0.70949  0.18239  1.0000
  H   H192      1.0  0.16834  0.74507  0.15474  1.0000
  H   H193      1.0  0.17833  0.65881  0.11747  1.0000
  H   H194      1.0  0.15667  0.62332  0.14507  1.0000
  S   S78       1.0  0.33703  0.01009  0.23343  1.0000
  H   H195      1.0  0.18755  0.93288  0.04955  1.0000
  H   H196      1.0  0.38820  0.74953  0.34901  1.0000
  C   C211      1.0  0.39721  0.95553  0.28214  1.0000
  H   H197      1.0  0.06836  0.69949  0.17711  1.0000
  H   H198      1.0  0.21899  0.89274  0.20060  1.0000
  H   H199      1.0  0.07839  0.51518  0.11765  1.0000
  C   C212      1.0  0.26684  0.92461  0.06761  1.0000
  H   H200      1.0  0.03436  0.59661  0.14338  1.0000
  H   H201      1.0  0.40753  0.99082  0.23575  1.0000
  N   N17       1.0  0.49006  0.99599  0.13328  1.0000
  C   C213      1.0  0.39501  0.98291  0.24937  1.0000
  H   H202      1.0  0.10465  0.77788  0.16072  1.0000
  C   C214      1.0  0.24247  0.84938  0.04517  1.0000
  C   C215      1.0  0.21012  0.85353  0.03746  1.0000
  C   C216      1.0  0.46157  0.98521  0.14287  1.0000
  H   H203      1.0  0.24609  0.84696  0.06117  1.0000
  C   C217      1.0  0.36083  0.98949  0.25206  1.0000
  C   C218      1.0  0.07983  0.67512  0.12904  1.0000
  H   H204      1.0  0.29669  0.95092  0.22876  1.0000
  C   C219      1.0  0.03686  0.91916  0.15247  1.0000
  N   N18       1.0  0.51523  0.90400  0.32943  1.0000
  H   H205      1.0  0.06658  0.64906  0.15625  1.0000
  H   H206      1.0  0.50909  0.86798  0.30655  1.0000
  C   C220      1.0  0.34492  0.97903  0.26985  1.0000
  N   N19       1.0  0.24961  0.96852  0.18792  1.0000
  H   H207      1.0  0.46315  0.97342  0.15750  1.0000
  H   H208      1.0  0.29543  0.84694  0.03826  1.0000
  H   H209      1.0  0.24312  0.74409  0.08445  1.0000
  H   H210      1.0  0.03918  0.51820  0.24746  1.0000
  C   C221      1.0  0.36304  0.96222  0.28488  1.0000
  C   C222      1.0  0.23878  0.75211  0.06910  1.0000
  C   C223      1.0  0.07315  0.70173  0.16116  1.0000
  H   H211      1.0  0.26205  0.89928  0.22745  1.0000
  H   H212      1.0  0.16510  0.79392  0.02452  1.0000
  H   H213      1.0  0.48335  0.94399  0.32056  1.0000
  S   S79       1.0  0.33579  0.99835  0.13277  1.0000
  C   C224      1.0  0.08878  0.73418  0.13281  1.0000
  H   H214      1.0  0.15418  0.75154  0.03131  1.0000
  H   H215      1.0  0.09556  0.75803  0.12625  1.0000
  N   N20       1.0  0.08192  0.73172  0.15286  1.0000
  C   C225      1.0  0.28435  0.92799  0.04948  1.0000
  C   C226      1.0  0.27037  0.84935  0.03216  1.0000
  H   H216      1.0  0.09499  0.70776  0.10493  1.0000
  H   H217      1.0  0.08004  0.65280  0.11994  1.0000
  H   H218      1.0  0.05971  0.77610  0.16357  1.0000
  S   S80       1.0  0.41065  0.86501  0.33997  1.0000
  C   C227      1.0  0.23387  0.91536  0.20163  1.0000
  C   C228      1.0  0.25819  0.91891  0.21653  1.0000
  H   H219      1.0  0.40734  0.98119  0.14171  1.0000
  C   C229      1.0  0.09069  0.52496  0.29837  1.0000
  C   C230      1.0  0.22958  0.94078  0.18753  1.0000
  H   H220      1.0  0.35056  0.95430  0.29851  1.0000
  C   C231      1.0  0.21483  0.93226  0.04972  1.0000
  H   H221      1.0  0.21113  0.93739  0.17574  1.0000
  H   H222      1.0  0.43947  0.96084  0.26207  1.0000
  H   H223      1.0  0.04615  0.94432  0.15411  1.0000
  C   C232      1.0  0.08820  0.70589  0.12064  1.0000
  H   H224      1.0  0.28260  0.96946  0.10932  1.0000
  C   C233      1.0  0.27299  0.97253  0.20273  1.0000
  Fe  Fe39      1.0  0.40221  0.91811  0.33108  1.0000
  Fe  Fe40      1.0  0.14838  0.52222  0.16000  1.0000
  C   C234      1.0  0.23183  0.92657  0.06765  1.0000
  H   H225      1.0  0.21776  0.92308  0.08146  1.0000
  S   S81       1.0  0.39074  0.00022  0.18299  1.0000
  N   N21       1.0  0.26738  0.93278  0.03188  1.0000
  C   C235      1.0  0.07348  0.52330  0.28013  1.0000
  H   H226      1.0  0.31849  0.98406  0.27205  1.0000
  H   H227      1.0  0.27044  0.00518  0.16835  1.0000
  H   H228      1.0  0.08266  0.53790  0.26753  1.0000
  H   H229      1.0  0.29115  0.75173  0.06080  1.0000
  C   C236      1.0  0.20607  0.75843  0.06252  1.0000
  H   H230      1.0  0.08709  0.75544  0.18140  1.0000
  C   C237      1.0  0.25945  0.76629  0.03613  1.0000
  S   S82       1.0  0.02393  0.52501  0.14618  1.0000
  H   H231      1.0  0.28028  0.92000  0.08148  1.0000
  C   C238      1.0  0.23310  0.93536  0.03186  1.0000
  S   S83       1.0  0.35182  0.92025  0.34654  1.0000
  H   H232      1.0  0.47088  0.88831  0.31380  1.0000
  H   H233      1.0  0.51704  0.98692  0.33779  1.0000
  H   H234      1.0  0.18536  0.75501  0.07294  1.0000
  C   C239      1.0  0.48801  0.01120  0.11495  1.0000
  C   C240      1.0  0.42751  0.00615  0.11579  1.0000
  H   H235      1.0  0.15034  0.78529  0.04915  1.0000
  H   H236      1.0  0.48885  0.85804  0.33024  1.0000
  C   C241      1.0  0.50591  0.93668  0.32853  1.0000
  C   C242      1.0  0.16576  0.77501  0.03670  1.0000
  C   C243      1.0  0.22639  0.77229  0.03005  1.0000
  H   H237      1.0  0.40293  0.01047  0.10922  1.0000
  H   H238      1.0  0.12228  0.51521  0.11200  1.0000
  Fe  Fe41      1.0  0.11137  0.51684  0.20037  1.0000
  H   H239      1.0  0.20537  0.52527  0.33960  1.0000
  H   H240      1.0  0.21961  0.93889  0.01791  1.0000
  H   H241      1.0  0.20105  0.98286  0.67019  1.0000
  Fe  Fe42      1.0  0.34513  0.60307  0.41893  1.0000
  S   S84       1.0  0.31103  0.63875  0.40313  1.0000
  S   S85       1.0  0.38003  0.57236  0.39992  1.0000
  Fe  Fe43      1.0  0.31102  0.61466  0.45969  1.0000
  S   S86       1.0  0.27416  0.65062  0.44670  1.0000
  S   S87       1.0  0.31251  0.60176  0.49273  1.0000
  Fe  Fe44      1.0  0.27030  0.61403  0.42134  1.0000
  S   S88       1.0  0.22153  0.59890  0.40660  1.0000
  Fe  Fe45      1.0  0.31865  0.67138  0.43000  1.0000
  S   S89       1.0  0.33215  0.72574  0.43278  1.0000
  S   S90       1.0  0.30393  0.57646  0.43560  1.0000
  S   S91       1.0  0.35612  0.63739  0.44452  1.0000
  H   H242      1.0  0.22898  0.71688  0.52288  1.0000
  H   H243      1.0  0.03107  0.82024  0.63919  1.0000
  S   S92       1.0  0.38996  0.88579  0.38579  1.0000
  H   H244      1.0  0.37327  0.68993  0.35269  1.0000
  Fe  Fe46      1.0  0.38184  0.93718  0.37323  1.0000
  Fe  Fe47      1.0  0.43685  0.88493  0.36709  1.0000
  S   S93       1.0  0.48198  0.85297  0.37440  1.0000
  C   C244      1.0  0.07470  0.81594  0.68225  1.0000
  H   H245      1.0  0.15391  0.58346  0.49386  1.0000
  C   C245      1.0  0.17087  0.51332  0.39526  1.0000
  H   H246      1.0  0.21952  0.99707  0.60639  1.0000
  H   H247      1.0  0.16751  0.59915  0.46021  1.0000
  H   H248      1.0  0.28198  0.56583  0.38804  1.0000
  H   H249      1.0  0.47614  0.64743  0.41065  1.0000
  S   S94       1.0  0.10606  0.90722  0.66447  1.0000
  H   H250      1.0  0.27496  0.92685  0.65143  1.0000
  Fe  Fe48      1.0  0.20870  0.62213  0.62529  1.0000
  S   S95       1.0  0.18583  0.58969  0.60152  1.0000
  S   S96       1.0  0.24777  0.60459  0.64776  1.0000
  Fe  Fe49      1.0  0.16087  0.68004  0.61731  1.0000
  S   S97       1.0  0.13432  0.65117  0.59326  1.0000
  S   S98       1.0  0.13711  0.73082  0.62171  1.0000
  Fe  Fe50      1.0  0.13664  0.60770  0.61399  1.0000
  S   S99       1.0  0.09414  0.57095  0.61850  1.0000
  Fe  Fe51      1.0  0.18566  0.63622  0.58269  1.0000
  S   S100      1.0  0.19003  0.64044  0.54878  1.0000
  S   S101      1.0  0.15923  0.63725  0.63899  1.0000
  S   S102      1.0  0.21245  0.66790  0.60551  1.0000
  H   H251      1.0  0.03304  0.53780  0.63036  1.0000
  C   C246      1.0  0.26872  0.56594  0.64586  1.0000
  C   C247      1.0  0.26368  0.54464  0.62958  1.0000
  C   C248      1.0  0.03644  0.62253  0.65773  1.0000
  H   H252      1.0  0.16072  0.93107  0.62261  1.0000
  N   N22       1.0  0.21035  0.95145  0.62205  1.0000
  C   C249      1.0  0.30769  0.52561  0.66032  1.0000
  H   H253      1.0  0.24708  0.55191  0.61755  1.0000
  C   C250      1.0  0.40163  0.70539  0.39975  1.0000
  C   C251      1.0  0.20547  0.00332  0.66012  1.0000
  H   H254      1.0  0.30568  0.75659  0.36302  1.0000
  C   C252      1.0  0.15170  0.76287  0.63749  1.0000
  C   C253      1.0  0.13595  0.79399  0.63640  1.0000
  C   C254      1.0  0.14366  0.81914  0.65023  1.0000
  C   C255      1.0  0.16766  0.81354  0.66511  1.0000
  C   C256      1.0  0.18438  0.78286  0.66576  1.0000
  C   C257      1.0  0.17630  0.75747  0.65206  1.0000
  H   H255      1.0  0.11696  0.79830  0.62511  1.0000
  H   H256      1.0  0.13063  0.84257  0.64952  1.0000
  C   C258      1.0  0.38857  0.68754  0.38362  1.0000
  H   H257      1.0  0.18857  0.73356  0.65302  1.0000
  N   N23       1.0  0.15157  0.55552  0.66219  1.0000
  H   H258      1.0  0.43537  0.54432  0.37812  1.0000
  C   C259      1.0  0.24796  0.96326  0.40789  1.0000
  C   C260      1.0  0.06091  0.58342  0.63428  1.0000
  C   C261      1.0  0.06196  0.61404  0.64412  1.0000
  H   H259      1.0  0.32131  0.94674  0.43062  1.0000
  C   C262      1.0  0.29171  0.54054  0.38479  1.0000
  H   H260      1.0  0.26608  0.53238  0.50044  1.0000
  H   H261      1.0  0.08260  0.63105  0.64139  1.0000
  C   C263      1.0  0.27888  0.61334  0.50844  1.0000
  C   C264      1.0  0.28075  0.60713  0.52914  1.0000
  C   C265      1.0  0.25386  0.61555  0.54190  1.0000
  C   C266      1.0  0.22498  0.63013  0.53391  1.0000
  C   C267      1.0  0.22324  0.63640  0.51325  1.0000
  C   C268      1.0  0.25007  0.62812  0.50057  1.0000
  H   H262      1.0  0.30297  0.59559  0.53533  1.0000
  H   H263      1.0  0.25534  0.61056  0.55782  1.0000
  H   H264      1.0  0.20090  0.64763  0.50701  1.0000
  H   H265      1.0  0.24815  0.63276  0.48470  1.0000
  C   C269      1.0  0.41006  0.73897  0.39721  1.0000
  S   S103      1.0  0.32842  0.82416  0.35825  1.0000
  C   C270      1.0  0.22941  0.55361  0.48037  1.0000
  C   C271      1.0  0.20833  0.55699  0.40737  1.0000
  H   H266      1.0  0.07170  0.55945  0.67956  1.0000
  H   H267      1.0  0.17374  0.56545  0.52724  1.0000
  H   H268      1.0  0.50850  0.97741  0.65073  1.0000
  H   H269      1.0  0.16947  0.56442  0.38538  1.0000
  C   C272      1.0  0.41566  0.78917  0.37644  1.0000
  C   C273      1.0  0.29072  0.55623  0.66124  1.0000
  C   C274      1.0  0.32816  0.79727  0.37924  1.0000
  C   C275      1.0  0.31573  0.76470  0.37727  1.0000
  C   C276      1.0  0.31663  0.74241  0.39357  1.0000
  C   C277      1.0  0.32956  0.75280  0.41202  1.0000
  C   C278      1.0  0.34143  0.78548  0.41407  1.0000
  C   C279      1.0  0.34076  0.80760  0.39776  1.0000
  C   C280      1.0  0.23535  0.98761  0.42080  1.0000
  H   H270      1.0  0.30724  0.71730  0.39187  1.0000
  H   H271      1.0  0.35126  0.79375  0.42833  1.0000
  H   H272      1.0  0.34968  0.83273  0.39964  1.0000
  C   C281      1.0  0.48948  0.60603  0.39183  1.0000
  C   C282      1.0  0.47788  0.57695  0.38267  1.0000
  C   C283      1.0  0.44422  0.56686  0.38523  1.0000
  C   C284      1.0  0.42208  0.58568  0.39700  1.0000
  C   C285      1.0  0.43368  0.61478  0.40613  1.0000
  C   C286      1.0  0.46725  0.62497  0.40348  1.0000
  H   H273      1.0  0.24396  0.54150  0.42967  1.0000
  C   C287      1.0  0.28061  0.51400  0.62868  1.0000
  H   H274      1.0  0.41691  0.62922  0.41537  1.0000
  N   N24       1.0  0.05900  0.80541  0.66516  1.0000
  H   H275      1.0  0.17397  0.88923  0.64869  1.0000
  C   C288      1.0  0.22082  0.54675  0.51596  1.0000
  N   N25       1.0  0.31433  0.69761  0.49769  1.0000
  C   C289      1.0  0.28960  0.71289  0.48686  1.0000
  C   C290      1.0  0.30907  0.68929  0.51735  1.0000
  C   C291      1.0  0.25861  0.72025  0.49575  1.0000
  C   C292      1.0  0.27853  0.69660  0.52676  1.0000
  C   C293      1.0  0.25314  0.71208  0.51585  1.0000
  C   C294      1.0  0.34678  0.68991  0.48840  1.0000
  H   H276      1.0  0.29363  0.71929  0.47120  1.0000
  H   H277      1.0  0.32829  0.67623  0.52573  1.0000
  H   H278      1.0  0.23889  0.73191  0.48704  1.0000
  H   H279      1.0  0.27410  0.68927  0.54223  1.0000
  H   H280      1.0  0.25774  0.00767  0.66807  1.0000
  H   H281      1.0  0.36742  0.70258  0.49658  1.0000
  H   H282      1.0  0.35110  0.66262  0.48876  1.0000
  H   H283      1.0  0.34796  0.69813  0.47248  1.0000
  C   C295      1.0  0.22373  0.53388  0.42002  1.0000
  N   N26       1.0  0.40523  0.75443  0.37915  1.0000
  C   C296      1.0  0.28491  0.98190  0.44124  1.0000
  C   C297      1.0  0.29682  0.95768  0.42798  1.0000
  H   H284      1.0  0.44187  0.79038  0.37071  1.0000
  Fe  Fe52      1.0  0.12616  0.95805  0.67231  1.0000
  C   C298      1.0  0.18702  0.57960  0.45894  1.0000
  C   C299      1.0  0.38374  0.70350  0.36526  1.0000
  C   C300      1.0  0.29104  0.92307  0.39789  1.0000
  C   C301      1.0  0.30982  0.99666  0.37298  1.0000
  C   C302      1.0  0.06459  0.77409  0.65791  1.0000
  N   N27       1.0  0.27850  0.94889  0.41146  1.0000
  H   H285      1.0  0.20311  0.77844  0.67719  1.0000
  H   H286      1.0  0.17649  0.98443  0.60742  1.0000
  C   C303      1.0  0.16664  0.57793  0.67474  1.0000
  C   C304      1.0  0.24102  0.54269  0.49903  1.0000
  C   C305      1.0  0.24213  0.95018  0.62984  1.0000
  H   H287      1.0  0.21166  0.99973  0.41751  1.0000
  H   H288      1.0  0.41430  0.80326  0.39073  1.0000
  H   H289      1.0  0.19358  0.55384  0.64228  1.0000
  H   H290      1.0  0.29988  0.98947  0.45403  1.0000
  H   H291      1.0  0.50014  0.91882  0.38930  1.0000
  N   N28       1.0  0.19862  0.56837  0.47867  1.0000
  H   H292      1.0  0.32459  0.51840  0.67220  1.0000
  H   H293      1.0  0.20810  0.59064  0.45014  1.0000
  H   H294      1.0  0.24559  0.55098  0.46737  1.0000
  H   H295      1.0  0.26400  0.00955  0.35763  1.0000
  S   S104      1.0  0.43179  0.93804  0.35719  1.0000
  C   C306      1.0  0.18920  0.56125  0.51404  1.0000
  C   C307      1.0  0.25401  0.99700  0.43757  1.0000
  H   H296      1.0  0.23078  0.88734  0.66355  1.0000
  C   C308      1.0  0.18601  0.92989  0.62864  1.0000
  C   C309      1.0  0.11816  0.54808  0.66428  1.0000
  H   H297      1.0  0.23003  0.53958  0.53065  1.0000
  H   H298      1.0  0.38208  0.66142  0.38538  1.0000
  C   C310      1.0  0.08715  0.75279  0.66752  1.0000
  H   H299      1.0  0.40480  0.69340  0.41420  1.0000
  H   H300      1.0  0.23354  0.95656  0.39471  1.0000
  H   H301      1.0  0.10619  0.53030  0.65434  1.0000
  H   H302      1.0  0.28096  0.89836  0.40237  1.0000
  C   C311      1.0  0.18169  0.54665  0.39512  1.0000
  H   H303      1.0  0.49481  0.56225  0.37363  1.0000
  H   H304      1.0  0.26139  0.96745  0.62473  1.0000
  C   C312      1.0  0.03395  0.56155  0.63793  1.0000
  C   C313      1.0  0.24579  0.53374  0.36072  1.0000
  S   S105      1.0  0.17648  0.84389  0.68347  1.0000
  S   S106      1.0  0.36617  0.97827  0.39449  1.0000
  H   H305      1.0  0.28370  0.92834  0.38213  1.0000
  H   H306      1.0  0.31898  0.92209  0.39802  1.0000
  C   C314      1.0  0.39232  0.73715  0.36326  1.0000
  H   H307      1.0  0.29475  0.57257  0.67387  1.0000
  C   C315      1.0  0.20263  0.97497  0.60589  1.0000
  C   C316      1.0  0.17833  0.57179  0.49513  1.0000
  H   H308      1.0  0.31710  0.97836  0.36200  1.0000
  H   H309      1.0  0.04513  0.85356  0.65481  1.0000
  H   H310      1.0  0.41997  0.75271  0.40986  1.0000
  C   C317      1.0  0.22526  0.90528  0.65181  1.0000
  H   H311      1.0  0.20540  0.96263  0.59112  1.0000
  C   C318      1.0  0.24996  0.92733  0.64498  1.0000
  C   C319      1.0  0.19317  0.90641  0.64351  1.0000
  H   H312      1.0  0.09277  0.72861  0.66114  1.0000
  H   H313      1.0  0.05255  0.76574  0.64424  1.0000
  H   H314      1.0  0.19326  0.58352  0.67325  1.0000
  Fe  Fe53      1.0  0.36347  0.86874  0.35810  1.0000
  H   H315      1.0  0.31409  0.54279  0.37486  1.0000
  C   C320      1.0  0.03533  0.82760  0.65502  1.0000
  H   H316      1.0  0.17643  0.55828  0.45041  1.0000
  H   H317      1.0  0.18056  0.51436  0.65263  1.0000
  H   H318      1.0  0.03763  0.64611  0.66547  1.0000
  N   N29       1.0  0.26572  0.52005  0.37522  1.0000
  C   C321      1.0  0.33010  0.00239  0.38972  1.0000
  H   H319      1.0  0.39893  0.80215  0.36567  1.0000
  C   C322      1.0  0.09851  0.56445  0.67857  1.0000
  C   C323      1.0  0.17150  0.53857  0.64684  1.0000
  S   S107      1.0  0.13892  0.99739  0.64902  1.0000
  H   H320      1.0  0.15633  0.53447  0.63305  1.0000
  H   H321      1.0  0.29997  0.52976  0.39930  1.0000
  H   H322      1.0  0.24835  0.55983  0.35684  1.0000
  C   C324      1.0  0.22142  0.51446  0.35098  1.0000
  Fe  Fe54      1.0  0.29536  0.79569  0.92948  1.0000
  S   S108      1.0  0.33629  0.80804  0.95113  1.0000
  S   S109      1.0  0.28617  0.74016  0.92728  1.0000
  Fe  Fe55      1.0  0.28455  0.86922  0.91938  1.0000
  S   S110      1.0  0.32550  0.88628  0.94037  1.0000
  S   S111      1.0  0.26330  0.90615  0.89683  1.0000
  Fe  Fe56      1.0  0.35507  0.84366  0.92780  1.0000
  S   S112      1.0  0.40873  0.83704  0.91732  1.0000
  Fe  Fe57      1.0  0.30269  0.84892  0.96192  1.0000
  S   S113      1.0  0.30216  0.85565  0.99589  1.0000
  S   S114      1.0  0.31598  0.82882  0.90545  1.0000
  S   S115      1.0  0.25976  0.83443  0.94172  1.0000
  C   C325      1.0  0.42199  0.57051  0.75971  1.0000
  Fe  Fe58      1.0  0.43959  0.58871  0.87693  1.0000
  S   S116      1.0  0.42140  0.60524  0.84681  1.0000
  S   S117      1.0  0.47872  0.62188  0.89164  1.0000
  S   S118      1.0  0.35904  0.55172  0.85104  1.0000
  Fe  Fe59      1.0  0.41245  0.55136  0.83981  1.0000
  Fe  Fe60      1.0  0.37007  0.60462  0.86075  1.0000
  S   S119      1.0  0.34183  0.65256  0.85523  1.0000
  S   S120      1.0  0.38851  0.59047  0.89120  1.0000
  H   H323      1.0  0.18090  0.86007  0.01055  1.0000
  H   H324      1.0  0.11039  0.96166  0.87614  1.0000
  H   H325      1.0  0.46509  0.90711  0.84316  1.0000
  C   C326      1.0  0.20586  0.85670  0.01663  1.0000
  N   N30       1.0  0.40362  0.69933  0.89783  1.0000
  N   N31       1.0  0.37411  0.55462  0.73091  1.0000
  Fe  Fe61      1.0  0.12619  0.94496  0.71726  1.0000
  H   H326      1.0  0.11126  0.80457  0.70510  1.0000
  H   H327      1.0  0.20939  0.91796  0.81777  1.0000
  C   C327      1.0  0.34883  0.54556  0.71588  1.0000
  C   C328      1.0  0.09029  0.97697  0.76749  1.0000
  C   C329      1.0  0.12440  0.98469  0.76537  1.0000
  H   H328      1.0  0.41103  0.65889  0.87782  1.0000
  S   S121      1.0  0.08778  0.96722  0.69655  1.0000
  H   H329      1.0  0.07762  0.96269  0.75601  1.0000
  C   C330      1.0  0.43191  0.55759  0.74124  1.0000
  C   C331      1.0  0.23371  0.85602  0.00359  1.0000
  H   H330      1.0  0.35267  0.89913  0.89756  1.0000
  S   S122      1.0  0.13574  0.99785  0.91117  1.0000
  C   C332      1.0  0.08873  0.00573  0.79976  1.0000
  H   H331      1.0  0.36618  0.73500  0.94669  1.0000
  H   H332      1.0  0.18993  0.00043  0.88162  1.0000
  H   H333      1.0  0.51407  0.56031  0.88269  1.0000
  H   H334      1.0  0.23018  0.85893  0.98760  1.0000
  C   C333      1.0  0.22916  0.93281  0.90203  1.0000
  C   C334      1.0  0.20746  0.92713  0.91820  1.0000
  C   C335      1.0  0.17922  0.94762  0.92102  1.0000
  C   C336      1.0  0.17255  0.97398  0.90778  1.0000
  C   C337      1.0  0.19461  0.98005  0.89183  1.0000
  C   C338      1.0  0.22273  0.95947  0.88895  1.0000
  H   H335      1.0  0.21210  0.90660  0.92832  1.0000
  H   H336      1.0  0.16230  0.94278  0.93342  1.0000
  C   C339      1.0  0.11337  0.58821  0.69093  1.0000
  H   H337      1.0  0.23951  0.96417  0.87647  1.0000
  C   C340      1.0  0.43580  0.86934  0.90933  1.0000
  C   C341      1.0  0.46631  0.86078  0.90015  1.0000
  C   C342      1.0  0.48747  0.88539  0.89203  1.0000
  C   C343      1.0  0.47836  0.91887  0.89308  1.0000
  C   C344      1.0  0.44841  0.92762  0.90291  1.0000
  C   C345      1.0  0.42711  0.90290  0.91101  1.0000
  H   H338      1.0  0.47334  0.83490  0.89895  1.0000
  C   C346      1.0  0.44049  0.90686  0.85024  1.0000
  H   H339      1.0  0.44141  0.95351  0.90392  1.0000
  H   H340      1.0  0.40396  0.90978  0.91839  1.0000
  C   C347      1.0  0.30298  0.71653  0.90731  1.0000
  C   C348      1.0  0.31015  0.73088  0.88864  1.0000
  C   C349      1.0  0.32209  0.71101  0.87282  1.0000
  C   C350      1.0  0.32778  0.67687  0.87565  1.0000
  C   C351      1.0  0.32150  0.66272  0.89447  1.0000
  C   C352      1.0  0.30868  0.68240  0.91012  1.0000
  H   H341      1.0  0.30553  0.75705  0.88624  1.0000
  H   H342      1.0  0.32665  0.72207  0.85826  1.0000
  H   H343      1.0  0.32542  0.63641  0.89677  1.0000
  H   H344      1.0  0.30302  0.67109  0.92447  1.0000
  N   N32       1.0  0.13179  0.94114  0.84967  1.0000
  C   C353      1.0  0.15968  0.92838  0.85879  1.0000
  C   C354      1.0  0.13063  0.94429  0.82927  1.0000
  C   C355      1.0  0.18806  0.91995  0.84751  1.0000
  C   C356      1.0  0.15854  0.93620  0.81749  1.0000
  C   C357      1.0  0.18750  0.92416  0.82672  1.0000
  C   C358      1.0  0.10243  0.94996  0.86181  1.0000
  H   H345      1.0  0.16023  0.92494  0.87493  1.0000
  H   H346      1.0  0.10807  0.95321  0.82199  1.0000
  H   H347      1.0  0.21035  0.91043  0.85492  1.0000
  H   H348      1.0  0.15762  0.93940  0.80131  1.0000
  S   S123      1.0  0.16519  0.93852  0.69318  1.0000
  H   H349      1.0  0.32965  0.88803  0.87527  1.0000
  S   S124      1.0  0.43522  0.53454  0.86904  1.0000
  H   H350      1.0  0.33498  0.93081  0.88177  1.0000
  C   C359      1.0  0.39357  0.93621  0.86468  1.0000
  S   S125      1.0  0.43355  0.52958  0.81091  1.0000
  H   H351      1.0  0.15962  0.61333  0.69863  1.0000
  H   H352      1.0  0.35872  0.54904  0.70042  1.0000
  H   H353      1.0  0.31020  0.92263  0.01348  1.0000
  C   C360      1.0  0.42438  0.93674  0.85451  1.0000
  H   H354      1.0  0.12274  0.74808  0.69166  1.0000
  C   C361      1.0  0.38156  0.74549  0.91638  1.0000
  H   H355      1.0  0.44053  0.57573  0.77124  1.0000
  H   H356      1.0  0.38449  0.67589  0.94524  1.0000
  C   C362      1.0  0.36413  0.56654  0.74917  1.0000
  C   C363      1.0  0.26614  0.85275  0.01134  1.0000
  C   C364      1.0  0.37750  0.72512  0.93316  1.0000
  H   H357      1.0  0.40605  0.69798  0.86586  1.0000
  C   C365      1.0  0.14052  0.00317  0.78045  1.0000
  H   H358      1.0  0.33765  0.56910  0.75267  1.0000
  C   C366      1.0  0.07259  0.98735  0.78466  1.0000
  H   H359      1.0  0.39724  0.74803  0.88568  1.0000
  C   C367      1.0  0.38791  0.57496  0.76375  1.0000
  N   N33       1.0  0.37919  0.90665  0.87035  1.0000
  H   H360      1.0  0.27170  0.92586  0.00025  1.0000
  C   C368      1.0  0.39497  0.87724  0.86639  1.0000
  H   H361      1.0  0.32601  0.56122  0.71723  1.0000
  H   H362      1.0  0.36177  0.51841  0.80363  1.0000
  H   H363      1.0  0.37386  0.77131  0.91691  1.0000
  H   H364      1.0  0.38178  0.95961  0.86848  1.0000
  S   S126      1.0  0.14817  0.97084  0.74459  1.0000
  H   H365      1.0  0.41537  0.53892  0.71279  1.0000
  H   H366      1.0  0.08632  0.96834  0.85391  1.0000
  H   H367      1.0  0.38440  0.85396  0.87182  1.0000
  C   C369      1.0  0.34766  0.90624  0.88176  1.0000
  C   C370      1.0  0.40100  0.67948  0.91444  1.0000
  C   C371      1.0  0.42576  0.87688  0.85619  1.0000
  H   H368      1.0  0.43656  0.96017  0.85079  1.0000
  H   H369      1.0  0.08724  0.92740  0.86510  1.0000
  H   H370      1.0  0.51055  0.87833  0.88462  1.0000
  C   C372      1.0  0.38753  0.69195  0.93228  1.0000
  H   H371      1.0  0.43886  0.85365  0.85375  1.0000
  C   C373      1.0  0.40748  0.54956  0.72696  1.0000
  H   H372      1.0  0.44507  0.68847  0.87899  1.0000
  C   C374      1.0  0.41730  0.68571  0.87919  1.0000
  S   S127      1.0  0.10722  0.89261  0.71347  1.0000
  S   S128      1.0  0.50269  0.94961  0.88079  1.0000
  C   C375      1.0  0.39477  0.73213  0.89873  1.0000
  H   H373      1.0  0.40896  0.65372  0.91384  1.0000
  C   C376      1.0  0.09767  0.79544  0.69212  1.0000
  H   H374      1.0  0.45828  0.55299  0.73820  1.0000
  H   H375      1.0  0.17698  0.00935  0.71073  1.0000
  H   H376      1.0  0.09817  0.60159  0.70173  1.0000
  Fe  Fe62      1.0  0.38214  0.53771  0.88074  1.0000
  H   H377      1.0  0.16693  0.00924  0.77892  1.0000
  H   H378      1.0  0.37998  0.58372  0.77840  1.0000
  Fe  Fe63      1.0  0.07143  0.91428  0.69074  1.0000
  S   S129      1.0  0.01977  0.89011  0.69143  1.0000
  H   H379      1.0  0.06433  0.99041  0.92361  1.0000
  H   H380      1.0  0.04631  0.98087  0.78631  1.0000
  Fe  Fe64      1.0  0.14252  0.88846  0.68737  1.0000
  C   C377      1.0  0.14773  0.59484  0.68916  1.0000
  H   H381      1.0  0.07000  0.84059  0.68812  1.0000
  H   H382      1.0  0.34140  0.51908  0.71785  1.0000
  H   H383      1.0  0.22187  0.78045  0.01478  1.0000
  C   C378      1.0  0.04871  0.01039  0.92929  1.0000
  C   C379      1.0  0.10402  0.76373  0.68461  1.0000
  C   C380      1.0  0.28607  0.93652  0.01303  1.0000
  H   H384      1.0  0.29136  0.96318  0.01001  1.0000
  C   C381      1.0  0.58062  0.27296  0.14120  1.0000
  Fe  Fe65      1.0  0.89926  0.06993  0.32983  1.0000
  H   H385      1.0  0.73796  0.15395  0.05372  1.0000
  Fe  Fe66      1.0  0.63657  0.45134  0.16642  1.0000
  S   S130      1.0  0.67497  0.43020  0.18735  1.0000
  Fe  Fe67      1.0  0.58087  0.40611  0.18218  1.0000
  S   S131      1.0  0.61536  0.38267  0.20478  1.0000
  Fe  Fe68      1.0  0.63453  0.43418  0.21082  1.0000
  S   S132      1.0  0.65309  0.45158  0.24136  1.0000
  Fe  Fe69      1.0  0.65243  0.38055  0.17952  1.0000
  S   S133      1.0  0.68223  0.33287  0.17722  1.0000
  S   S134      1.0  0.59695  0.45826  0.19034  1.0000
  S   S135      1.0  0.61711  0.40117  0.15652  1.0000
  Fe  Fe70      1.0  0.69476  0.11287  0.12914  1.0000
  S   S136      1.0  0.66823  0.07853  0.10788  1.0000
  S   S137      1.0  0.72988  0.09531  0.15379  1.0000
  Fe  Fe71      1.0  0.66775  0.17529  0.10896  1.0000
  S   S138      1.0  0.64068  0.14523  0.08562  1.0000
  S   S139      1.0  0.65948  0.23088  0.10594  1.0000
  Fe  Fe72      1.0  0.62415  0.11290  0.11128  1.0000
  S   S140      1.0  0.56875  0.09961  0.10920  1.0000
  Fe  Fe73      1.0  0.68684  0.11378  0.08405  1.0000
  S   S141      1.0  0.70598  0.08839  0.05584  1.0000
  S   S142      1.0  0.64880  0.14461  0.13480  1.0000
  S   S143      1.0  0.71581  0.14658  0.10513  1.0000
  C   C382      1.0  0.67733  0.30534  0.15683  1.0000
  C   C383      1.0  0.66071  0.31498  0.13933  1.0000
  C   C384      1.0  0.65637  0.29212  0.12361  1.0000
  C   C385      1.0  0.66788  0.25929  0.12545  1.0000
  C   C386      1.0  0.68462  0.24965  0.14291  1.0000
  C   C387      1.0  0.68966  0.27276  0.15845  1.0000
  H   H386      1.0  0.65142  0.34006  0.13785  1.0000
  H   H387      1.0  0.64358  0.29975  0.11007  1.0000
  H   H388      1.0  0.69368  0.22446  0.14444  1.0000
  H   H389      1.0  0.70267  0.26521  0.17193  1.0000
  H   H390      1.0  0.77424  0.17969  0.02747  1.0000
  N   N34       1.0  0.81128  0.07667  0.11870  1.0000
  C   C388      1.0  0.55923  0.07874  0.14830  1.0000
  C   C389      1.0  0.54447  0.08852  0.13025  1.0000
  H   H391      1.0  0.79976  0.51225  0.11045  1.0000
  C   C390      1.0  0.75161  0.48736  0.11000  1.0000
  N   N35       1.0  0.59158  0.45709  0.31655  1.0000
  H   H392      1.0  0.58629  0.07956  0.14991  1.0000
  C   C391      1.0  0.79174  0.09831  0.10808  1.0000
  H   H393      1.0  0.96012  0.04853  0.27697  1.0000
  H   H394      1.0  0.97577  0.04683  0.24105  1.0000
  H   H395      1.0  0.59966  0.47311  0.34668  1.0000
  C   C392      1.0  0.74940  0.05591  0.15282  1.0000
  C   C393      1.0  0.59873  0.24852  0.15144  1.0000
  H   H396      1.0  0.58732  0.48367  0.23989  1.0000
  H   H397      1.0  0.67568  0.48476  0.27676  1.0000
  C   C394      1.0  0.71018  0.51242  0.08842  1.0000
  H   H398      1.0  0.75858  0.46886  0.12110  1.0000
  H   H399      1.0  0.57223  0.26786  0.12606  1.0000
  H   H400      1.0  0.58998  0.43777  0.28676  1.0000
  C   C395      1.0  0.71360  0.50193  0.15643  1.0000
  S   S144      1.0  0.52932  0.38166  0.18199  1.0000
  C   C396      1.0  0.63334  0.48146  0.25673  1.0000
  H   H401      1.0  0.84845  0.10383  0.13452  1.0000
  S   S145      1.0  0.89378  0.06959  0.29588  1.0000
  H   H402      1.0  0.55470  0.49288  0.32481  1.0000
  H   H403      1.0  0.76490  0.50950  0.16573  1.0000
  C   C397      1.0  0.73318  0.10728  0.03821  1.0000
  C   C398      1.0  0.74485  0.13987  0.04054  1.0000
  H   H404      1.0  0.70727  0.49300  0.22662  1.0000
  H   H405      1.0  0.98495  0.35755  0.34486  1.0000
  C   C399      1.0  0.77221  0.04693  0.16794  1.0000
  H   H406      1.0  0.65742  0.45133  0.34839  1.0000
  H   H407      1.0  0.55058  0.05790  0.17771  1.0000
  C   C400      1.0  0.58602  0.30975  0.16881  1.0000
  C   C401      1.0  0.61088  0.25525  0.17062  1.0000
  C   C402      1.0  0.60070  0.49250  0.25295  1.0000
  H   H408      1.0  0.80801  0.06321  0.27802  1.0000
  H   H409      1.0  0.77626  0.06349  0.18048  1.0000
  C   C403      1.0  0.88801  0.03266  0.28200  1.0000
  S   S146      1.0  0.64759  0.49368  0.14469  1.0000
  H   H410      1.0  0.64763  0.41551  0.28788  1.0000
  C   C404      1.0  0.76529  0.15444  0.02563  1.0000
  H   H411      1.0  0.76212  0.10599  0.08135  1.0000
  H   H412      1.0  0.55990  0.32703  0.12262  1.0000
  H   H413      1.0  0.52781  0.42564  0.14717  1.0000
  H   H414      1.0  0.62628  0.23711  0.17835  1.0000
  H   H415      1.0  0.97103  0.01505  0.20928  1.0000
  H   H416      1.0  0.72674  0.04088  0.12501  1.0000
  S   S147      1.0  0.94206  0.09780  0.34390  1.0000
  C   C405      1.0  0.53897  0.06652  0.16400  1.0000
  C   C406      1.0  0.80338  0.03505  0.09330  1.0000
  H   H417      1.0  0.83447  0.06617  0.14692  1.0000
  C   C407      1.0  0.74419  0.03428  0.13674  1.0000
  C   C408      1.0  0.80898  0.03165  0.32530  1.0000
  H   H418      1.0  0.71083  0.47895  0.16464  1.0000
  C   C409      1.0  0.77761  0.08883  0.08978  1.0000
  H   H419      1.0  0.70074  0.46931  0.10709  1.0000
  H   H420      1.0  0.61487  0.29203  0.19399  1.0000
  C   C410      1.0  0.80675  0.04507  0.29006  1.0000
  H   H421      1.0  0.80770  0.10168  0.14666  1.0000
  H   H422      1.0  0.00185  0.50470  0.26048  1.0000
  H   H423      1.0  0.64821  0.08902  0.02529  1.0000
  C   C411      1.0  0.55523  0.32832  0.13903  1.0000
  C   C412      1.0  0.79058  0.01713  0.16665  1.0000
  H   H424      1.0  0.56220  0.35387  0.14385  1.0000
  H   H425      1.0  0.81199  0.08162  0.31343  1.0000
  C   C413      1.0  0.77470  0.51168  0.10405  1.0000
  C   C414      1.0  0.82639  0.08762  0.13760  1.0000
  C   C415      1.0  0.65642  0.43173  0.31828  1.0000
  H   H426      1.0  0.53924  0.45085  0.32150  1.0000
  C   C416      1.0  0.74219  0.08937  0.02098  1.0000
  N   N36       1.0  0.57479  0.30324  0.14984  1.0000
  H   H427      1.0  0.60471  0.22514  0.14416  1.0000
  C   C417      1.0  0.88530  0.03453  0.26102  1.0000
  H   H428      1.0  0.65207  0.50417  0.21127  1.0000
  H   H429      1.0  0.55013  0.47696  0.30021  1.0000
  H   H430      1.0  0.67164  0.14512  0.01968  1.0000
  C   C418      1.0  0.78314  0.05690  0.08247  1.0000
  C   C419      1.0  0.55715  0.46985  0.31577  1.0000
  C   C420      1.0  0.60450  0.28603  0.17940  1.0000
  C   C421      1.0  0.61006  0.46056  0.33371  1.0000
  C   C422      1.0  0.80910  0.05541  0.30995  1.0000
  S   S148      1.0  0.86128  0.09418  0.35007  1.0000
  C   C423      1.0  0.64279  0.44814  0.33480  1.0000
  H   H431      1.0  0.58136  0.33366  0.17571  1.0000
  H   H432      1.0  0.81105  0.03983  0.34074  1.0000
  C   C424      1.0  0.63714  0.42766  0.30100  1.0000
  C   C425      1.0  0.60450  0.44042  0.30043  1.0000
  H   H433      1.0  0.78664  0.12296  0.11390  1.0000
  C   C426      1.0  0.71916  0.48759  0.10211  1.0000
  C   C427      1.0  0.65036  0.49310  0.27379  1.0000
  H   H434      1.0  0.88679  0.05850  0.25365  1.0000
  H   H435      1.0  0.68191  0.42228  0.31886  1.0000
  H   H436      1.0  0.92291  0.35266  0.34681  1.0000
  H   H437      1.0  0.99848  0.02584  0.28189  1.0000
  S   S149      1.0  0.90570  0.02452  0.34898  1.0000
  C   C428      1.0  0.97080  0.02031  0.24161  1.0000
  C   C429      1.0  0.81768  0.04554  0.11139  1.0000
  H   H438      1.0  0.01503  0.46581  0.29171  1.0000
  H   H439      1.0  0.52800  0.32474  0.14210  1.0000
  H   H440      1.0  0.77150  0.04921  0.06850  1.0000
  H   H441      1.0  0.83295  0.02820  0.11987  1.0000
  C   C430      1.0  0.97136  0.02332  0.27830  1.0000
  H   H442      1.0  0.73325  0.06413  0.01909  1.0000
  H   H443      1.0  0.68475  0.51264  0.08261  1.0000
  S   S150      1.0  0.60050  0.02087  0.68309  1.0000
  N   N37       1.0  0.89693  0.32489  0.48246  1.0000
  H   H444      1.0  0.74836  0.49320  0.43201  1.0000
  H   H445      1.0  0.75179  0.01673  0.45051  1.0000
  H   H446      1.0  0.75700  0.49183  0.37696  1.0000
  S   S151      1.0  0.61085  0.17378  0.67623  1.0000
  C   C431      1.0  0.65777  0.36483  0.53188  1.0000
  H   H447      1.0  0.78247  0.04810  0.66385  1.0000
  C   C432      1.0  0.73979  0.26688  0.65670  1.0000
  C   C433      1.0  0.93849  0.34105  0.35813  1.0000
  S   S152      1.0  0.91114  0.07552  0.38784  1.0000
  Fe  Fe74      1.0  0.80176  0.39598  0.41847  1.0000
  S   S153      1.0  0.83236  0.39741  0.44699  1.0000
  S   S154      1.0  0.78528  0.44450  0.40406  1.0000
  Fe  Fe75      1.0  0.81034  0.32132  0.41348  1.0000
  S   S155      1.0  0.84105  0.31743  0.44124  1.0000
  S   S156      1.0  0.79847  0.27490  0.39580  1.0000
  Fe  Fe76      1.0  0.80323  0.35138  0.45553  1.0000
  S   S157      1.0  0.78600  0.33251  0.48622  1.0000
  Fe  Fe77      1.0  0.86736  0.36340  0.43032  1.0000
  S   S158      1.0  0.92408  0.36332  0.43329  1.0000
  S   S159      1.0  0.77007  0.35222  0.42819  1.0000
  S   S160      1.0  0.83919  0.36501  0.40135  1.0000
  C   C434      1.0  0.97356  0.34363  0.35709  1.0000
  H   H448      1.0  0.71515  0.31354  0.47722  1.0000
  C   C435      1.0  0.00465  0.39573  0.40130  1.0000
  C   C436      1.0  0.76881  0.02638  0.65758  1.0000
  S   S161      1.0  0.60013  0.08455  0.65143  1.0000
  Fe  Fe78      1.0  0.87017  0.04997  0.37024  1.0000
  C   C437      1.0  0.71656  0.26247  0.67217  1.0000
  Fe  Fe79      1.0  0.68601  0.32100  0.61460  1.0000
  S   S162      1.0  0.65688  0.34375  0.58927  1.0000
  S   S163      1.0  0.69426  0.26530  0.61590  1.0000
  Fe  Fe80      1.0  0.70085  0.38820  0.63345  1.0000
  S   S164      1.0  0.67205  0.41602  0.60996  1.0000
  S   S165      1.0  0.72195  0.41462  0.66056  1.0000
  Fe  Fe81      1.0  0.63350  0.37551  0.61327  1.0000
  S   S166      1.0  0.57681  0.38043  0.61249  1.0000
  Fe  Fe82      1.0  0.69810  0.38207  0.58804  1.0000
  S   S167      1.0  0.71821  0.40744  0.55984  1.0000
  S   S168      1.0  0.66006  0.35013  0.63863  1.0000
  S   S169      1.0  0.72958  0.35691  0.61156  1.0000
  C   C438      1.0  0.63360  0.19838  0.65882  1.0000
  C   C439      1.0  0.65761  0.18473  0.64594  1.0000
  C   C440      1.0  0.67569  0.20544  0.63265  1.0000
  C   C441      1.0  0.66972  0.23984  0.63200  1.0000
  C   C442      1.0  0.64545  0.25339  0.64475  1.0000
  C   C443      1.0  0.62761  0.23276  0.65815  1.0000
  H   H449      1.0  0.66243  0.15827  0.64633  1.0000
  H   H450      1.0  0.69443  0.19474  0.62284  1.0000
  H   H451      1.0  0.64054  0.27975  0.64437  1.0000
  H   H452      1.0  0.68297  0.39773  0.48746  1.0000
  S   S170      1.0  0.99944  0.03640  0.36927  1.0000
  H   H453      1.0  0.79554  0.49019  0.59517  1.0000
  S   S171      1.0  0.91408  0.17028  0.37764  1.0000
  C   C444      1.0  0.55386  0.40644  0.62880  1.0000
  C   C445      1.0  0.56941  0.42514  0.64385  1.0000
  C   C446      1.0  0.54968  0.44311  0.65764  1.0000
  Fe  Fe83      1.0  0.56362  0.05948  0.67219  1.0000
  H   H454      1.0  0.56175  0.45723  0.66940  1.0000
  H   H455      1.0  0.59651  0.42537  0.64505  1.0000
  C   C447      1.0  0.67782  0.37896  0.49876  1.0000
  C   C448      1.0  0.82431  0.46722  0.65768  1.0000
  C   C449      1.0  0.81473  0.44518  0.64241  1.0000
  C   C450      1.0  0.78358  0.42854  0.64322  1.0000
  C   C451      1.0  0.76199  0.43357  0.65947  1.0000
  C   C452      1.0  0.77201  0.45475  0.67507  1.0000
  C   C453      1.0  0.80301  0.47164  0.67415  1.0000
  H   H456      1.0  0.83118  0.44153  0.62967  1.0000
  H   H457      1.0  0.77618  0.41219  0.63115  1.0000
  C   C454      1.0  0.70319  0.48882  0.38057  1.0000
  H   H458      1.0  0.98430  0.07383  0.40549  1.0000
  C   C455      1.0  0.76918  0.35449  0.50688  1.0000
  C   C456      1.0  0.76349  0.38875  0.50627  1.0000
  C   C457      1.0  0.74861  0.40476  0.52283  1.0000
  C   C458      1.0  0.73916  0.38669  0.54004  1.0000
  C   C459      1.0  0.74526  0.35252  0.54071  1.0000
  C   C460      1.0  0.76022  0.33655  0.52421  1.0000
  H   H459      1.0  0.77034  0.40286  0.49304  1.0000
  H   H460      1.0  0.74403  0.43124  0.52221  1.0000
  H   H461      1.0  0.73814  0.33834  0.55387  1.0000
  H   H462      1.0  0.76455  0.31003  0.52483  1.0000
  C   C461      1.0  0.88136  0.19859  0.38296  1.0000
  C   C462      1.0  0.88930  0.22890  0.39232  1.0000
  C   C463      1.0  0.86407  0.25232  0.39654  1.0000
  C   C464      1.0  0.83070  0.24570  0.39122  1.0000
  C   C465      1.0  0.82278  0.21539  0.38189  1.0000
  C   C466      1.0  0.84796  0.19182  0.37786  1.0000
  H   H463      1.0  0.73863  0.46566  0.60024  1.0000
  H   H464      1.0  0.87034  0.27555  0.40375  1.0000
  H   H465      1.0  0.69829  0.50984  0.37088  1.0000
  H   H466      1.0  0.89643  0.32228  0.37533  1.0000
  C   C467      1.0  0.99026  0.41158  0.38475  1.0000
  C   C468      1.0  0.95511  0.41371  0.38349  1.0000
  C   C469      1.0  0.93449  0.39950  0.39843  1.0000
  C   C470      1.0  0.94894  0.38317  0.41479  1.0000
  C   C471      1.0  0.98407  0.38158  0.41625  1.0000
  C   C472      1.0  0.53891  0.34227  0.65733  1.0000
  H   H467      1.0  0.94374  0.42606  0.37079  1.0000
  H   H468      1.0  0.90745  0.40108  0.39721  1.0000
  C   C473      1.0  0.73026  0.49166  0.62805  1.0000
  H   H469      1.0  0.75942  0.03272  0.64236  1.0000
  C   C474      1.0  0.70024  0.33680  0.47597  1.0000
  C   C475      1.0  0.67654  0.47212  0.38990  1.0000
  C   C476      1.0  0.92362  0.32409  0.37415  1.0000
  C   C477      1.0  0.73642  0.47859  0.38404  1.0000
  C   C478      1.0  0.74326  0.45203  0.39708  1.0000
  C   C479      1.0  0.71654  0.43458  0.40586  1.0000
  C   C480      1.0  0.68325  0.44455  0.40218  1.0000
  C   C481      1.0  0.78066  0.49708  0.60815  1.0000
  H   H470      1.0  0.79703  0.21015  0.37772  1.0000
  H   H471      1.0  0.72155  0.41406  0.41590  1.0000
  H   H472      1.0  0.66265  0.43133  0.40927  1.0000
  H   H473      1.0  0.93438  0.36288  0.47864  1.0000
  C   C482      1.0  0.94391  0.30992  0.38886  1.0000
  H   H474      1.0  0.93553  0.31129  0.46182  1.0000
  H   H475      1.0  0.90667  0.36847  0.49967  1.0000
  C   C483      1.0  0.74360  0.32509  0.66508  1.0000
  C   C484      1.0  0.87292  0.26027  0.47793  1.0000
  H   H476      1.0  0.68615  0.29700  0.50707  1.0000
  S   S172      1.0  0.86191  0.49032  0.65495  1.0000
  C   C485      1.0  0.91357  0.30319  0.47021  1.0000
  C   C486      1.0  0.01130  0.07261  0.40377  1.0000
  H   H477      1.0  0.89183  0.37548  0.47436  1.0000
  H   H478      1.0  0.85467  0.33246  0.50165  1.0000
  H   H479      1.0  0.91462  0.25368  0.45767  1.0000
  C   C487      1.0  0.90804  0.35960  0.48394  1.0000
  C   C488      1.0  0.97890  0.31280  0.38729  1.0000
  C   C489      1.0  0.85617  0.28255  0.49040  1.0000
  C   C490      1.0  0.66560  0.33163  0.52820  1.0000
  C   C491      1.0  0.86855  0.31498  0.49246  1.0000
  H   H480      1.0  0.93250  0.29741  0.40160  1.0000
  H   H481      1.0  0.97132  0.16870  0.40490  1.0000
  H   H482      1.0  0.84158  0.16861  0.37062  1.0000
  S   S173      1.0  0.63468  0.48537  0.38691  1.0000
  H   H483      1.0  0.91508  0.23422  0.39630  1.0000
  C   C492      1.0  0.52836  0.17975  0.65179  1.0000
  N   N38       1.0  0.68592  0.34642  0.49537  1.0000
  C   C493      1.0  0.66381  0.38868  0.51708  1.0000
  H   H484      1.0  0.71802  0.35614  0.47036  1.0000
  H   H485      1.0  0.97807  0.13513  0.37420  1.0000
  H   H486      1.0  0.74630  0.02165  0.66711  1.0000
  C   C494      1.0  0.74875  0.48329  0.61101  1.0000
  H   H487      1.0  0.66157  0.31306  0.53980  1.0000
  C   C495      1.0  0.67963  0.32277  0.50971  1.0000
  N   N39       1.0  0.72130  0.32041  0.68049  1.0000
  S   S174      1.0  0.67728  0.02827  0.64298  1.0000
  C   C496      1.0  0.72812  0.51221  0.43226  1.0000
  H   H488      1.0  0.52725  0.09668  0.63494  1.0000
  H   H489      1.0  0.86301  0.23535  0.47576  1.0000
  H   H490      1.0  0.67994  0.33307  0.46480  1.0000
  Fe  Fe84      1.0  0.63836  0.04926  0.66451  1.0000
  H   H491      1.0  0.82443  0.02074  0.63576  1.0000
  H   H492      1.0  0.59113  0.02945  0.61108  1.0000
  H   H493      1.0  0.65869  0.41466  0.52010  1.0000
  H   H494      1.0  0.99547  0.36925  0.42893  1.0000
  S   S175      1.0  0.82157  0.02883  0.38307  1.0000
  H   H495      1.0  0.83299  0.27528  0.49787  1.0000
  H   H496      1.0  0.64793  0.37231  0.54637  1.0000
  H   H497      1.0  0.70406  0.49875  0.42960  1.0000
  C   C497      1.0  0.90188  0.27056  0.46779  1.0000
  H   H498      1.0  0.77030  0.30223  0.64047  1.0000
  H   H499      1.0  0.54821  0.32922  0.64424  1.0000
  N   N40       1.0  0.99326  0.32979  0.37165  1.0000
  H   H500      1.0  0.75381  0.34964  0.66192  1.0000
  H   H501      1.0  0.60906  0.24348  0.66807  1.0000
  Fe  Fe85      1.0  0.61266  0.11724  0.67760  1.0000
  Fe  Fe86      1.0  0.90476  0.11781  0.36611  1.0000
  C   C498      1.0  0.75322  0.29839  0.65298  1.0000
  H   H502      1.0  0.70582  0.48038  0.63073  1.0000
  H   H503      1.0  0.53993  0.15032  0.67781  1.0000
  Fe  Fe87      1.0  0.94610  0.05434  0.36472  1.0000
  H   H504      1.0  0.74619  0.24618  0.64701  1.0000
  H   H505      1.0  0.99445  0.30204  0.39890  1.0000
  C   C499      1.0  0.52016  0.16007  0.66833  1.0000
  C   C500      1.0  0.99632  0.16376  0.39910  1.0000
  H   H506      1.0  0.55456  0.18507  0.64836  1.0000
  C   C501      1.0  0.56210  0.35604  0.67072  1.0000
  H   H507      1.0  0.58883  0.35363  0.66790  1.0000
  H   H508      1.0  0.54122  0.01785  0.63214  1.0000
  C   C502      1.0  0.00006  0.14498  0.38172  1.0000
  S   S176      1.0  0.01531  0.42735  0.36492  1.0000
  H   H509      1.0  0.70497  0.23827  0.67459  1.0000
  C   C503      1.0  0.51870  0.40654  0.62733  1.0000
  C   C504      1.0  0.70732  0.28974  0.68389  1.0000
  C   C505      1.0  0.89904  0.09975  0.86430  1.0000
  C   C506      1.0  0.86613  0.14880  0.87073  1.0000
  Fe  Fe88      1.0  0.86584  0.42422  0.87736  1.0000
  S   S177      1.0  0.85485  0.38156  0.85665  1.0000
  Fe  Fe89      1.0  0.94064  0.42312  0.86758  1.0000
  S   S178      1.0  0.93506  0.38085  0.84611  1.0000
  S   S179      1.0  0.99274  0.44380  0.87247  1.0000
  Fe  Fe90      1.0  0.88956  0.40838  0.83527  1.0000
  S   S180      1.0  0.87783  0.41165  0.80209  1.0000
  Fe  Fe91      1.0  0.90126  0.35845  0.86952  1.0000
  S   S181      1.0  0.91063  0.30665  0.88146  1.0000
  S   S182      1.0  0.89737  0.45270  0.85510  1.0000
  S   S183      1.0  0.90989  0.39922  0.89182  1.0000
  Fe  Fe92      1.0  0.75679  0.09727  0.92701  1.0000
  S   S184      1.0  0.79623  0.08129  0.94904  1.0000
  S   S185      1.0  0.70495  0.07394  0.92498  1.0000
  Fe  Fe93      1.0  0.79672  0.15945  0.91442  1.0000
  S   S186      1.0  0.83909  0.14871  0.93556  1.0000
  S   S187      1.0  0.79154  0.20381  0.89377  1.0000
  Fe  Fe94      1.0  0.83329  0.09603  0.92485  1.0000
  S   S188      1.0  0.87580  0.06215  0.91523  1.0000
  Fe  Fe95      1.0  0.79848  0.13511  0.95783  1.0000
  S   S189      1.0  0.79758  0.15651  0.98923  1.0000
  S   S190      1.0  0.79330  0.10764  0.90208  1.0000
  S   S191      1.0  0.75671  0.15029  0.93742  1.0000
  H   H510      1.0  0.95185  0.10811  0.85977  1.0000
  Fe  Fe96      1.0  0.61304  0.05786  0.70728  1.0000
  H   H511      1.0  0.98332  0.37485  0.88370  1.0000
  C   C507      1.0  0.77356  0.13679  0.00815  1.0000
  C   C508      1.0  0.67643  0.07992  0.97747  1.0000
  C   C509      1.0  0.60025  0.01603  0.77510  1.0000
  H   H512      1.0  0.74995  0.03031  0.90289  1.0000
  H   H513      1.0  0.75464  0.32143  0.90246  1.0000
  C   C510      1.0  0.87955  0.47933  0.75678  1.0000
  C   C511      1.0  0.88158  0.44945  0.78872  1.0000
  H   H514      1.0  0.81031  0.48817  0.68613  1.0000
  N   N41       1.0  0.68818  0.13481  0.98984  1.0000
  H   H515      1.0  0.90087  0.07293  0.86293  1.0000
  C   C512      1.0  0.92777  0.11976  0.86266  1.0000
  H   H516      1.0  0.89637  0.34234  0.92025  1.0000
  H   H517      1.0  0.84592  0.09893  0.87046  1.0000
  C   C513      1.0  0.87748  0.27805  0.88435  1.0000
  C   C514      1.0  0.88218  0.25016  0.89670  1.0000
  C   C515      1.0  0.85597  0.22718  0.89975  1.0000
  C   C516      1.0  0.82518  0.23165  0.89009  1.0000
  C   C517      1.0  0.82070  0.25925  0.87748  1.0000
  C   C518      1.0  0.84666  0.28263  0.87479  1.0000
  H   H518      1.0  0.90605  0.24657  0.90413  1.0000
  H   H519      1.0  0.85962  0.20604  0.90952  1.0000
  H   H520      1.0  0.79689  0.26276  0.86996  1.0000
  H   H521      1.0  0.84293  0.30398  0.86517  1.0000
  C   C519      1.0  0.98141  0.10230  0.90205  1.0000
  C   C520      1.0  0.95676  0.12347  0.90992  1.0000
  C   C521      1.0  0.92419  0.11152  0.91393  1.0000
  C   C522      1.0  0.91618  0.07824  0.91022  1.0000
  C   C523      1.0  0.94077  0.05715  0.90217  1.0000
  C   C524      1.0  0.97326  0.06919  0.89796  1.0000
  H   H522      1.0  0.96293  0.14915  0.91311  1.0000
  H   H523      1.0  0.90541  0.12799  0.92003  1.0000
  H   H524      1.0  0.93459  0.03142  0.89912  1.0000
  C   C525      1.0  0.82672  0.29685  0.92524  1.0000
  H   H525      1.0  0.89353  0.19487  0.87031  1.0000
  C   C526      1.0  0.72439  0.02181  0.90067  1.0000
  C   C527      1.0  0.89067  0.47900  0.79832  1.0000
  H   H526      1.0  0.89212  0.30120  0.92954  1.0000
  C   C528      1.0  0.69781  0.03885  0.90967  1.0000
  C   C529      1.0  0.95625  0.17389  0.86391  1.0000
  H   H527      1.0  0.82459  0.45538  0.81774  1.0000
  H   H528      1.0  0.88061  0.33589  0.94546  1.0000
  S   S192      1.0  0.65353  0.08406  0.68935  1.0000
  C   C530      1.0  0.55052  0.37441  0.68704  1.0000
  C   C531      1.0  0.65919  0.09537  0.01085  1.0000
  C   C532      1.0  0.66129  0.07160  0.99569  1.0000
  H   H529      1.0  0.70144  0.11803  0.96053  1.0000
  C   C533      1.0  0.86816  0.11436  0.86861  1.0000
  N   N42       1.0  0.00904  0.06193  0.94360  1.0000
  C   C534      1.0  0.70225  0.16815  0.98664  1.0000
  H   H530      1.0  0.78898  0.37310  0.89845  1.0000
  C   C535      1.0  0.68967  0.11188  0.97475  1.0000
  H   H531      1.0  0.76685  0.47635  0.91407  1.0000
  C   C536      1.0  0.76192  0.10419  0.00588  1.0000
  C   C537      1.0  0.78571  0.49439  0.90958  1.0000
  C   C538      1.0  0.98860  0.08868  0.95211  1.0000
  S   S193      1.0  0.61966  0.04897  0.74085  1.0000
  N   N43       1.0  0.98516  0.47436  0.81306  1.0000
  C   C539      1.0  0.89399  0.50859  0.78722  1.0000
  H   H532      1.0  0.68089  0.04457  0.80115  1.0000
  H   H533      1.0  0.68867  0.28620  0.69559  1.0000
  S   S194      1.0  0.82079  0.44101  0.89533  1.0000
  H   H534      1.0  0.84693  0.37480  0.91136  1.0000
  H   H535      1.0  0.83731  0.27519  0.93256  1.0000
  H   H536      1.0  0.67820  0.06175  0.96549  1.0000
  C   C540      1.0  0.96886  0.42104  0.80003  1.0000
  H   H537      1.0  0.87534  0.47930  0.74076  1.0000
  H   H538      1.0  0.77918  0.27236  0.91977  1.0000
  C   C541      1.0  0.97791  0.48893  0.79501  1.0000
  C   C542      1.0  0.89533  0.16810  0.86886  1.0000
  C   C543      1.0  0.99489  0.03143  0.94003  1.0000
  C   C544      1.0  0.78378  0.49727  0.85464  1.0000
  H   H539      1.0  0.76822  0.09034  0.99253  1.0000
  H   H540      1.0  0.84213  0.16045  0.87394  1.0000
  C   C545      1.0  0.87592  0.44976  0.76794  1.0000
  H   H541      1.0  0.68398  0.18384  0.97843  1.0000
  N   N44       1.0  0.84576  0.32489  0.92235  1.0000
  C   C546      1.0  0.83224  0.35222  0.91320  1.0000
  C   C547      1.0  0.78003  0.32261  0.90831  1.0000
  C   C548      1.0  0.67209  0.01469  0.83681  1.0000
  C   C549      1.0  0.79931  0.35143  0.90594  1.0000
  H   H542      1.0  0.65143  0.04674  0.99813  1.0000
  C   C550      1.0  0.81538  0.50821  0.81815  1.0000
  H   H543      1.0  0.96112  0.18049  0.84799  1.0000
  H   H544      1.0  0.95138  0.42067  0.76948  1.0000
  C   C551      1.0  0.71079  0.34887  0.69263  1.0000
  C   C552      1.0  0.79369  0.29518  0.91816  1.0000
  N   N45       1.0  0.92576  0.15340  0.86542  1.0000
  S   S195      1.0  0.57350  0.09413  0.69766  1.0000
  C   C553      1.0  0.88031  0.32620  0.92990  1.0000
  H   H545      1.0  0.99209  0.05274  0.89182  1.0000
  C   C554      1.0  0.81559  0.48361  0.90048  1.0000
  H   H546      1.0  0.95382  0.19715  0.87279  1.0000
  C   C555      1.0  0.67264  0.12713  0.00760  1.0000
  H   H547      1.0  0.96822  0.02733  0.94258  1.0000
  C   C556      1.0  0.98080  0.44088  0.81570  1.0000
  H   H548      1.0  0.89534  0.47908  0.81425  1.0000
  C   C557      1.0  0.96648  0.46972  0.77892  1.0000
  H   H549      1.0  0.64405  0.04059  0.91365  1.0000
  H   H550      1.0  0.97840  0.16038  0.86998  1.0000
  H   H551      1.0  0.86890  0.42698  0.76040  1.0000
  H   H552      1.0  0.95988  0.48147  0.76479  1.0000
  H   H553      1.0  0.75553  0.45855  0.68778  1.0000
  H   H554      1.0  0.60336  0.03984  0.78238  1.0000
  C   C558      1.0  0.99614  0.49463  0.83008  1.0000
  C   C559      1.0  0.96173  0.43560  0.78154  1.0000
  H   H555      1.0  0.72602  0.16682  0.97788  1.0000
  H   H556      1.0  0.56819  0.38633  0.69711  1.0000
  C   C560      1.0  0.66473  0.02748  0.90675  1.0000
  H   H557      1.0  0.99647  0.11322  0.94591  1.0000
  H   H558      1.0  0.66841  0.04200  0.83588  1.0000
  H   H559      1.0  0.96155  0.08543  0.94833  1.0000
  C   C561      1.0  0.00904  0.38178  0.88687  1.0000
  H   H560      1.0  0.79688  0.44562  0.85072  1.0000
  H   H561      1.0  0.98619  0.42945  0.83009  1.0000
  C   C562      1.0  0.79795  0.47047  0.84435  1.0000
  H   H562      1.0  0.99128  0.08905  0.96867  1.0000
  C   C563      1.0  0.81369  0.47601  0.82593  1.0000
  H   H563      1.0  0.96430  0.39469  0.80237  1.0000
  H   H564      1.0  0.70884  0.18027  0.00108  1.0000
  H   H565      1.0  0.68109  0.01812  0.76774  1.0000
  H   H566      1.0  0.97542  0.49657  0.84124  1.0000
  H   H567      1.0  0.77129  0.49258  0.86882  1.0000
  H   H568      1.0  0.73166  0.36721  0.69423  1.0000
  H   H569      1.0  0.86283  0.49899  0.88760  1.0000
  H   H570      1.0  0.70321  0.34109  0.70797  1.0000
  C   C564      1.0  0.60479  0.01370  0.75423  1.0000
  C   C565      1.0  0.88860  0.50886  0.76642  1.0000
  C   C566      1.0  0.67778  0.01784  0.80011  1.0000
  C   C567      1.0  0.83974  0.50704  0.89463  1.0000
  H   H571      1.0  0.68942  0.36166  0.68523  1.0000
  H   H572      1.0  0.01798  0.48287  0.83767  1.0000
  Fe  Fe97      1.0  0.59843  0.56302  0.33237  1.0000
  H   H573      1.0  0.80347  0.96184  0.29788  1.0000
  Fe  Fe98      1.0  0.81559  0.61866  0.08069  1.0000
  S   S196      1.0  0.77669  0.63625  0.10273  1.0000
  S   S197      1.0  0.80224  0.59405  0.05104  1.0000
  Fe  Fe99      1.0  0.87440  0.63234  0.10975  1.0000
  S   S198      1.0  0.83955  0.64963  0.13392  1.0000
  S   S199      1.0  0.92976  0.64179  0.11569  1.0000
  Fe  Fe100     1.0  0.80634  0.60669  0.12516  1.0000
  S   S200      1.0  0.78663  0.57109  0.14883  1.0000
  Fe  Fe101     1.0  0.81372  0.67765  0.10943  1.0000
  S   S201      1.0  0.80389  0.73310  0.11142  1.0000
  S   S202      1.0  0.84362  0.58682  0.10292  1.0000
  S   S203      1.0  0.84998  0.66234  0.08536  1.0000
  H   H574      1.0  0.73423  0.58659  0.07257  1.0000
  Fe  Fe102     1.0  0.87410  0.87280  0.18209  1.0000
  S   S204      1.0  0.88681  0.90502  0.15573  1.0000
  S   S205      1.0  0.86830  0.81680  0.18207  1.0000
  Fe  Fe103     1.0  0.87552  0.93141  0.21162  1.0000
  S   S206      1.0  0.88801  0.96858  0.18739  1.0000
  S   S207      1.0  0.87111  0.93762  0.24541  1.0000
  Fe  Fe104     1.0  0.84946  0.94100  0.16896  1.0000
  Fe  Fe105     1.0  0.92406  0.92950  0.17622  1.0000
  S   S208      1.0  0.97762  0.94308  0.16808  1.0000
  S   S209      1.0  0.83417  0.90662  0.19406  1.0000
  S   S210      1.0  0.91429  0.89451  0.20168  1.0000
  H   H575      1.0  0.75673  0.52796  0.21729  1.0000
  C   C568      1.0  0.74852  0.54907  0.14629  1.0000
  C   C569      1.0  0.72187  0.56141  0.13489  1.0000
  C   C570      1.0  0.69099  0.54417  0.13449  1.0000
  N   N46       1.0  0.67004  0.54453  0.19332  1.0000
  H   H576      1.0  0.94003  0.72445  0.17583  1.0000
  H   H577      1.0  0.93454  0.81856  0.14538  1.0000
  H   H578      1.0  0.72483  0.58452  0.12673  1.0000
  H   H579      1.0  0.95607  0.52540  0.13194  1.0000
  H   H580      1.0  0.96646  0.87273  0.16046  1.0000
  C   C571      1.0  0.67345  0.51957  0.20712  1.0000
  C   C572      1.0  0.95530  0.60926  0.12476  1.0000
  C   C573      1.0  0.98806  0.61647  0.13137  1.0000
  H   H581      1.0  0.88826  0.99985  0.30751  1.0000
  C   C574      1.0  0.99774  0.55799  0.13849  1.0000
  C   C575      1.0  0.96504  0.55083  0.13187  1.0000
  C   C576      1.0  0.94378  0.57638  0.12517  1.0000
  H   H582      1.0  0.99713  0.64184  0.13105  1.0000
  C   C577      1.0  0.72351  0.56204  0.06824  1.0000
  H   H583      1.0  0.95846  0.01101  0.29115  1.0000
  H   H584      1.0  0.91863  0.57056  0.12011  1.0000
  C   C578      1.0  0.82475  0.75581  0.13031  1.0000
  C   C579      1.0  0.83396  0.74062  0.14832  1.0000
  C   C580      1.0  0.84786  0.75963  0.16387  1.0000
  C   C581      1.0  0.85274  0.79397  0.16156  1.0000
  C   C582      1.0  0.84448  0.80915  0.14335  1.0000
  C   C583      1.0  0.83043  0.79007  0.12777  1.0000
  H   H585      1.0  0.82921  0.71444  0.15060  1.0000
  H   H586      1.0  0.85422  0.74776  0.17792  1.0000
  H   H587      1.0  0.84846  0.83557  0.14139  1.0000
  H   H588      1.0  0.82338  0.80197  0.11385  1.0000
  S   S211      1.0  0.65013  0.55477  0.34491  1.0000
  H   H589      1.0  0.78299  0.55472  0.08560  1.0000
  C   C584      1.0  0.88612  0.00162  0.29139  1.0000
  C   C585      1.0  0.87799  0.97465  0.25896  1.0000
  C   C586      1.0  0.88092  0.97278  0.27991  1.0000
  C   C587      1.0  0.95777  0.95258  0.24269  1.0000
  H   H590      1.0  0.54201  0.00832  0.13704  1.0000
  C   C588      1.0  0.93455  0.73893  0.16251  1.0000
  H   H591      1.0  0.87915  0.94885  0.28731  1.0000
  H   H592      1.0  0.80512  0.94831  0.33210  1.0000
  C   C589      1.0  0.00370  0.91150  0.15820  1.0000
  C   C590      1.0  0.80440  0.98811  0.30145  1.0000
  H   H593      1.0  0.95954  0.95453  0.21039  1.0000
  C   C591      1.0  0.76257  0.64482  0.03622  1.0000
  C   C592      1.0  0.77483  0.61265  0.03349  1.0000
  C   C593      1.0  0.96082  0.97099  0.26038  1.0000
  H   H594      1.0  0.76895  0.65853  0.04963  1.0000
  H   H595      1.0  0.91279  0.78983  0.11527  1.0000
  C   C594      1.0  0.80814  0.97433  0.33737  1.0000
  S   S212      1.0  0.57979  0.55063  0.30107  1.0000
  N   N47       1.0  0.77115  0.84638  0.15567  1.0000
  C   C595      1.0  0.75794  0.82791  0.14036  1.0000
  C   C596      1.0  0.77907  0.83165  0.17355  1.0000
  C   C597      1.0  0.75186  0.79384  0.14285  1.0000
  C   C598      1.0  0.77325  0.79768  0.17657  1.0000
  C   C599      1.0  0.75962  0.77870  0.16108  1.0000
  C   C600      1.0  0.77922  0.88160  0.15252  1.0000
  H   H596      1.0  0.75288  0.83924  0.12592  1.0000
  H   H597      1.0  0.79103  0.84588  0.18538  1.0000
  H   H598      1.0  0.74267  0.77894  0.13044  1.0000
  H   H599      1.0  0.78071  0.78594  0.19052  1.0000
  H   H600      1.0  0.75630  0.75206  0.16290  1.0000
  H   H601      1.0  0.77307  0.89653  0.16604  1.0000
  H   H602      1.0  0.80646  0.88460  0.14923  1.0000
  H   H603      1.0  0.76483  0.89254  0.13988  1.0000
  N   N48       1.0  0.91403  0.74166  0.12871  1.0000
  C   C601      1.0  0.90049  0.72482  0.11102  1.0000
  N   N49       1.0  0.80686  0.99851  0.32093  1.0000
  C   C602      1.0  0.78590  0.99593  0.15030  1.0000
  H   H604      1.0  0.87825  0.00731  0.23337  1.0000
  H   H605      1.0  0.73356  0.55553  0.05320  1.0000
  H   H606      1.0  0.55093  0.86899  0.34033  1.0000
  C   C603      1.0  0.56389  0.91886  0.34880  1.0000
  H   H607      1.0  0.95170  0.92625  0.24326  1.0000
  C   C604      1.0  0.69686  0.56445  0.18850  1.0000
  H   H608      1.0  0.92124  0.71370  0.10214  1.0000
  C   C605      1.0  0.74239  0.65957  0.02138  1.0000
  H   H609      1.0  0.74991  0.57393  0.19261  1.0000
  H   H610      1.0  0.75828  0.98797  0.12295  1.0000
  H   H611      1.0  0.62282  0.52727  0.18234  1.0000
  H   H612      1.0  0.80869  0.01087  0.17811  1.0000
  C   C606      1.0  0.76216  0.00430  0.13560  1.0000
  C   C607      1.0  0.74434  0.51920  0.15691  1.0000
  C   C608      1.0  0.54386  0.89495  0.33932  1.0000
  N   N50       1.0  0.73289  0.53639  0.08283  1.0000
  H   H613      1.0  0.63977  0.56170  0.16903  1.0000
  H   H614      1.0  0.95742  0.95841  0.27464  1.0000
  H   H615      1.0  0.88305  0.70458  0.11565  1.0000
  C   C609      1.0  0.96165  0.96852  0.22423  1.0000
  S   S213      1.0  0.81062  0.96000  0.14680  1.0000
  C   C610      1.0  0.99190  0.87888  0.15603  1.0000
  H   H616      1.0  0.94741  0.78605  0.17601  1.0000
  H   H617      1.0  0.69429  0.58412  0.17748  1.0000
  C   C611      1.0  0.93163  0.79171  0.14536  1.0000
  C   C612      1.0  0.76492  0.53597  0.09023  1.0000
  H   H618      1.0  0.88567  0.74196  0.10143  1.0000
  C   C613      1.0  0.92224  0.72333  0.14528  1.0000
  C   C614      1.0  0.91916  0.77532  0.12843  1.0000
  H   H619      1.0  0.91870  0.69651  0.14530  1.0000
  H   H620      1.0  0.67029  0.55396  0.12584  1.0000
  C   C615      1.0  0.93897  0.77339  0.16256  1.0000
  C   C616      1.0  0.80415  0.01123  0.28574  1.0000
  C   C617      1.0  0.00917  0.59094  0.13835  1.0000
  H   H621      1.0  0.00378  0.82910  0.14643  1.0000
  C   C618      1.0  0.55412  0.95210  0.34841  1.0000
  C   C619      1.0  0.72840  0.55891  0.19711  1.0000
  C   C620      1.0  0.63711  0.55084  0.18430  1.0000
  C   C621      1.0  0.52302  0.98987  0.14233  1.0000
  H   H622      1.0  0.73318  0.68459  0.02352  1.0000
  H   H623      1.0  0.62237  0.56787  0.19396  1.0000
  C   C622      1.0  0.52500  0.96116  0.33817  1.0000
  C   C623      1.0  0.88047  0.00561  0.24950  1.0000
  H   H624      1.0  0.52171  0.99247  0.15893  1.0000
  H   H625      1.0  0.69583  0.56505  0.06722  1.0000
  H   H626      1.0  0.80334  0.00288  0.27028  1.0000
  C   C624      1.0  0.63449  0.51470  0.28739  1.0000
  H   H627      1.0  0.80761  0.01000  0.08790  1.0000
  N   N51       1.0  0.96701  0.00448  0.25967  1.0000
  C   C625      1.0  0.01309  0.85422  0.14811  1.0000
  C   C626      1.0  0.60160  0.52521  0.28384  1.0000
  H   H628      1.0  0.53174  0.96449  0.13854  1.0000
  S   S214      1.0  0.59391  0.61464  0.34505  1.0000
  H   H629      1.0  0.83269  0.97634  0.34521  1.0000
  H   H630      1.0  0.64760  0.52298  0.30067  1.0000
  C   C627      1.0  0.96814  0.00259  0.22363  1.0000
  C   C628      1.0  0.73228  0.53296  0.21080  1.0000
  H   H631      1.0  0.78777  0.97940  0.34837  1.0000
  H   H632      1.0  0.55953  0.52252  0.26358  1.0000
  C   C629      1.0  0.68671  0.51446  0.14535  1.0000
  C   C630      1.0  0.58497  0.51438  0.26645  1.0000
  C   C631      1.0  0.70463  0.51325  0.21595  1.0000
  Fe  Fe106     1.0  0.68770  0.80903  0.42795  1.0000
  S   S215      1.0  0.65250  0.84302  0.44451  1.0000
  S   S216      1.0  0.67189  0.75475  0.42963  1.0000
  Fe  Fe107     1.0  0.73583  0.86588  0.41820  1.0000
  S   S217      1.0  0.70430  0.90368  0.43398  1.0000
  S   S218      1.0  0.78706  0.87888  0.40531  1.0000
  Fe  Fe108     1.0  0.69894  0.86521  0.45819  1.0000
  S   S219      1.0  0.69788  0.87962  0.49107  1.0000
  Fe  Fe109     1.0  0.66062  0.87833  0.41895  1.0000
  S   S220      1.0  0.61955  0.91160  0.40673  1.0000
  S   S221      1.0  0.73364  0.82881  0.44363  1.0000
  S   S222      1.0  0.69258  0.84293  0.40114  1.0000
  H   H633      1.0  0.61463  0.71769  0.36229  1.0000
  S   S223      1.0  0.61989  0.58290  0.38791  1.0000
  H   H634      1.0  0.01092  0.82756  0.66313  1.0000
  Fe  Fe110     1.0  0.57070  0.59042  0.37209  1.0000
  H   H635      1.0  0.56336  0.72724  0.42954  1.0000
  S   S224      1.0  0.57094  0.53955  0.35837  1.0000
  H   H636      1.0  0.80631  0.00790  0.43300  1.0000
  H   H637      1.0  0.78052  0.54424  0.66931  1.0000
  H   H638      1.0  0.79396  0.56916  0.38640  1.0000
  Fe  Fe111     1.0  0.81581  0.85865  0.58654  1.0000
  S   S225      1.0  0.78430  0.82655  0.60691  1.0000
  S   S226      1.0  0.81699  0.85516  0.55251  1.0000
  Fe  Fe112     1.0  0.86185  0.88113  0.62118  1.0000
  S   S227      1.0  0.83432  0.85015  0.64400  1.0000
  S   S228      1.0  0.90634  0.91553  0.62624  1.0000
  Fe  Fe113     1.0  0.83304  0.80997  0.62053  1.0000
  S   S229      1.0  0.85028  0.75617  0.62061  1.0000
  Fe  Fe114     1.0  0.78776  0.86956  0.62857  1.0000
  S   S230      1.0  0.74438  0.88544  0.64857  1.0000
  S   S231      1.0  0.86441  0.83980  0.59903  1.0000
  S   S232      1.0  0.81553  0.90304  0.60708  1.0000
  Fe  Fe115     1.0  0.87613  0.53114  0.67683  1.0000
  S   S233      1.0  0.88771  0.58139  0.66336  1.0000
  Fe  Fe116     1.0  0.62260  0.53418  0.37165  1.0000
  C   C632      1.0  0.61568  0.95679  0.63243  1.0000
  C   C633      1.0  0.53183  0.96671  0.65723  1.0000
  H   H639      1.0  0.74652  0.60643  0.37684  1.0000
  C   C634      1.0  0.81155  0.89854  0.45395  1.0000
  C   C635      1.0  0.52171  0.90266  0.39057  1.0000
  C   C636      1.0  0.84107  0.97179  0.64370  1.0000
  H   H640      1.0  0.98755  0.55319  0.65421  1.0000
  C   C637      1.0  0.72462  0.92452  0.64629  1.0000
  C   C638      1.0  0.73181  0.94597  0.63033  1.0000
  C   C639      1.0  0.71657  0.97742  0.62938  1.0000
  H   H641      1.0  0.97464  0.67296  0.65090  1.0000
  C   C640      1.0  0.68703  0.96643  0.66042  1.0000
  C   C641      1.0  0.70191  0.93474  0.66122  1.0000
  H   H642      1.0  0.74913  0.93835  0.61871  1.0000
  N   N52       1.0  0.79105  0.99742  0.65661  1.0000
  H   H643      1.0  0.70925  0.71199  0.36393  1.0000
  C   C642      1.0  0.56193  0.00041  0.63220  1.0000
  C   C643      1.0  0.93812  0.90722  0.64401  1.0000
  C   C644      1.0  0.93401  0.88283  0.65880  1.0000
  C   C645      1.0  0.95919  0.87803  0.67330  1.0000
  C   C646      1.0  0.98882  0.89721  0.67296  1.0000
  C   C647      1.0  0.99321  0.92115  0.65796  1.0000
  C   C648      1.0  0.96779  0.92631  0.64365  1.0000
  H   H644      1.0  0.91122  0.86811  0.65927  1.0000
  H   H645      1.0  0.68265  0.55462  0.41835  1.0000
  H   H646      1.0  0.61725  0.79735  0.41315  1.0000
  H   H647      1.0  0.97110  0.94525  0.63226  1.0000
  C   C649      1.0  0.83909  0.72496  0.63810  1.0000
  C   C650      1.0  0.81833  0.73131  0.65458  1.0000
  C   C651      1.0  0.81226  0.70613  0.66889  1.0000
  C   C652      1.0  0.82732  0.67474  0.66697  1.0000
  C   C653      1.0  0.84758  0.66833  0.65030  1.0000
  C   C654      1.0  0.85318  0.69324  0.63585  1.0000
  H   H648      1.0  0.80730  0.75564  0.65644  1.0000
  N   N53       1.0  0.59219  0.75148  0.40680  1.0000
  H   H649      1.0  0.85897  0.64421  0.64851  1.0000
  H   H650      1.0  0.86913  0.68811  0.62309  1.0000
  C   C655      1.0  0.73144  0.87330  0.50791  1.0000
  C   C656      1.0  0.72636  0.87934  0.52843  1.0000
  C   C657      1.0  0.75242  0.87430  0.54234  1.0000
  C   C658      1.0  0.78389  0.86359  0.53571  1.0000
  C   C659      1.0  0.78913  0.85810  0.51514  1.0000
  C   C660      1.0  0.76291  0.86252  0.50130  1.0000
  H   H651      1.0  0.70207  0.88780  0.53361  1.0000
  H   H652      1.0  0.74818  0.87870  0.55813  1.0000
  H   H653      1.0  0.81346  0.84977  0.50996  1.0000
  H   H654      1.0  0.76699  0.85747  0.48558  1.0000
  C   C661      1.0  0.79620  0.92026  0.39821  1.0000
  C   C662      1.0  0.82923  0.92905  0.39277  1.0000
  C   C663      1.0  0.83755  0.96223  0.38800  1.0000
  C   C664      1.0  0.81276  0.98674  0.38856  1.0000
  C   C665      1.0  0.77968  0.97781  0.39367  1.0000
  C   C666      1.0  0.77141  0.94474  0.39849  1.0000
  H   H655      1.0  0.84853  0.91018  0.39246  1.0000
  H   H656      1.0  0.86313  0.96884  0.38405  1.0000
  C   C667      1.0  0.80540  0.94194  0.66687  1.0000
  H   H657      1.0  0.74586  0.93826  0.40248  1.0000
  C   C668      1.0  0.58068  0.89451  0.39935  1.0000
  C   C669      1.0  0.57806  0.86123  0.39361  1.0000
  C   C670      1.0  0.79495  0.98799  0.44179  1.0000
  C   C671      1.0  0.74981  0.96689  0.46248  1.0000
  C   C672      1.0  0.60609  0.74919  0.38806  1.0000
  H   H658      1.0  0.79923  0.91941  0.67512  1.0000
  H   H659      1.0  0.60001  0.84556  0.39420  1.0000
  C   C673      1.0  0.57021  0.69599  0.40386  1.0000
  H   H660      1.0  0.81895  0.52885  0.62045  1.0000
  C   C674      1.0  0.67588  0.72498  0.41036  1.0000
  C   C675      1.0  0.66028  0.69390  0.41298  1.0000
  C   C676      1.0  0.66172  0.66965  0.39788  1.0000
  C   C677      1.0  0.67940  0.67598  0.38014  1.0000
  C   C678      1.0  0.69537  0.70695  0.37758  1.0000
  C   C679      1.0  0.69332  0.73156  0.39255  1.0000
  H   H661      1.0  0.64669  0.68865  0.42670  1.0000
  H   H662      1.0  0.64926  0.64605  0.40010  1.0000
  H   H663      1.0  0.86327  0.97273  0.63419  1.0000
  H   H664      1.0  0.70553  0.75540  0.39041  1.0000
  N   N54       1.0  0.78826  0.77463  0.55404  1.0000
  C   C680      1.0  0.75683  0.78450  0.55983  1.0000
  C   C681      1.0  0.79633  0.77268  0.53413  1.0000
  C   C682      1.0  0.73230  0.79197  0.54551  1.0000
  C   C683      1.0  0.77228  0.77956  0.51941  1.0000
  C   C684      1.0  0.74010  0.78936  0.52519  1.0000
  C   C685      1.0  0.81414  0.76799  0.56914  1.0000
  H   H665      1.0  0.75070  0.78716  0.57557  1.0000
  H   H666      1.0  0.82170  0.76647  0.52956  1.0000
  H   H667      1.0  0.70771  0.80067  0.55012  1.0000
  H   H668      1.0  0.72162  0.79607  0.51393  1.0000
  H   H669      1.0  0.83031  0.79035  0.57104  1.0000
  H   H670      1.0  0.80301  0.76154  0.58397  1.0000
  H   H671      1.0  0.83027  0.74681  0.56465  1.0000
  S   S234      1.0  0.53143  0.61975  0.38912  1.0000
  H   H672      1.0  0.58186  0.67035  0.37642  1.0000
  C   C686      1.0  0.60257  0.72001  0.37683  1.0000
  H   H673      1.0  0.94692  0.68233  0.63009  1.0000
  H   H674      1.0  0.79261  0.87861  0.45135  1.0000
  C   C687      1.0  0.92101  0.72662  0.65406  1.0000
  H   H675      1.0  0.60016  0.77675  0.43440  1.0000
  C   C688      1.0  0.90180  0.74668  0.66676  1.0000
  H   H676      1.0  0.55443  0.94104  0.40214  1.0000
  H   H677      1.0  0.62084  0.76957  0.38195  1.0000
  H   H678      1.0  0.77889  0.77859  0.50364  1.0000
  H   H679      1.0  0.72970  0.51968  0.65539  1.0000
  H   H680      1.0  0.55641  0.67518  0.41026  1.0000
  C   C689      1.0  0.69439  0.98789  0.64448  1.0000
  C   C690      1.0  0.76435  0.54181  0.40814  1.0000
  N   N55       1.0  0.79551  0.93124  0.45315  1.0000
  H   H681      1.0  0.57216  0.79735  0.41694  1.0000
  H   H682      1.0  0.89481  0.77159  0.66209  1.0000
  H   H683      1.0  0.76032  0.99662  0.39402  1.0000
  C   C691      1.0  0.61686  0.98490  0.62016  1.0000
  H   H684      1.0  0.76162  0.96802  0.67684  1.0000
  C   C692      1.0  0.94804  0.67346  0.64586  1.0000
  C   C693      1.0  0.76959  0.56641  0.39355  1.0000
  H   H685      1.0  0.56894  0.97067  0.35626  1.0000
  C   C694      1.0  0.71183  0.58308  0.39730  1.0000
  C   C695      1.0  0.57427  0.72545  0.41469  1.0000
  H   H686      1.0  0.92888  0.73655  0.63966  1.0000
  C   C696      1.0  0.74402  0.51377  0.64202  1.0000
  C   C697      1.0  0.58443  0.69332  0.38481  1.0000
  N   N56       1.0  0.92817  0.69449  0.65929  1.0000
  N   N57       1.0  0.56082  0.97260  0.64406  1.0000
  H   H687      1.0  0.01591  0.93605  0.65755  1.0000
  H   H688      1.0  0.72591  0.97022  0.47009  1.0000
  H   H689      1.0  0.85109  0.92223  0.65428  1.0000
  S   S235      1.0  0.68246  0.64542  0.36118  1.0000
  H   H690      1.0  0.78493  0.52533  0.41201  1.0000
  S   S236      1.0  0.97876  0.61225  0.67908  1.0000
  Fe  Fe117     1.0  0.64308  0.60448  0.36012  1.0000
  N   N58       1.0  0.73338  0.53772  0.41683  1.0000
  H   H691      1.0  0.72227  0.99384  0.61694  1.0000
  C   C698      1.0  0.70729  0.55800  0.41161  1.0000
  C   C699      1.0  0.55244  0.91518  0.39783  1.0000
  N   N59       1.0  0.77550  0.52686  0.63922  1.0000
  C   C700      1.0  0.83421  0.94331  0.65495  1.0000
  H   H692      1.0  0.93833  0.64746  0.64603  1.0000
  C   C701      1.0  0.74309  0.58719  0.38815  1.0000
  H   H693      1.0  0.54563  0.82300  0.38170  1.0000
  C   C702      1.0  0.76599  0.93613  0.46325  1.0000
  C   C703      1.0  0.91747  0.68190  0.67728  1.0000
  C   C704      1.0  0.76433  0.99290  0.45155  1.0000
  H   H694      1.0  0.69626  0.91825  0.67364  1.0000
  H   H695      1.0  0.81722  0.54905  0.65428  1.0000
  C   C705      1.0  0.78410  0.96949  0.66766  1.0000
  C   C706      1.0  0.81036  0.95683  0.44281  1.0000
  H   H696      1.0  0.72749  0.52388  0.44731  1.0000
  H   H697      1.0  0.63689  0.93991  0.63288  1.0000
  H   H698      1.0  0.75435  0.91599  0.47162  1.0000
  C   C707      1.0  0.79371  0.51901  0.62247  1.0000
  C   C708      1.0  0.54738  0.84868  0.38639  1.0000
  H   H699      1.0  0.69125  0.59923  0.39323  1.0000
  H   H700      1.0  0.52726  0.93973  0.65960  1.0000
  H   H701      1.0  0.83075  0.89569  0.44193  1.0000
  C   C709      1.0  0.59537  0.78232  0.41832  1.0000
  H   H702      1.0  0.83378  0.95306  0.43480  1.0000
  H   H703      1.0  0.78180  0.57613  0.65013  1.0000
  H   H704      1.0  0.63908  0.99009  0.61118  1.0000
  H   H705      1.0  0.82354  0.89475  0.46880  1.0000
  H   H706      1.0  0.67002  0.97426  0.67216  1.0000
  C   C710      1.0  0.58747  0.95121  0.64455  1.0000
  H   H707      1.0  0.58624  0.91152  0.35699  1.0000
  H   H708      1.0  0.53618  0.97880  0.67198  1.0000
  H   H709      1.0  0.58716  0.92979  0.65446  1.0000
  C   C711      1.0  0.78932  0.55030  0.65390  1.0000
  H   H710      1.0  0.92326  0.65654  0.68143  1.0000
  C   C712      1.0  0.51919  0.86939  0.38475  1.0000
  C   C713      1.0  0.81903  0.99876  0.64466  1.0000
  C   C714      1.0  0.00821  0.57020  0.65143  1.0000
  C   C715      1.0  0.00954  0.60066  0.66144  1.0000
  H   H711      1.0  0.79636  0.71118  0.68170  1.0000
  C   C716      1.0  0.58998  0.00701  0.62013  1.0000
  Fe  Fe118     1.0  0.74618  0.61499  0.91828  1.0000
  S   S237      1.0  0.70968  0.59359  0.94058  1.0000
  S   S238      1.0  0.79724  0.59481  0.90963  1.0000
  Fe  Fe119     1.0  0.70332  0.67729  0.91087  1.0000
  S   S239      1.0  0.66343  0.66123  0.93270  1.0000
  S   S240      1.0  0.70636  0.72436  0.89229  1.0000
  Fe  Fe120     1.0  0.70662  0.64571  0.95265  1.0000
  S   S241      1.0  0.71076  0.66291  0.98497  1.0000
  Fe  Fe121     1.0  0.66983  0.61076  0.91874  1.0000
  S   S242      1.0  0.62934  0.57659  0.90661  1.0000
  S   S243      1.0  0.74579  0.66605  0.93172  1.0000
  S   S244      1.0  0.70709  0.62792  0.89553  1.0000
  Fe  Fe122     1.0  0.58557  0.86449  0.85981  1.0000
  S   S245      1.0  0.58866  0.90377  0.88353  1.0000
  S   S246      1.0  0.57928  0.81128  0.87048  1.0000
  Fe  Fe123     1.0  0.58411  0.91643  0.82566  1.0000
  S   S247      1.0  0.58638  0.95949  0.84700  1.0000
  S   S248      1.0  0.58389  0.91951  0.79160  1.0000
  Fe  Fe124     1.0  0.62547  0.92932  0.86308  1.0000
  Fe  Fe125     1.0  0.54916  0.92969  0.86550  1.0000
  S   S249      1.0  0.62557  0.88773  0.84061  1.0000
  S   S250      1.0  0.54373  0.88903  0.84284  1.0000
  H   H712      1.0  0.58753  0.75663  0.89767  1.0000
  Fe  Fe126     1.0  0.88913  0.55325  0.71947  1.0000
  H   H713      1.0  0.74663  0.83660  0.89507  1.0000
  S   S251      1.0  0.90073  0.60536  0.70944  1.0000
  H   H714      1.0  0.00307  0.98131  0.92953  1.0000
  H   H715      1.0  0.66098  0.79534  0.92543  1.0000
  C   C717      1.0  0.77969  0.52846  0.91247  1.0000
  C   C718      1.0  0.72112  0.83906  0.90062  1.0000
  H   H716      1.0  0.57318  0.54341  0.88877  1.0000
  C   C719      1.0  0.58967  0.95653  0.77750  1.0000
  C   C720      1.0  0.59309  0.95440  0.75655  1.0000
  C   C721      1.0  0.57247  0.65138  0.86283  1.0000
  C   C722      1.0  0.80580  0.65344  0.97589  1.0000
  H   H717      1.0  0.65596  0.89299  0.90068  1.0000
  H   H718      1.0  0.57210  0.62538  0.86715  1.0000
  H   H719      1.0  0.59068  0.93046  0.74931  1.0000
  H   H720      1.0  0.65121  0.00449  0.84612  1.0000
  S   S252      1.0  0.67795  0.94627  0.87137  1.0000
  H   H721      1.0  0.75646  0.54877  0.87120  1.0000
  H   H722      1.0  0.00390  0.52006  0.82543  1.0000
  H   H723      1.0  0.81727  0.67519  0.00458  1.0000
  H   H724      1.0  0.84316  0.57396  0.94445  1.0000
  C   C723      1.0  0.73458  0.64247  0.00362  1.0000
  H   H725      1.0  0.74020  0.59653  0.98753  1.0000
  H   H726      1.0  0.85327  0.57621  0.99493  1.0000
  H   H727      1.0  0.80356  0.55959  0.82308  1.0000
  C   C724      1.0  0.53103  0.57687  0.89053  1.0000
  C   C725      1.0  0.80385  0.55187  0.90658  1.0000
  C   C726      1.0  0.70294  0.86799  0.89686  1.0000
  H   H728      1.0  0.90109  0.53137  0.79474  1.0000
  H   H729      1.0  0.79727  0.62477  0.94925  1.0000
  H   H730      1.0  0.65549  0.66504  0.86444  1.0000
  H   H731      1.0  0.75637  0.53657  0.91922  1.0000
  C   C727      1.0  0.58701  0.58880  0.90384  1.0000
  C   C728      1.0  0.56454  0.56738  0.89396  1.0000
  H   H732      1.0  0.60331  0.83901  0.90824  1.0000
  S   S253      1.0  0.89426  0.54654  0.75323  1.0000
  C   C729      1.0  0.83398  0.54106  0.89784  1.0000
  C   C730      1.0  0.57560  0.61968  0.91055  1.0000
  H   H733      1.0  0.80209  0.56089  0.95279  1.0000
  H   H734      1.0  0.77544  0.57013  0.01385  1.0000
  H   H735      1.0  0.66317  0.92328  0.79569  1.0000
  H   H736      1.0  0.59257  0.63627  0.91832  1.0000
  C   C731      1.0  0.61504  0.78835  0.87727  1.0000
  C   C732      1.0  0.64632  0.79508  0.86861  1.0000
  C   C733      1.0  0.67398  0.77491  0.87319  1.0000
  C   C734      1.0  0.67073  0.74838  0.88676  1.0000
  C   C735      1.0  0.63960  0.74207  0.89580  1.0000
  C   C736      1.0  0.61176  0.76192  0.89094  1.0000
  H   H737      1.0  0.64901  0.81530  0.85798  1.0000
  H   H738      1.0  0.69806  0.77992  0.86619  1.0000
  H   H739      1.0  0.63691  0.72180  0.90638  1.0000
  Fe  Fe127     1.0  0.85693  0.60108  0.68873  1.0000
  H   H740      1.0  0.79117  0.67452  0.97076  1.0000
  C   C737      1.0  0.66985  0.87042  0.90380  1.0000
  S   S254      1.0  0.84191  0.55084  0.70088  1.0000
  H   H741      1.0  0.53344  0.65316  0.91229  1.0000
  C   C738      1.0  0.71792  0.99338  0.88903  1.0000
  H   H742      1.0  0.75621  0.57272  0.84851  1.0000
  C   C739      1.0  0.82049  0.65383  0.99486  1.0000
  H   H743      1.0  0.60412  0.98066  0.72893  1.0000
  C   C740      1.0  0.66811  0.96538  0.81553  1.0000
  H   H744      1.0  0.61354  0.87320  0.92465  1.0000
  H   H745      1.0  0.84861  0.62570  0.01662  1.0000
  N   N60       1.0  0.65527  0.84478  0.91423  1.0000
  H   H746      1.0  0.85280  0.55909  0.89330  1.0000
  H   H747      1.0  0.62562  0.71598  0.85780  1.0000
  C   C741      1.0  0.57261  0.71802  0.85218  1.0000
  N   N61       1.0  0.60189  0.66910  0.86313  1.0000
  C   C742      1.0  0.65822  0.99925  0.89493  1.0000
  H   H748      1.0  0.61490  0.83141  0.93395  1.0000
  N   N62       1.0  0.82557  0.59772  0.97079  1.0000
  C   C743      1.0  0.59269  0.98762  0.78670  1.0000
  C   C744      1.0  0.84030  0.59796  0.98932  1.0000
  C   C745      1.0  0.54204  0.62914  0.90718  1.0000
  H   H749      1.0  0.57297  0.74434  0.84840  1.0000
  H   H750      1.0  0.58990  0.98967  0.80277  1.0000
  C   C746      1.0  0.80883  0.62508  0.96394  1.0000
  C   C747      1.0  0.82764  0.56828  0.95793  1.0000
  H   H751      1.0  0.88814  0.69037  0.70402  1.0000
  S   S255      1.0  0.92282  0.53034  0.69615  1.0000
  C   C748      1.0  0.60057  0.98283  0.74495  1.0000
  C   C749      1.0  0.67283  0.81621  0.91783  1.0000
  C   C750      1.0  0.83808  0.62604  0.00160  1.0000
  C   C751      1.0  0.70609  0.81303  0.91126  1.0000
  N   N63       1.0  0.78590  0.52884  0.84703  1.0000
  H   H752      1.0  0.98027  0.51560  0.79302  1.0000
  H   H753      1.0  0.66398  0.95050  0.82888  1.0000
  H   H754      1.0  0.67216  0.95714  0.76490  1.0000
  H   H755      1.0  0.73865  0.98016  0.88226  1.0000
  H   H756      1.0  0.83875  0.54662  0.96581  1.0000
  C   C752      1.0  0.63244  0.65365  0.87102  1.0000
  C   C753      1.0  0.74635  0.61003  0.00106  1.0000
  C   C754      1.0  0.60232  0.70189  0.85763  1.0000
  C   C755      1.0  0.62008  0.84722  0.92061  1.0000
  H   H757      1.0  0.71964  0.79000  0.91377  1.0000
  H   H758      1.0  0.79307  0.57246  0.86439  1.0000
  H   H759      1.0  0.82743  0.51276  0.80377  1.0000
  H   H760      1.0  0.71418  0.88839  0.88847  1.0000
  C   C756      1.0  0.68486  0.98200  0.88615  1.0000
  C   C757      1.0  0.54228  0.66666  0.85746  1.0000
  C   C758      1.0  0.76620  0.59512  0.01602  1.0000
  C   C759      1.0  0.67341  0.96874  0.77955  1.0000
  C   C760      1.0  0.80162  0.53455  0.82907  1.0000
  C   C761      1.0  0.77221  0.55701  0.85829  1.0000
  C   C762      1.0  0.66829  0.94975  0.79682  1.0000
  H   H761      1.0  0.63331  0.65690  0.88756  1.0000
  H   H762      1.0  0.63297  0.62651  0.86784  1.0000
  S   S256      1.0  0.82091  0.64432  0.68579  1.0000
  C   C763      1.0  0.89794  0.70112  0.69024  1.0000
  C   C764      1.0  0.01444  0.00530  0.93264  1.0000
  H   H763      1.0  0.63264  0.99074  0.89277  1.0000
  C   C765      1.0  0.54239  0.70027  0.85223  1.0000
  C   C766      1.0  0.67843  0.00298  0.78116  1.0000
  N   N64       1.0  0.67237  0.99906  0.81697  1.0000
  C   C767      1.0  0.51972  0.60786  0.89704  1.0000
  H   H764      1.0  0.87391  0.74848  0.69447  1.0000
  H   H765      1.0  0.69613  0.00959  0.84468  1.0000
  H   H766      1.0  0.51891  0.65258  0.85782  1.0000
  H   H767      1.0  0.51910  0.71263  0.84838  1.0000
  H   H768      1.0  0.95562  0.85953  0.68491  1.0000
  Fe  Fe128     1.0  0.93110  0.58248  0.68477  1.0000
  C   C768      1.0  0.88998  0.73369  0.68487  1.0000
