data_image0
_chemical_formula_structural       FeS2FeS2FeSFeS3FeS2FeSCFeHFeS3CFeS2FeS2CHCHC6H4CH2C4H3C6H4C6H4C2HC3NHCHCH2CHCHCH4SCH2NC5H2CHCHCH4C2SNC6H9FeHNC4SHCH2CH3C2H2CHFeSFeS2FeS2FeSFeS3FeS2FeCHFeHFeS3C6H4C6H5CNHC7H5C4SH6C2H5NC6H8SNHCHSH2C3HCH4C5NC7H2C3H2SCH4CH4NH5SC2HFeS2FeS2FeSFeS3FeS2FeS2FeHFeS3CFeS2FeS2H2CHC6H5SHCH2C2H2C6H4CHC5H3C2HNC2H2SHCN2C2H4C4HCHC2NC5H5NC5H3CHC2HCH3CHCHCFeHCH3CH2CNCNCHCH2CH3CHCHNC2H3C2H3CH3C4H2CHSCHNSFeS2FeS2FeSFeS3FeS2FeSHFeCFeS3C6H4C6H5C2H2C6H4C2HC2H3C2H2SH4CH4CHNC2HC2H3C2HCHC4H2C2H3CH5C4HSCNH3CNCNC6H3C2H2C2HFeH2CH2CFeS2FeS2FeSFeS3C3SHC2H3NC6H8CHC2H3SC2SCFeS2FeS2FeHFeS3FeCH2CHCHC2HC7H9CHNHCH3C2H2C2H2NCNHC2HC3HFeC4H2CSCH2CHC2H2NH3CH3C3H2SCH2C2HFeNSC2FeS2NFeS2FeSCFeSFeCSC2H4CFeSCHCSCHC5H4SHC5H2CFeS2CHFeSCSFeCHFeS2FeHFeS3C4HCH2C5SCH4C3H2C4H11CHCHNHSCHCH2CHC4SHCH3CH3NC4HC2H2CSFeSHCH2C2H3SFeSCHCHCHCH2C4HCFeS2FeS2FeSFeS3CNHSNHCHCH2C6H4C2SHCHC2H3SCFeSHFeS2FeS2FeHFeS3CH2C2HCH4C7H5C3HCHC3NH2CHC3HC2NCHC2HFeC2H12CHC2NHSHC3HC4H2NCHCHCHCH2C2NC2H3CH2FeHSFeHFeS2HFeS2FeSCFeSFeHSHCH3SC4SCHSC5SCH3CH2C4HC2FeS2FeSFeSCSFeCHFeHSFeCFeS3C3H2CH3C6H2NHCH3CNC2HCH3CSH3SCHC2H4CSCH2NC6H3C2H2C2SH3CH2SC2H2CNS2HCHC2SCSCNCH2SC2H2CH2FeS2HCS2FeSHFeS2FeSFeS3FeS2FeS2FeSFeS3C3H4CNC3HCH3C6H4C2HSC2HCH2CHC6H4C6H3CH4NCSHCHC4HCH2C2H3CNSH2CH2CHC3H2FeNC2HC4HCH10NHSHFeH2CHCH2C3HC3HC6HFeS2FeS2FeSFeS3FeS2FeSHFeHFeS3HSC3H3C6HCH2C3H2CH2C8H4CH2C4HCH2NCHSHCNC6H10NHSC2H2CH2NH3CH4NCHC2NHCH3C2H2CHCHC6HCHC2H2C3HNH3CHCFeHSHC2SFeSHFeS2FeSFeHS2FeS2FeS2FeSFeS3C3H5C3H2CH3C6H4CH9CHC6H4C6H3C3H2FeCNCHCHC3HCH2CH3CNC2NC6H9SNCFeS2HCHC2HCHS2HC2HSCH2C2FeS2FeS2FeSFeS3FeS2FeSCFeSFeS3HSHC3H2C6H4C4HCH2CHC6H5NHC3H3CH2C5H3CHC5FeH2CHCHCSH3C3H3C2HCHCHCH2N2C6H8CHCHNHNH2CH5CH5C4
_chemical_formula_sum              "Fe128 S256 C768 H768 N64"
_cell_length_a       45.0469
_cell_length_b       44.8357
_cell_length_c       36.3784
_cell_angle_alpha    89.5681
_cell_angle_beta     90.216
_cell_angle_gamma    90.0451

_space_group_name_H-M_alt    "P 1"
_space_group_IT_number       1

loop_
  _space_group_symop_operation_xyz
  'x, y, z'

loop_
  _atom_site_type_symbol
  _atom_site_label
  _atom_site_symmetry_multiplicity
  _atom_site_fract_x
  _atom_site_fract_y
  _atom_site_fract_z
  _atom_site_occupancy
  Fe  Fe1       1.0  0.21054  0.37685  0.27844  1.0000
  S   S1        1.0  0.17470  0.35138  0.30801  1.0000
  S   S2        1.0  0.24362  0.40611  0.30853  1.0000
  Fe  Fe2       1.0  0.18792  0.35842  0.20203  1.0000
  S   S3        1.0  0.15040  0.33124  0.22523  1.0000
  S   S4        1.0  0.20155  0.36465  0.14254  1.0000
  Fe  Fe3       1.0  0.14390  0.36921  0.26450  1.0000
  S   S5        1.0  0.10010  0.39223  0.27526  1.0000
  Fe  Fe4       1.0  0.18414  0.31560  0.26680  1.0000
  S   S6        1.0  0.18588  0.26685  0.28235  1.0000
  S   S7        1.0  0.17901  0.39785  0.23802  1.0000
  S   S8        1.0  0.22232  0.33968  0.24040  1.0000
  Fe  Fe5       1.0  0.06336  0.08827  0.45334  1.0000
  S   S9        1.0  0.10085  0.06953  0.42009  1.0000
  S   S10       1.0  0.04802  0.07142  0.50886  1.0000
  Fe  Fe6       1.0  0.03879  0.12447  0.38828  1.0000
  S   S11       1.0  0.07383  0.10876  0.34931  1.0000
  C   C1        1.0  0.32359  0.39228  0.35794  1.0000
  Fe  Fe7       1.0  0.06664  0.06397  0.37575  1.0000
  H   H1        1.0  0.05870  0.02096  0.45973  1.0000
  Fe  Fe8       1.0  0.10509  0.11596  0.39667  1.0000
  S   S12       1.0  0.14777  0.14141  0.38790  1.0000
  S   S13       1.0  0.02891  0.07902  0.41053  1.0000
  S   S14       1.0  0.07041  0.13541  0.43399  1.0000
  C   C2        1.0  0.18357  0.49825  0.30414  1.0000
  Fe  Fe9       1.0  0.28472  0.11148  0.26733  1.0000
  S   S15       1.0  0.31208  0.13761  0.30743  1.0000
  S   S16       1.0  0.24346  0.08512  0.28143  1.0000
  Fe  Fe10      1.0  0.31807  0.16931  0.25995  1.0000
  S   S17       1.0  0.31663  0.21872  0.26890  1.0000
  S   S18       1.0  0.28742  0.14515  0.22134  1.0000
  C   C3        1.0  0.30799  0.49294  0.29509  1.0000
  H   H2        1.0  0.19614  0.45179  0.30195  1.0000
  C   C4        1.0  0.03195  0.48148  0.35351  1.0000
  H   H3        1.0  0.10361  0.10388  0.51627  1.0000
  C   C5        1.0  0.17395  0.12590  0.35765  1.0000
  C   C6        1.0  0.20054  0.14123  0.35061  1.0000
  C   C7        1.0  0.22188  0.12917  0.32682  1.0000
  C   C8        1.0  0.21672  0.10165  0.31010  1.0000
  C   C9        1.0  0.18995  0.08655  0.31674  1.0000
  C   C10       1.0  0.16855  0.09866  0.34039  1.0000
  H   H4        1.0  0.20477  0.16234  0.36383  1.0000
  H   H5        1.0  0.24240  0.14100  0.32174  1.0000
  H   H6        1.0  0.18577  0.06548  0.30340  1.0000
  H   H7        1.0  0.14795  0.08693  0.34537  1.0000
  C   C11       1.0  0.07068  0.07954  0.54708  1.0000
  H   H8        1.0  0.24837  0.22251  0.19924  1.0000
  H   H9        1.0  0.04923  0.46505  0.35764  1.0000
  C   C12       1.0  0.18305  0.34618  0.10633  1.0000
  C   C13       1.0  0.19070  0.35296  0.06980  1.0000
  C   C14       1.0  0.14831  0.30902  0.08387  1.0000
  C   C15       1.0  0.16167  0.32425  0.11327  1.0000
  H   H10       1.0  0.20624  0.50639  0.30567  1.0000
  H   H11       1.0  0.13184  0.29200  0.08940  1.0000
  H   H12       1.0  0.15537  0.31902  0.14122  1.0000
  C   C16       1.0  0.22232  0.25317  0.28239  1.0000
  C   C17       1.0  0.24639  0.27280  0.28361  1.0000
  C   C18       1.0  0.27538  0.26206  0.27978  1.0000
  C   C19       1.0  0.28038  0.23153  0.27540  1.0000
  C   C20       1.0  0.25646  0.21161  0.27625  1.0000
  C   C21       1.0  0.22740  0.22245  0.27968  1.0000
  H   H13       1.0  0.24277  0.29627  0.28785  1.0000
  H   H14       1.0  0.29389  0.27747  0.28001  1.0000
  H   H15       1.0  0.26026  0.18790  0.27378  1.0000
  H   H16       1.0  0.20890  0.20704  0.27935  1.0000
  C   C22       1.0  0.02588  0.35726  0.35032  1.0000
  C   C23       1.0  0.02285  0.38424  0.33123  1.0000
  C   C24       1.0  0.04582  0.39459  0.30842  1.0000
  C   C25       1.0  0.07205  0.37806  0.30445  1.0000
  C   C26       1.0  0.07524  0.35106  0.32366  1.0000
  C   C27       1.0  0.05212  0.34067  0.34649  1.0000
  H   H17       1.0  0.31410  0.30443  0.38240  1.0000
  H   H18       1.0  0.04307  0.41539  0.29354  1.0000
  H   H19       1.0  0.09550  0.33836  0.32100  1.0000
  H   H20       1.0  0.05465  0.31997  0.36159  1.0000
  C   C28       1.0  0.27702  0.38920  0.32348  1.0000
  C   C29       1.0  0.29683  0.40529  0.34570  1.0000
  H   H21       1.0  0.07832  0.48419  0.29996  1.0000
  C   C30       1.0  0.30209  0.28379  0.37793  1.0000
  C   C31       1.0  0.31089  0.34706  0.32562  1.0000
  C   C32       1.0  0.28420  0.36005  0.31344  1.0000
  N   N1        1.0  0.12548  0.47748  0.29982  1.0000
  H   H22       1.0  0.28200  0.04054  0.32234  1.0000
  C   C33       1.0  0.33161  0.47591  0.30855  1.0000
  H   H23       1.0  0.26923  0.34750  0.29622  1.0000
  C   C34       1.0  0.09692  0.09590  0.54314  1.0000
  H   H24       1.0  0.18711  0.24081  0.15955  1.0000
  H   H25       1.0  0.23179  0.25628  0.38125  1.0000
  C   C35       1.0  0.34100  0.16006  0.11506  1.0000
  H   H26       1.0  0.12160  0.02653  0.31599  1.0000
  C   C36       1.0  0.09505  0.46631  0.29623  1.0000
  H   H27       1.0  0.31633  0.32461  0.31738  1.0000
  C   C37       1.0  0.03846  0.51190  0.35636  1.0000
  H   H28       1.0  0.03997  0.25337  0.35678  1.0000
  H   H29       1.0  0.06964  0.48526  0.45677  1.0000
  H   H30       1.0  0.25678  0.32681  0.15543  1.0000
  H   H31       1.0  0.16647  0.03073  0.35500  1.0000
  S   S19       1.0  0.06222  0.02018  0.34690  1.0000
  C   C38       1.0  0.04851  0.49629  0.46081  1.0000
  H   H32       1.0  0.20714  0.37001  0.06427  1.0000
  H   H33       1.0  0.33751  0.16896  0.14225  1.0000
  N   N2        1.0  0.22515  0.26178  0.18213  1.0000
  C   C39       1.0  0.25011  0.24540  0.18961  1.0000
  C   C40       1.0  0.22748  0.29037  0.16917  1.0000
  C   C41       1.0  0.27831  0.25816  0.18589  1.0000
  C   C42       1.0  0.25529  0.30381  0.16493  1.0000
  C   C43       1.0  0.28084  0.28764  0.17373  1.0000
  H   H34       1.0  0.25883  0.21080  0.36151  1.0000
  H   H35       1.0  0.28221  0.02970  0.27484  1.0000
  C   C44       1.0  0.30152  0.23280  0.36086  1.0000
  H   H36       1.0  0.29800  0.24536  0.19308  1.0000
  C   C45       1.0  0.27140  0.28326  0.38360  1.0000
  H   H37       1.0  0.30254  0.29796  0.17126  1.0000
  C   C46       1.0  0.13080  0.50747  0.30209  1.0000
  H   H38       1.0  0.14428  0.43388  0.29798  1.0000
  H   H39       1.0  0.31292  0.21326  0.35053  1.0000
  H   H40       1.0  0.19615  0.22933  0.20620  1.0000
  H   H41       1.0  0.29120  0.42768  0.35402  1.0000
  C   C47       1.0  0.19565  0.24845  0.18657  1.0000
  C   C48       1.0  0.14855  0.45765  0.29982  1.0000
  S   S20       1.0  0.32364  0.08521  0.24720  1.0000
  N   N3        1.0  0.11492  0.21561  0.33458  1.0000
  C   C49       1.0  0.09387  0.20033  0.35418  1.0000
  C   C50       1.0  0.10984  0.24440  0.32344  1.0000
  C   C51       1.0  0.06658  0.21359  0.36230  1.0000
  C   C52       1.0  0.08278  0.25834  0.33102  1.0000
  C   C53       1.0  0.06103  0.24279  0.35058  1.0000
  C   C54       1.0  0.14351  0.20139  0.32700  1.0000
  H   H42       1.0  0.09814  0.17773  0.36368  1.0000
  H   H43       1.0  0.12672  0.25680  0.30856  1.0000
  H   H44       1.0  0.04985  0.20129  0.37763  1.0000
  H   H45       1.0  0.07877  0.28108  0.32183  1.0000
  H   H46       1.0  0.25987  0.30339  0.39175  1.0000
  H   H47       1.0  0.15524  0.21244  0.30380  1.0000
  H   H48       1.0  0.15790  0.20229  0.35185  1.0000
  H   H49       1.0  0.14035  0.17760  0.31947  1.0000
  H   H50       1.0  0.20774  0.30317  0.16268  1.0000
  Fe  Fe11      1.0  0.32876  0.12104  0.20432  1.0000
  H   H51       1.0  0.17990  0.26500  0.19817  1.0000
  N   N4        1.0  0.31667  0.25887  0.36623  1.0000
  C   C55       1.0  0.33055  0.36297  0.34823  1.0000
  C   C56       1.0  0.27087  0.23131  0.36684  1.0000
  C   C57       1.0  0.33792  0.02441  0.31848  1.0000
  C   C58       1.0  0.25571  0.25684  0.37784  1.0000
  S   S21       1.0  0.33925  0.10411  0.14747  1.0000
  H   H52       1.0  0.33839  0.40459  0.37573  1.0000
  C   C59       1.0  0.17793  0.46769  0.30204  1.0000
  H   H53       1.0  0.09174  0.45644  0.26858  1.0000
  H   H54       1.0  0.32953  0.45185  0.31098  1.0000
  C   C60       1.0  0.02321  0.48460  0.44383  1.0000
  H   H55       1.0  0.09076  0.44873  0.31727  1.0000
  H   H56       1.0  0.33524  0.04803  0.32406  1.0000
  H   H57       1.0  0.28731  0.48215  0.28730  1.0000
  C   C61       1.0  0.28486  0.02131  0.30351  1.0000
  C   C62       1.0  0.34249  0.12920  0.11007  1.0000
  H   H58       1.0  0.34331  0.20330  0.08875  1.0000
  H   H59       1.0  0.02476  0.46452  0.42753  1.0000
  C   C63       1.0  0.34427  0.17945  0.08474  1.0000
  H   H60       1.0  0.18271  0.34374  0.01232  1.0000
  Fe  Fe12      1.0  0.31996  0.16861  0.88485  1.0000
  S   S22       1.0  0.27302  0.17012  0.86313  1.0000
  Fe  Fe13      1.0  0.18316  0.30915  0.88483  1.0000
  S   S23       1.0  0.15998  0.27217  0.91483  1.0000
  S   S24       1.0  0.23038  0.30394  0.86607  1.0000
  Fe  Fe14      1.0  0.12987  0.34985  0.88636  1.0000
  S   S25       1.0  0.10214  0.31586  0.91634  1.0000
  S   S26       1.0  0.10645  0.39269  0.87064  1.0000
  Fe  Fe15      1.0  0.14274  0.30824  0.95132  1.0000
  S   S27       1.0  0.13890  0.29562  0.01150  1.0000
  Fe  Fe16      1.0  0.12177  0.28281  0.87748  1.0000
  S   S28       1.0  0.09321  0.24957  0.84711  1.0000
  S   S29       1.0  0.16919  0.34484  0.92440  1.0000
  S   S30       1.0  0.14626  0.31734  0.84455  1.0000
  Fe  Fe17      1.0  0.12182  0.09205  0.78346  1.0000
  S   S31       1.0  0.15057  0.06849  0.74303  1.0000
  S   S32       1.0  0.14520  0.12005  0.82551  1.0000
  Fe  Fe18      1.0  0.06618  0.06357  0.75394  1.0000
  C   C64       1.0  0.04474  0.50502  0.77922  1.0000
  H   H61       1.0  0.20094  0.28456  0.98129  1.0000
  Fe  Fe19      1.0  0.12299  0.02821  0.75630  1.0000
  H   H62       1.0  0.03629  0.39625  0.82832  1.0000
  Fe  Fe20      1.0  0.11524  0.07972  0.70164  1.0000
  S   S33       1.0  0.12876  0.09998  0.64748  1.0000
  S   S34       1.0  0.09683  0.05099  0.80021  1.0000
  S   S35       1.0  0.08873  0.10695  0.74107  1.0000
  C   C65       1.0  0.12481  0.41951  0.84342  1.0000
  C   C66       1.0  0.11047  0.44659  0.83560  1.0000
  C   C67       1.0  0.12407  0.46819  0.81315  1.0000
  C   C68       1.0  0.15201  0.46272  0.79810  1.0000
  C   C69       1.0  0.16647  0.43569  0.80600  1.0000
  C   C70       1.0  0.15292  0.41410  0.82867  1.0000
  H   H63       1.0  0.08877  0.45092  0.84704  1.0000
  H   H64       1.0  0.11280  0.48894  0.80729  1.0000
  H   H65       1.0  0.18808  0.43130  0.79435  1.0000
  H   H66       1.0  0.16411  0.39326  0.83462  1.0000
  C   C71       1.0  0.10690  0.21301  0.84350  1.0000
  C   C72       1.0  0.09116  0.19226  0.82237  1.0000
  C   C73       1.0  0.10250  0.16346  0.81719  1.0000
  C   C74       1.0  0.12958  0.15529  0.83323  1.0000
  C   C75       1.0  0.14502  0.17581  0.85493  1.0000
  C   C76       1.0  0.13383  0.20469  0.85981  1.0000
  H   H67       1.0  0.07034  0.19863  0.80965  1.0000
  H   H68       1.0  0.09025  0.14765  0.80089  1.0000
  H   H69       1.0  0.16586  0.16949  0.86762  1.0000
  H   H70       1.0  0.14610  0.22043  0.87611  1.0000
  H   H71       1.0  0.30090  0.32804  0.82958  1.0000
  C   C77       1.0  0.32480  0.34940  0.71402  1.0000
  N   N5        1.0  0.30748  0.32977  0.77177  1.0000
  H   H72       1.0  0.05052  0.45847  0.79265  1.0000
  C   C78       1.0  0.10026  0.42531  0.74139  1.0000
  C   C79       1.0  0.26089  0.20720  0.85905  1.0000
  C   C80       1.0  0.28142  0.23050  0.85659  1.0000
  C   C81       1.0  0.27186  0.26019  0.85812  1.0000
  C   C82       1.0  0.24161  0.26671  0.86110  1.0000
  C   C83       1.0  0.22087  0.24344  0.86093  1.0000
  C   C84       1.0  0.23052  0.21367  0.86024  1.0000
  H   H73       1.0  0.30475  0.22572  0.85361  1.0000
  H   H74       1.0  0.28804  0.27802  0.85786  1.0000
  H   H75       1.0  0.19746  0.24831  0.86171  1.0000
  H   H76       1.0  0.21452  0.19571  0.86173  1.0000
  H   H77       1.0  0.23211  0.12107  0.87474  1.0000
  C   C85       1.0  0.17695  0.33808  0.04035  1.0000
  C   C86       1.0  0.06220  0.06933  0.58207  1.0000
  C   C87       1.0  0.07989  0.07548  0.61303  1.0000
  C   C88       1.0  0.10617  0.09184  0.60912  1.0000
  S   S36       1.0  0.09004  0.03718  0.71097  1.0000
  H   H78       1.0  0.04189  0.05674  0.58526  1.0000
  H   H79       1.0  0.07314  0.06775  0.63991  1.0000
  H   H80       1.0  0.27753  0.28636  0.00690  1.0000
  H   H81       1.0  0.29069  0.36947  0.74651  1.0000
  H   H82       1.0  0.22433  0.30259  0.94730  1.0000
  H   H83       1.0  0.23501  0.49956  0.75592  1.0000
  C   C89       1.0  0.30599  0.35092  0.74449  1.0000
  C   C90       1.0  0.24966  0.06977  0.81007  1.0000
  H   H84       1.0  0.16954  0.03092  0.81087  1.0000
  H   H85       1.0  0.27015  0.31456  0.80216  1.0000
  H   H86       1.0  0.22128  0.03348  0.79397  1.0000
  H   H87       1.0  0.29558  0.19670  0.97342  1.0000
  H   H88       1.0  0.17783  0.02366  0.85859  1.0000
  N   N6        1.0  0.15313  0.20841  0.76175  1.0000
  C   C91       1.0  0.14085  0.18857  0.73763  1.0000
  C   C92       1.0  0.17873  0.20143  0.78026  1.0000
  C   C93       1.0  0.15392  0.16066  0.73209  1.0000
  C   C94       1.0  0.19221  0.17360  0.77575  1.0000
  C   C95       1.0  0.17964  0.15312  0.75151  1.0000
  C   C96       1.0  0.13959  0.23790  0.76627  1.0000
  H   H89       1.0  0.12071  0.19417  0.72267  1.0000
  H   H90       1.0  0.18856  0.21721  0.79919  1.0000
  H   H91       1.0  0.14408  0.14488  0.71301  1.0000
  H   H92       1.0  0.21201  0.16785  0.79137  1.0000
  H   H93       1.0  0.18954  0.13127  0.74812  1.0000
  H   H94       1.0  0.11495  0.23625  0.76623  1.0000
  H   H95       1.0  0.14580  0.24797  0.79312  1.0000
  H   H96       1.0  0.14678  0.25311  0.74381  1.0000
  S   S37       1.0  0.16852  0.48859  0.76777  1.0000
  N   N7        1.0  0.04778  0.44456  0.70853  1.0000
  H   H97       1.0  0.21477  0.24013  0.94060  1.0000
  C   C97       1.0  0.25276  0.09451  0.83286  1.0000
  H   H98       1.0  0.12061  0.41803  0.75476  1.0000
  S   S38       1.0  0.33350  0.13675  0.92986  1.0000
  H   H99       1.0  0.07164  0.48393  0.69371  1.0000
  H   H100      1.0  0.24771  0.19592  0.93925  1.0000
  C   C98       1.0  0.22996  0.10182  0.85700  1.0000
  C   C99       1.0  0.03476  0.47577  0.78542  1.0000
  C   C100      1.0  0.24745  0.49654  0.78216  1.0000
  H   H101      1.0  0.23481  0.48066  0.79978  1.0000
  C   C101      1.0  0.11459  0.10206  0.57413  1.0000
  H   H102      1.0  0.32401  0.36649  0.69269  1.0000
  H   H103      1.0  0.26737  0.06378  0.79138  1.0000
  H   H104      1.0  0.18665  0.09018  0.87685  1.0000
  H   H105      1.0  0.13487  0.11476  0.57095  1.0000
  C   C102      1.0  0.07254  0.46222  0.70703  1.0000
  C   C103      1.0  0.20433  0.08421  0.85810  1.0000
  C   C104      1.0  0.28796  0.33164  0.80384  1.0000
  C   C105      1.0  0.32685  0.30641  0.76910  1.0000
  C   C106      1.0  0.15578  0.31595  0.04734  1.0000
  N   N8        1.0  0.24385  0.26550  0.97457  1.0000
  C   C107      1.0  0.27064  0.26645  0.99244  1.0000
  C   C108      1.0  0.23566  0.24063  0.95546  1.0000
  C   C109      1.0  0.28957  0.24170  0.99238  1.0000
  C   C110      1.0  0.25412  0.21554  0.95468  1.0000
  C   C111      1.0  0.28109  0.21605  0.97358  1.0000
  C   C112      1.0  0.22408  0.29147  0.97472  1.0000
  C   C113      1.0  0.03252  0.38896  0.85715  1.0000
  H   H106      1.0  0.15486  0.05505  0.84512  1.0000
  H   H107      1.0  0.11861  0.46716  0.72286  1.0000
  C   C114      1.0  0.07502  0.40732  0.74252  1.0000
  C   C115      1.0  0.17461  0.04154  0.83768  1.0000
  C   C116      1.0  0.09912  0.45290  0.72347  1.0000
  H   H108      1.0  0.02925  0.40320  0.72676  1.0000
  H   H109      1.0  0.07562  0.38609  0.75701  1.0000
  S   S39       1.0  0.01675  0.06248  0.76006  1.0000
  C   C117      1.0  0.04889  0.41718  0.72543  1.0000
  H   H110      1.0  0.27752  0.35397  0.80630  1.0000
  H   H111      1.0  0.31079  0.24231  0.00665  1.0000
  H   H112      1.0  0.02114  0.45149  0.66101  1.0000
  H   H113      1.0  0.02768  0.03438  0.67687  1.0000
  C   C118      1.0  0.22359  0.05273  0.81171  1.0000
  H   H114      1.0  0.23067  0.30809  0.99574  1.0000
  H   H115      1.0  0.26934  0.48644  0.77559  1.0000
  H   H116      1.0  0.32801  0.28967  0.79078  1.0000
  H   H117      1.0  0.27280  0.10803  0.83199  1.0000
  N   N9        1.0  0.20126  0.06025  0.83530  1.0000
  H   H118      1.0  0.04562  0.36836  0.86264  1.0000
  H   H119      1.0  0.04161  0.40634  0.87574  1.0000
  H   H120      1.0  0.02648  0.10954  0.81981  1.0000
  H   H121      1.0  0.06806  0.51028  0.78185  1.0000
  H   H122      1.0  0.01563  0.16274  0.83208  1.0000
  S   S40       1.0  0.34059  0.20847  0.91147  1.0000
  C   C119      1.0  0.02017  0.45493  0.69117  1.0000
  C   C120      1.0  0.01317  0.01510  0.67882  1.0000
  H   H123      1.0  0.01656  0.47899  0.69696  1.0000
  Fe  Fe21      1.0  0.20175  0.88431  0.28287  1.0000
  S   S41       1.0  0.16384  0.85982  0.30968  1.0000
  S   S42       1.0  0.23382  0.91140  0.31710  1.0000
  Fe  Fe22      1.0  0.18318  0.86567  0.20552  1.0000
  S   S43       1.0  0.14392  0.83949  0.22544  1.0000
  S   S44       1.0  0.20005  0.87058  0.14744  1.0000
  Fe  Fe23      1.0  0.13610  0.87804  0.26336  1.0000
  S   S45       1.0  0.09141  0.90041  0.26888  1.0000
  Fe  Fe24      1.0  0.17484  0.82339  0.26995  1.0000
  S   S46       1.0  0.17634  0.77460  0.28465  1.0000
  S   S47       1.0  0.17309  0.90584  0.23973  1.0000
  S   S48       1.0  0.21476  0.84638  0.24679  1.0000
  Fe  Fe25      1.0  0.06848  0.61088  0.45287  1.0000
  S   S49       1.0  0.10755  0.58965  0.42500  1.0000
  S   S50       1.0  0.05598  0.60808  0.51298  1.0000
  Fe  Fe26      1.0  0.03894  0.62909  0.37997  1.0000
  S   S51       1.0  0.07536  0.60922  0.34624  1.0000
  S   S52       1.0  0.31528  0.59243  0.22233  1.0000
  Fe  Fe27      1.0  0.07334  0.57116  0.38630  1.0000
  H   H124      1.0  0.01397  0.72136  0.34289  1.0000
  Fe  Fe28      1.0  0.10621  0.62966  0.38735  1.0000
  S   S53       1.0  0.14468  0.65662  0.36547  1.0000
  S   S54       1.0  0.03429  0.58919  0.41683  1.0000
  S   S55       1.0  0.06992  0.65275  0.41846  1.0000
  C   C121      1.0  0.04385  0.92673  0.41314  1.0000
  Fe  Fe29      1.0  0.28244  0.61435  0.25943  1.0000
  S   S56       1.0  0.31705  0.64051  0.28965  1.0000
  S   S57       1.0  0.25035  0.58613  0.29202  1.0000
  Fe  Fe30      1.0  0.30853  0.67520  0.24605  1.0000
  S   S58       1.0  0.30550  0.72366  0.26128  1.0000
  S   S59       1.0  0.27141  0.65036  0.21846  1.0000
  H   H125      1.0  0.10458  0.96470  0.25972  1.0000
  H   H126      1.0  0.13536  0.93296  0.30625  1.0000
  C   C122      1.0  0.32014  0.89977  0.34614  1.0000
  H   H127      1.0  0.12079  0.61003  0.51366  1.0000
  C   C123      1.0  0.17205  0.63603  0.34241  1.0000
  C   C124      1.0  0.19115  0.65075  0.31792  1.0000
  C   C125      1.0  0.21498  0.63548  0.30192  1.0000
  C   C126      1.0  0.21984  0.60540  0.31038  1.0000
  C   C127      1.0  0.20052  0.59058  0.33451  1.0000
  C   C128      1.0  0.17652  0.60579  0.35032  1.0000
  H   H128      1.0  0.18783  0.67415  0.31183  1.0000
  H   H129      1.0  0.22979  0.64704  0.28340  1.0000
  H   H130      1.0  0.20445  0.56743  0.34155  1.0000
  H   H131      1.0  0.16205  0.59435  0.36947  1.0000
  H   H132      1.0  0.32042  0.85841  0.26823  1.0000
  S   S60       1.0  0.07439  0.52336  0.36857  1.0000
  H   H133      1.0  0.03155  0.96391  0.34483  1.0000
  C   C129      1.0  0.18530  0.84815  0.11236  1.0000
  H   H134      1.0  0.19650  0.98541  0.36913  1.0000
  H   H135      1.0  0.27273  0.81860  0.21938  1.0000
  C   C130      1.0  0.16377  0.82648  0.11975  1.0000
  C   C131      1.0  0.11560  0.87387  0.06155  1.0000
  H   H136      1.0  0.13473  0.79318  0.09658  1.0000
  H   H137      1.0  0.15628  0.82273  0.14758  1.0000
  C   C132      1.0  0.21228  0.76016  0.27993  1.0000
  C   C133      1.0  0.23716  0.77838  0.28488  1.0000
  C   C134      1.0  0.26575  0.76692  0.27946  1.0000
  C   C135      1.0  0.26958  0.73704  0.26970  1.0000
  C   C136      1.0  0.24473  0.71853  0.26630  1.0000
  C   C137      1.0  0.21611  0.73008  0.27126  1.0000
  H   H138      1.0  0.23449  0.80116  0.29364  1.0000
  H   H139      1.0  0.28490  0.78124  0.28293  1.0000
  H   H140      1.0  0.24743  0.69536  0.25971  1.0000
  H   H141      1.0  0.19695  0.71580  0.26778  1.0000
  C   C138      1.0  0.02479  0.87080  0.35689  1.0000
  H   H142      1.0  0.01647  0.92008  0.47750  1.0000
  C   C139      1.0  0.03816  0.90216  0.30479  1.0000
  C   C140      1.0  0.06605  0.88834  0.30272  1.0000
  C   C141      1.0  0.07324  0.86561  0.32775  1.0000
  C   C142      1.0  0.05264  0.85689  0.35477  1.0000
  C   C143      1.0  0.15158  0.80978  0.09085  1.0000
  H   H143      1.0  0.03241  0.91970  0.28544  1.0000
  H   H144      1.0  0.09468  0.85485  0.32638  1.0000
  H   H145      1.0  0.05841  0.83953  0.37434  1.0000
  C   C144      1.0  0.27111  0.89941  0.31746  1.0000
  C   C145      1.0  0.29026  0.90885  0.34558  1.0000
  H   H146      1.0  0.21025  0.71443  0.16738  1.0000
  N   N10       1.0  0.31408  0.00739  0.30820  1.0000
  C   C146      1.0  0.31202  0.87228  0.29006  1.0000
  C   C147      1.0  0.28215  0.88120  0.28964  1.0000
  H   H147      1.0  0.28188  0.92289  0.36726  1.0000
  H   H148      1.0  0.06032  0.67916  0.33665  1.0000
  S   S61       1.0  0.30133  0.62097  0.12382  1.0000
  H   H149      1.0  0.26791  0.87451  0.26732  1.0000
  C   C148      1.0  0.31120  0.52381  0.29154  1.0000
  N   N11       1.0  0.13359  0.89847  0.06281  1.0000
  N   N12       1.0  0.04661  0.52132  0.48197  1.0000
  C   C149      1.0  0.02627  0.94205  0.47377  1.0000
  C   C150      1.0  0.31916  0.64332  0.09063  1.0000
  H   H150      1.0  0.29886  0.96424  0.29201  1.0000
  H   H151      1.0  0.16393  0.54212  0.30575  1.0000
  H   H152      1.0  0.25701  0.83569  0.17855  1.0000
  H   H153      1.0  0.08203  0.96421  0.30063  1.0000
  C   C151      1.0  0.04960  0.99878  0.46397  1.0000
  C   C152      1.0  0.17664  0.98380  0.35227  1.0000
  C   C153      1.0  0.07206  0.69984  0.33120  1.0000
  C   C154      1.0  0.01753  0.89331  0.33164  1.0000
  H   H154      1.0  0.28525  0.69323  0.33517  1.0000
  C   C155      1.0  0.02018  0.53604  0.48535  1.0000
  H   H155      1.0  0.20052  0.73913  0.40496  1.0000
  C   C156      1.0  0.11440  0.72525  0.30530  1.0000
  C   C157      1.0  0.33478  0.66899  0.10054  1.0000
  N   N13       1.0  0.21918  0.70194  0.37780  1.0000
  C   C158      1.0  0.21697  0.67476  0.39496  1.0000
  C   C159      1.0  0.24385  0.70898  0.35769  1.0000
  C   C160      1.0  0.23892  0.65307  0.39013  1.0000
  C   C161      1.0  0.26622  0.68784  0.35225  1.0000
  C   C162      1.0  0.26350  0.65960  0.36827  1.0000
  H   H156      1.0  0.19752  0.66921  0.41116  1.0000
  H   H157      1.0  0.24604  0.73086  0.34511  1.0000
  H   H158      1.0  0.23631  0.63103  0.40222  1.0000
  H   H159      1.0  0.34054  0.56119  0.29839  1.0000
  H   H160      1.0  0.28021  0.64266  0.36342  1.0000
  N   N14       1.0  0.25308  0.78814  0.18231  1.0000
  C   C163      1.0  0.22309  0.78879  0.17619  1.0000
  C   C164      1.0  0.26791  0.76153  0.18365  1.0000
  C   C165      1.0  0.20725  0.76237  0.17055  1.0000
  C   C166      1.0  0.25282  0.73469  0.17785  1.0000
  C   C167      1.0  0.22228  0.73515  0.17136  1.0000
  H   H161      1.0  0.06363  0.93076  0.39560  1.0000
  H   H162      1.0  0.21121  0.80981  0.17573  1.0000
  H   H163      1.0  0.29148  0.76084  0.18997  1.0000
  C   C168      1.0  0.05230  0.97713  0.43672  1.0000
  H   H164      1.0  0.26467  0.71364  0.17936  1.0000
  C   C169      1.0  0.16768  0.95622  0.33861  1.0000
  C   C170      1.0  0.19469  0.85291  0.07608  1.0000
  H   H165      1.0  0.06333  0.98297  0.41120  1.0000
  C   C171      1.0  0.26931  0.81590  0.18931  1.0000
  H   H166      1.0  0.17366  0.71299  0.38670  1.0000
  H   H167      1.0  0.01889  0.55642  0.50119  1.0000
  H   H168      1.0  0.13551  0.72469  0.29104  1.0000
  C   C172      1.0  0.02436  0.01135  0.34354  1.0000
  H   H169      1.0  0.13174  0.93149  0.10427  1.0000
  C   C173      1.0  0.11306  0.60586  0.54134  1.0000
  H   H170      1.0  0.06629  0.77379  0.34412  1.0000
  C   C174      1.0  0.10252  0.75236  0.31675  1.0000
  Fe  Fe31      1.0  0.30770  0.63106  0.18397  1.0000
  H   H171      1.0  0.19280  0.73750  0.35608  1.0000
  C   C175      1.0  0.19544  0.72403  0.38173  1.0000
  H   H172      1.0  0.16787  0.91450  0.09789  1.0000
  H   H173      1.0  0.29301  0.53730  0.28093  1.0000
  H   H174      1.0  0.11430  0.77303  0.31114  1.0000
  C   C176      1.0  0.09900  0.69884  0.31229  1.0000
  H   H175      1.0  0.26665  0.00528  0.30952  1.0000
  H   H176      1.0  0.06785  0.54170  0.52781  1.0000
  C   C177      1.0  0.31769  0.97777  0.30041  1.0000
  N   N15       1.0  0.06076  0.72645  0.34285  1.0000
  C   C178      1.0  0.03503  0.99167  0.49666  1.0000
  N   N16       1.0  0.04126  0.94901  0.44219  1.0000
  C   C179      1.0  0.33112  0.88157  0.31823  1.0000
  H   H177      1.0  0.18046  0.93629  0.34484  1.0000
  C   C180      1.0  0.08262  0.60396  0.54835  1.0000
  H   H178      1.0  0.10810  0.67760  0.30368  1.0000
  H   H179      1.0  0.29126  0.81567  0.17549  1.0000
  C   C181      1.0  0.07542  0.75258  0.33548  1.0000
  H   H180      1.0  0.02770  0.74864  0.37514  1.0000
  H   H181      1.0  0.02377  0.92747  0.39545  1.0000
  H   H182      1.0  0.18346  0.76305  0.16581  1.0000
  C   C182      1.0  0.02287  0.96325  0.50146  1.0000
  H   H183      1.0  0.02091  0.55645  0.35168  1.0000
  C   C183      1.0  0.09944  0.97682  0.28546  1.0000
  H   H184      1.0  0.04588  0.90382  0.42483  1.0000
  N   N17       1.0  0.12612  0.97954  0.30840  1.0000
  C   C184      1.0  0.14218  0.95448  0.31669  1.0000
  C   C185      1.0  0.03231  0.72672  0.36230  1.0000
  H   H185      1.0  0.33455  0.90677  0.36825  1.0000
  H   H186      1.0  0.10942  0.86218  0.08659  1.0000
  H   H187      1.0  0.03225  0.70957  0.38458  1.0000
  C   C186      1.0  0.14351  0.91035  0.09825  1.0000
  C   C187      1.0  0.01592  0.53292  0.35081  1.0000
  H   H188      1.0  0.09077  0.51603  0.50324  1.0000
  H   H189      1.0  0.33510  0.67611  0.12885  1.0000
  H   H190      1.0  0.21140  0.86963  0.07024  1.0000
  C   C188      1.0  0.07322  0.53324  0.49995  1.0000
  H   H191      1.0  0.03308  0.00828  0.51807  1.0000
  H   H192      1.0  0.13939  0.89439  0.12124  1.0000
  H   H193      1.0  0.08224  0.55205  0.48347  1.0000
  C   C189      1.0  0.15990  0.00921  0.34417  1.0000
  C   C190      1.0  0.33807  0.53723  0.30169  1.0000
  C   C191      1.0  0.01523  0.98157  0.34479  1.0000
  C   C192      1.0  0.13456  0.00667  0.32201  1.0000
  H   H194      1.0  0.09001  0.99892  0.27779  1.0000
  H   H195      1.0  0.11250  0.52320  0.30241  1.0000
  C   C193      1.0  0.15988  0.51831  0.30420  1.0000
  H   H196      1.0  0.34272  0.56926  0.14226  1.0000
  S   S62       1.0  0.34427  0.65878  0.20810  1.0000
  C   C194      1.0  0.16057  0.81494  0.05446  1.0000
  H   H197      1.0  0.18945  0.84046  0.01927  1.0000
  N   N18       1.0  0.04849  0.87380  0.83208  1.0000
  S   S63       1.0  0.28791  0.68831  0.85303  1.0000
  Fe  Fe32      1.0  0.19581  0.81840  0.89754  1.0000
  S   S64       1.0  0.17459  0.77696  0.92061  1.0000
  S   S65       1.0  0.24389  0.81931  0.88113  1.0000
  Fe  Fe33      1.0  0.13926  0.85458  0.90054  1.0000
  S   S66       1.0  0.11320  0.81581  0.92256  1.0000
  S   S67       1.0  0.11460  0.89830  0.89596  1.0000
  Fe  Fe34      1.0  0.15234  0.80814  0.95975  1.0000
  S   S68       1.0  0.14316  0.79521  0.01876  1.0000
  Fe  Fe35      1.0  0.13766  0.78828  0.88139  1.0000
  S   S69       1.0  0.11245  0.75673  0.84454  1.0000
  S   S70       1.0  0.17695  0.84881  0.94046  1.0000
  S   S71       1.0  0.16029  0.82787  0.85574  1.0000
  Fe  Fe36      1.0  0.14217  0.59729  0.77898  1.0000
  S   S72       1.0  0.17016  0.57128  0.73997  1.0000
  S   S73       1.0  0.16757  0.62907  0.81520  1.0000
  Fe  Fe37      1.0  0.08624  0.56614  0.75413  1.0000
  S   S74       1.0  0.10962  0.53771  0.71260  1.0000
  H   H198      1.0  0.24465  0.68151  0.79045  1.0000
  Fe  Fe38      1.0  0.14347  0.53156  0.75753  1.0000
  C   C195      1.0  0.32959  0.93401  0.79818  1.0000
  Fe  Fe39      1.0  0.13414  0.57987  0.69857  1.0000
  S   S75       1.0  0.14997  0.59500  0.64263  1.0000
  S   S76       1.0  0.11828  0.55678  0.80032  1.0000
  S   S77       1.0  0.10798  0.60902  0.73632  1.0000
  C   C196      1.0  0.12471  0.92264  0.85992  1.0000
  C   C197      1.0  0.10949  0.94970  0.85544  1.0000
  C   C198      1.0  0.11610  0.96883  0.82582  1.0000
  C   C199      1.0  0.13822  0.96112  0.80076  1.0000
  C   C200      1.0  0.15361  0.93417  0.80547  1.0000
  C   C201      1.0  0.14686  0.91493  0.83494  1.0000
  H   H199      1.0  0.09233  0.95580  0.87470  1.0000
  H   H200      1.0  0.10394  0.98938  0.82232  1.0000
  H   H201      1.0  0.17076  0.92810  0.78616  1.0000
  H   H202      1.0  0.15882  0.89419  0.83824  1.0000
  C   C202      1.0  0.12772  0.72107  0.83729  1.0000
  C   C203      1.0  0.11242  0.70071  0.81506  1.0000
  C   C204      1.0  0.12415  0.67218  0.80866  1.0000
  C   C205      1.0  0.15133  0.66392  0.82438  1.0000
  C   C206      1.0  0.16659  0.68422  0.84668  1.0000
  C   C207      1.0  0.15491  0.71277  0.85298  1.0000
  H   H203      1.0  0.09131  0.70693  0.80299  1.0000
  H   H204      1.0  0.11207  0.65659  0.79177  1.0000
  H   H205      1.0  0.18759  0.67788  0.85893  1.0000
  H   H206      1.0  0.16693  0.72826  0.87000  1.0000
  H   H207      1.0  0.14826  0.64983  0.68961  1.0000
  C   C208      1.0  0.32385  0.90930  0.82083  1.0000
  C   C209      1.0  0.05151  0.81184  0.83435  1.0000
  H   H208      1.0  0.12861  0.67300  0.72136  1.0000
  H   H209      1.0  0.30279  0.57145  0.83599  1.0000
  C   C210      1.0  0.27573  0.72549  0.85484  1.0000
  C   C211      1.0  0.29608  0.74887  0.85800  1.0000
  C   C212      1.0  0.28622  0.77798  0.86458  1.0000
  C   C213      1.0  0.25583  0.78392  0.86708  1.0000
  C   C214      1.0  0.23536  0.76098  0.86081  1.0000
  C   C215      1.0  0.24530  0.73172  0.85511  1.0000
  H   H210      1.0  0.31946  0.74459  0.85539  1.0000
  H   H211      1.0  0.30221  0.79566  0.86868  1.0000
  H   H212      1.0  0.21188  0.76565  0.86096  1.0000
  H   H213      1.0  0.22941  0.71381  0.85219  1.0000
  C   C216      1.0  0.07523  0.85984  0.82772  1.0000
  C   C217      1.0  0.13356  0.60294  0.57046  1.0000
  H   H214      1.0  0.33774  0.56351  0.77825  1.0000
  C   C218      1.0  0.09334  0.59525  0.61340  1.0000
  C   C219      1.0  0.12377  0.59769  0.60656  1.0000
  H   H215      1.0  0.23828  0.63685  0.75097  1.0000
  H   H216      1.0  0.04933  0.59705  0.58999  1.0000
  H   H217      1.0  0.08558  0.59129  0.64113  1.0000
  C   C220      1.0  0.18227  0.83646  0.04716  1.0000
  C   C221      1.0  0.04730  0.90644  0.83301  1.0000
  H   H218      1.0  0.05294  0.78764  0.83555  1.0000
  H   H219      1.0  0.03119  0.95530  0.77650  1.0000
  S   S78       1.0  0.03669  0.56389  0.76087  1.0000
  H   H220      1.0  0.30668  0.90461  0.71713  1.0000
  H   H221      1.0  0.01671  0.93974  0.68916  1.0000
  H   H222      1.0  0.33973  0.95404  0.80927  1.0000
  H   H223      1.0  0.29535  0.86485  0.85658  1.0000
  C   C222      1.0  0.11379  0.87733  0.99538  1.0000
  H   H224      1.0  0.33451  0.64330  0.99875  1.0000
  H   H225      1.0  0.09537  0.87276  0.82395  1.0000
  H   H226      1.0  0.14895  0.68957  0.68347  1.0000
  H   H227      1.0  0.20608  0.72118  0.78953  1.0000
  C   C223      1.0  0.02320  0.85746  0.83773  1.0000
  H   H228      1.0  0.25763  0.60139  0.84948  1.0000
  N   N19       1.0  0.17540  0.67393  0.72799  1.0000
  C   C224      1.0  0.17872  0.69856  0.74961  1.0000
  C   C225      1.0  0.20382  0.70184  0.77199  1.0000
  H   H229      1.0  0.09830  0.81767  0.82499  1.0000
  C   C226      1.0  0.19660  0.65208  0.72800  1.0000
  C   C227      1.0  0.02432  0.82624  0.83892  1.0000
  H   H230      1.0  0.10619  0.86905  0.96905  1.0000
  H   H231      1.0  0.16160  0.71556  0.75026  1.0000
  H   H232      1.0  0.06334  0.91641  0.81327  1.0000
  C   C228      1.0  0.02452  0.52743  0.76961  1.0000
  C   C229      1.0  0.14182  0.91275  0.03106  1.0000
  H   H233      1.0  0.24685  0.67009  0.96548  1.0000
  C   C230      1.0  0.02533  0.00281  0.77198  1.0000
  H   H234      1.0  0.32946  0.74545  0.98292  1.0000
  C   C231      1.0  0.30663  0.85808  0.83083  1.0000
  C   C232      1.0  0.22561  0.54130  0.80881  1.0000
  C   C233      1.0  0.14904  0.67146  0.70444  1.0000
  C   C234      1.0  0.30536  0.88212  0.76985  1.0000
  H   H235      1.0  0.32777  0.95134  0.74283  1.0000
  H   H236      1.0  0.13861  0.91361  0.97158  1.0000
  C   C235      1.0  0.25567  0.57995  0.83595  1.0000
  C   C236      1.0  0.22184  0.65448  0.75039  1.0000
  H   H237      1.0  0.19391  0.63246  0.71098  1.0000
  H   H238      1.0  0.29704  0.86152  0.75825  1.0000
  H   H239      1.0  0.15612  0.93220  0.03204  1.0000
  C   C237      1.0  0.31092  0.90636  0.74640  1.0000
  H   H240      1.0  0.04970  0.98394  0.68141  1.0000
  H   H241      1.0  0.29225  0.84098  0.81773  1.0000
  H   H242      1.0  0.27627  0.66616  0.93199  1.0000
  H   H243      1.0  0.05296  0.91425  0.86110  1.0000
  H   H244      1.0  0.24163  0.68145  0.91788  1.0000
  C   C238      1.0  0.02575  0.98664  0.68150  1.0000
  C   C239      1.0  0.27805  0.53578  0.81046  1.0000
  C   C240      1.0  0.13204  0.90242  0.99688  1.0000
  C   C241      1.0  0.22777  0.56890  0.82633  1.0000
  H   H245      1.0  0.20382  0.53279  0.80162  1.0000
  S   S79       1.0  0.14727  0.98458  0.76340  1.0000
  C   C242      1.0  0.01538  0.97341  0.77662  1.0000
  N   N20       1.0  0.25057  0.52526  0.80082  1.0000
  H   H246      1.0  0.31099  0.69520  0.96786  1.0000
  H   H247      1.0  0.29641  0.78954  0.97387  1.0000
  H   H248      1.0  0.04877  0.00719  0.76868  1.0000
  C   C243      1.0  0.07286  0.59853  0.58440  1.0000
  N   N21       1.0  0.31153  0.88393  0.80664  1.0000
  C   C244      1.0  0.28099  0.56323  0.82823  1.0000
  N   N22       1.0  0.26828  0.71047  0.95043  1.0000
  C   C245      1.0  0.29637  0.71419  0.96409  1.0000
  C   C246      1.0  0.24961  0.73438  0.94679  1.0000
  C   C247      1.0  0.30690  0.74263  0.97284  1.0000
  C   C248      1.0  0.25941  0.76314  0.95528  1.0000
  C   C249      1.0  0.28836  0.76727  0.96797  1.0000
  C   C250      1.0  0.25766  0.68053  0.94121  1.0000
  H   H249      1.0  0.20786  0.58155  0.83246  1.0000
  H   H250      1.0  0.22721  0.73142  0.93639  1.0000
  H   H251      1.0  0.24483  0.78217  0.95116  1.0000
  C   C251      1.0  0.22540  0.67953  0.77255  1.0000
  C   C252      1.0  0.32293  0.93249  0.76078  1.0000
  H   H252      1.0  0.30671  0.61452  0.04595  1.0000
  H   H253      1.0  0.32829  0.84752  0.83768  1.0000
  C   C253      1.0  0.33446  0.65069  0.02696  1.0000
  C   C254      1.0  0.07709  0.82871  0.82850  1.0000
  H   H254      1.0  0.15709  0.60483  0.56503  1.0000
  Fe  Fe40      1.0  0.33477  0.68340  0.87429  1.0000
  H   H255      1.0  0.29791  0.52299  0.80441  1.0000
  H   H256      1.0  0.02488  0.91492  0.82547  1.0000
  C   C255      1.0  0.10562  0.86282  0.02783  1.0000
  H   H257      1.0  0.32972  0.91034  0.84972  1.0000
  H   H258      1.0  0.09230  0.84264  0.02678  1.0000
  C   C256      1.0  0.31878  0.63439  0.05374  1.0000
  Fe  Fe41      1.0  0.46967  0.36957  0.38080  1.0000
  S   S80       1.0  0.43443  0.38525  0.34150  1.0000
  S   S81       1.0  0.50802  0.34209  0.35857  1.0000
  Fe  Fe42      1.0  0.43892  0.39900  0.44699  1.0000
  S   S82       1.0  0.40143  0.41706  0.41223  1.0000
  S   S83       1.0  0.45005  0.41509  0.50455  1.0000
  Fe  Fe43      1.0  0.40186  0.37205  0.38515  1.0000
  S   S84       1.0  0.36241  0.34474  0.36583  1.0000
  Fe  Fe44      1.0  0.43700  0.42846  0.37150  1.0000
  S   S85       1.0  0.43772  0.47246  0.34138  1.0000
  S   S86       1.0  0.43702  0.35276  0.42295  1.0000
  S   S87       1.0  0.47452  0.41394  0.40782  1.0000
  C   C257      1.0  0.40346  0.38870  0.54249  1.0000
  C   C258      1.0  0.64554  0.13920  0.54618  1.0000
  C   C259      1.0  0.55624  0.45475  0.24264  1.0000
  S   S88       1.0  0.38586  0.09063  0.31824  1.0000
  H   H259      1.0  0.63317  0.36912  0.13428  1.0000
  C   C260      1.0  0.61907  0.36495  0.07756  1.0000
  C   C261      1.0  0.67088  0.13529  0.47706  1.0000
  H   H260      1.0  0.38492  0.02511  0.33084  1.0000
  H   H261      1.0  0.43420  0.04754  0.30281  1.0000
  H   H262      1.0  0.53622  0.45441  0.42543  1.0000
  N   N23       1.0  0.43407  0.06508  0.24863  1.0000
  C   C262      1.0  0.47264  0.13871  0.34681  1.0000
  C   C263      1.0  0.45163  0.15265  0.32384  1.0000
  C   C264      1.0  0.42451  0.13853  0.31569  1.0000
  C   C265      1.0  0.41828  0.11034  0.33049  1.0000
  C   C266      1.0  0.43900  0.09670  0.35402  1.0000
  C   C267      1.0  0.46617  0.11073  0.36201  1.0000
  H   H263      1.0  0.45641  0.17439  0.31216  1.0000
  H   H264      1.0  0.40861  0.14934  0.29770  1.0000
  H   H265      1.0  0.43409  0.07509  0.36597  1.0000
  H   H266      1.0  0.48208  0.09991  0.37995  1.0000
  H   H267      1.0  0.64357  0.17303  0.46347  1.0000
  H   H268      1.0  0.55890  0.48718  0.42323  1.0000
  H   H269      1.0  0.47419  0.37342  0.27615  1.0000
  H   H270      1.0  0.39691  0.37876  0.51670  1.0000
  C   C268      1.0  0.47308  0.48855  0.34433  1.0000
  H   H271      1.0  0.55923  0.39583  0.23118  1.0000
  C   C269      1.0  0.52224  0.03782  0.36538  1.0000
  C   C270      1.0  0.49805  0.47039  0.34857  1.0000
  H   H272      1.0  0.47773  0.04747  0.34796  1.0000
  H   H273      1.0  0.52925  0.06085  0.36375  1.0000
  H   H274      1.0  0.49568  0.44650  0.34848  1.0000
  S   S89       1.0  0.65193  0.34087  0.23239  1.0000
  C   C271      1.0  0.49312  0.03021  0.35588  1.0000
  C   C272      1.0  0.54473  0.47348  0.44180  1.0000
  S   S90       1.0  0.61389  0.41136  0.28129  1.0000
  C   C273      1.0  0.50692  0.44128  0.26516  1.0000
  Fe  Fe45      1.0  0.56746  0.12032  0.46587  1.0000
  S   S91       1.0  0.60779  0.09711  0.44419  1.0000
  S   S92       1.0  0.55886  0.13132  0.52523  1.0000
  Fe  Fe46      1.0  0.54138  0.13179  0.38914  1.0000
  S   S93       1.0  0.57958  0.10958  0.36091  1.0000
  S   S94       1.0  0.50681  0.15663  0.35564  1.0000
  Fe  Fe47      1.0  0.57538  0.07521  0.40578  1.0000
  H   H275      1.0  0.44661  0.02176  0.26838  1.0000
  Fe  Fe48      1.0  0.60846  0.13342  0.40144  1.0000
  S   S95       1.0  0.64827  0.16116  0.38630  1.0000
  S   S96       1.0  0.53467  0.09547  0.43111  1.0000
  S   S97       1.0  0.57073  0.15865  0.42621  1.0000
  Fe  Fe49      1.0  0.35146  0.11425  0.28338  1.0000
  C   C274      1.0  0.49580  0.47645  0.47048  1.0000
  H   H276      1.0  0.59614  0.07852  0.52225  1.0000
  H   H277      1.0  0.47049  0.05142  0.28246  1.0000
  C   C275      1.0  0.52626  0.48312  0.35210  1.0000
  H   H278      1.0  0.54543  0.46908  0.35619  1.0000
  C   C276      1.0  0.56745  0.26742  0.35988  1.0000
  H   H279      1.0  0.52359  0.21674  0.39083  1.0000
  C   C277      1.0  0.41143  0.05486  0.22695  1.0000
  C   C278      1.0  0.59725  0.27315  0.35138  1.0000
  H   H280      1.0  0.51401  0.22310  0.34335  1.0000
  C   C279      1.0  0.48517  0.42029  0.27446  1.0000
  C   C280      1.0  0.53863  0.36119  0.33935  1.0000
  C   C281      1.0  0.54203  0.39197  0.34351  1.0000
  C   C282      1.0  0.56593  0.40686  0.32672  1.0000
  C   C283      1.0  0.58668  0.39118  0.30582  1.0000
  C   C284      1.0  0.58373  0.36027  0.30225  1.0000
  C   C285      1.0  0.55966  0.34538  0.31880  1.0000
  H   H281      1.0  0.52621  0.40428  0.35956  1.0000
  H   H282      1.0  0.56831  0.43064  0.32953  1.0000
  H   H283      1.0  0.59943  0.34798  0.28584  1.0000
  H   H284      1.0  0.55691  0.32169  0.31477  1.0000
  H   H285      1.0  0.51310  0.25353  0.37535  1.0000
  H   H286      1.0  0.66999  0.44348  0.29670  1.0000
  H   H287      1.0  0.37625  0.47663  0.32925  1.0000
  H   H288      1.0  0.35025  0.26541  0.32653  1.0000
  H   H289      1.0  0.45312  0.48072  0.49665  1.0000
  C   C286      1.0  0.66623  0.11671  0.53918  1.0000
  H   H290      1.0  0.38094  0.06511  0.18253  1.0000
  N   N24       1.0  0.63721  0.15876  0.51898  1.0000
  H   H291      1.0  0.34833  0.09404  0.07066  1.0000
  C   C287      1.0  0.53814  0.40298  0.24249  1.0000
  H   H292      1.0  0.46474  0.42739  0.28750  1.0000
  H   H293      1.0  0.59895  0.18363  0.50359  1.0000
  H   H294      1.0  0.61903  0.20190  0.33512  1.0000
  C   C288      1.0  0.49039  0.39011  0.26792  1.0000
  C   C289      1.0  0.34817  0.26069  0.35647  1.0000
  H   H295      1.0  0.52151  0.35791  0.24731  1.0000
  H   H296      1.0  0.35967  0.27878  0.37177  1.0000
  C   C290      1.0  0.39884  0.07323  0.19985  1.0000
  C   C291      1.0  0.52531  0.23295  0.36763  1.0000
  H   H297      1.0  0.59692  0.37324  0.08258  1.0000
  H   H298      1.0  0.50010  0.03722  0.44013  1.0000
  N   N25       1.0  0.55657  0.23889  0.35916  1.0000
  C   C292      1.0  0.60462  0.22048  0.34186  1.0000
  N   N26       1.0  0.52005  0.49095  0.45652  1.0000
  H   H299      1.0  0.39931  0.11691  0.17476  1.0000
  C   C293      1.0  0.54195  0.01583  0.37770  1.0000
  C   C294      1.0  0.63953  0.36263  0.10685  1.0000
  H   H300      1.0  0.66049  0.09804  0.37635  1.0000
  C   C295      1.0  0.44381  0.09389  0.24526  1.0000
  C   C296      1.0  0.43156  0.11295  0.21861  1.0000
  C   C297      1.0  0.59491  0.08589  0.55041  1.0000
  H   H301      1.0  0.56600  0.19295  0.34962  1.0000
  Fe  Fe50      1.0  0.65335  0.38510  0.26109  1.0000
  C   C298      1.0  0.67625  0.34359  0.06470  1.0000
  C   C299      1.0  0.61592  0.24948  0.34237  1.0000
  C   C300      1.0  0.50191  0.02116  0.46345  1.0000
  C   C301      1.0  0.35804  0.49007  0.31876  1.0000
  H   H302      1.0  0.46085  0.10241  0.26360  1.0000
  H   H303      1.0  0.54682  0.47473  0.22865  1.0000
  C   C302      1.0  0.40917  0.10237  0.19551  1.0000
  S   S98       1.0  0.57693  0.02607  0.39434  1.0000
  C   C303      1.0  0.57469  0.21557  0.35025  1.0000
  H   H304      1.0  0.57425  0.44575  0.22507  1.0000
  H   H305      1.0  0.56645  0.46149  0.26919  1.0000
  C   C304      1.0  0.42839  0.40728  0.54393  1.0000
  H   H306      1.0  0.35983  0.23945  0.36291  1.0000
  C   C305      1.0  0.34712  0.11789  0.07466  1.0000
  C   C306      1.0  0.51693  0.38138  0.25160  1.0000
  H   H307      1.0  0.50301  0.46461  0.27123  1.0000
  H   H308      1.0  0.43908  0.13588  0.21624  1.0000
  N   N27       1.0  0.53304  0.43248  0.24955  1.0000
  H   H309      1.0  0.55310  0.28598  0.36695  1.0000
  H   H310      1.0  0.60583  0.29579  0.35172  1.0000
  H   H311      1.0  0.55864  0.46477  0.46472  1.0000
  C   C307      1.0  0.47238  0.49247  0.48590  1.0000
  H   H312      1.0  0.63912  0.25359  0.33580  1.0000
  H   H313      1.0  0.49447  0.45230  0.46995  1.0000
  H   H314      1.0  0.62669  0.20398  0.52969  1.0000
  C   C308      1.0  0.65112  0.48754  0.30236  1.0000
  C   C309      1.0  0.44695  0.04550  0.27689  1.0000
  C   C310      1.0  0.64989  0.15731  0.48493  1.0000
  H   H315      1.0  0.40294  0.03241  0.23055  1.0000
  H   H316      1.0  0.63092  0.47912  0.31497  1.0000
  S   S99       1.0  0.35988  0.14814  0.23903  1.0000
  C   C311      1.0  0.66820  0.35194  0.10041  1.0000
  H   H317      1.0  0.45317  0.01847  0.42152  1.0000
  H   H318      1.0  0.51240  0.03333  0.48663  1.0000
  C   C312      1.0  0.61538  0.18215  0.52644  1.0000
  C   C313      1.0  0.67314  0.46724  0.29214  1.0000
  H   H319      1.0  0.60237  0.17714  0.55169  1.0000
  Fe  Fe51      1.0  0.38097  0.19699  0.87883  1.0000
  N   N28       1.0  0.58663  0.43513  0.91772  1.0000
  S   S100      1.0  0.40981  0.22872  0.84571  1.0000
  C   C314      1.0  0.48304  0.45515  0.67610  1.0000
  C   C315      1.0  0.65225  0.20602  0.82965  1.0000
  Fe  Fe52      1.0  0.37480  0.13076  0.89598  1.0000
  S   S101      1.0  0.39933  0.08722  0.88906  1.0000
  S   S102      1.0  0.39994  0.16787  0.92354  1.0000
  N   N29       1.0  0.45713  0.12561  0.84939  1.0000
  Fe  Fe53      1.0  0.38739  0.40771  0.70293  1.0000
  S   S103      1.0  0.41540  0.38167  0.74306  1.0000
  S   S104      1.0  0.37458  0.38729  0.64835  1.0000
  Fe  Fe54      1.0  0.37551  0.45790  0.75801  1.0000
  S   S105      1.0  0.40179  0.43535  0.80272  1.0000
  C   C316      1.0  0.47370  0.48438  0.66953  1.0000
  Fe  Fe55      1.0  0.43443  0.42628  0.75797  1.0000
  S   S106      1.0  0.48296  0.43246  0.77030  1.0000
  Fe  Fe56      1.0  0.38036  0.39283  0.78416  1.0000
  C   C317      1.0  0.64933  0.45932  0.83598  1.0000
  S   S107      1.0  0.40967  0.45155  0.71387  1.0000
  C   C318      1.0  0.37330  0.27612  0.86209  1.0000
  C   C319      1.0  0.49147  0.47066  0.77128  1.0000
  H   H320      1.0  0.51792  0.05356  0.70981  1.0000
  H   H321      1.0  0.59890  0.47625  0.89202  1.0000
  H   H322      1.0  0.47670  0.04019  0.79553  1.0000
  H   H323      1.0  0.44665  0.48544  0.76118  1.0000
  C   C320      1.0  0.39037  0.06325  0.85242  1.0000
  Fe  Fe57      1.0  0.61678  0.34048  0.95165  1.0000
  S   S108      1.0  0.60132  0.35959  0.00541  1.0000
  C   C321      1.0  0.58298  0.45808  0.89311  1.0000
  H   H324      1.0  0.40245  0.49906  0.81351  1.0000
  C   C322      1.0  0.40649  0.03672  0.84840  1.0000
  S   S109      1.0  0.66407  0.07809  0.74538  1.0000
  C   C323      1.0  0.43863  0.09991  0.79627  1.0000
  H   H325      1.0  0.42379  0.03112  0.86797  1.0000
  C   C324      1.0  0.39617  0.26536  0.83999  1.0000
  C   C325      1.0  0.40870  0.28424  0.81327  1.0000
  C   C326      1.0  0.39838  0.31367  0.80872  1.0000
  C   C327      1.0  0.37549  0.32435  0.83095  1.0000
  C   C328      1.0  0.40020  0.01720  0.81935  1.0000
  H   H326      1.0  0.52139  0.43346  0.84825  1.0000
  H   H327      1.0  0.42631  0.27603  0.79591  1.0000
  H   H328      1.0  0.40786  0.32789  0.78777  1.0000
  H   H329      1.0  0.49944  0.37223  0.80484  1.0000
  S   S110      1.0  0.65959  0.15394  0.79216  1.0000
  H   H330      1.0  0.63307  0.43493  0.92739  1.0000
  C   C329      1.0  0.37782  0.02411  0.79401  1.0000
  C   C330      1.0  0.43664  0.42005  0.57763  1.0000
  C   C331      1.0  0.42017  0.41426  0.60970  1.0000
  C   C332      1.0  0.39540  0.39549  0.60837  1.0000
  C   C333      1.0  0.56450  0.46592  0.69150  1.0000
  H   H331      1.0  0.42657  0.42425  0.63543  1.0000
  H   H332      1.0  0.55678  0.47603  0.84829  1.0000
  C   C334      1.0  0.54325  0.41084  0.89348  1.0000
  Fe  Fe58      1.0  0.61626  0.35565  0.86990  1.0000
  S   S111      1.0  0.58378  0.33226  0.90653  1.0000
  S   S112      1.0  0.59620  0.38640  0.82750  1.0000
  C   C335      1.0  0.46951  0.49209  0.76455  1.0000
  H   H333      1.0  0.58497  0.01692  0.63961  1.0000
  Fe  Fe59      1.0  0.61010  0.29108  0.89470  1.0000
  S   S113      1.0  0.58483  0.24934  0.88021  1.0000
  C   C336      1.0  0.42439  0.12591  0.78446  1.0000
  S   S114      1.0  0.64019  0.31382  0.85435  1.0000
  Fe  Fe60      1.0  0.63603  0.11216  0.77391  1.0000
  C   C337      1.0  0.38708  0.38279  0.57466  1.0000
  H   H334      1.0  0.55937  0.06095  0.66562  1.0000
  Fe  Fe61      1.0  0.58165  0.07290  0.77205  1.0000
  S   S115      1.0  0.60512  0.03572  0.74322  1.0000
  S   S116      1.0  0.53341  0.06896  0.78740  1.0000
  Fe  Fe62      1.0  0.64226  0.04484  0.78278  1.0000
  H   H335      1.0  0.48599  0.25275  0.86856  1.0000
  Fe  Fe63      1.0  0.62467  0.07201  0.70823  1.0000
  S   S117      1.0  0.63103  0.06153  0.64809  1.0000
  S   S118      1.0  0.61731  0.07938  0.81446  1.0000
  S   S119      1.0  0.59812  0.10883  0.73371  1.0000
  C   C338      1.0  0.61284  0.42145  0.82060  1.0000
  C   C339      1.0  0.59977  0.44132  0.79551  1.0000
  C   C340      1.0  0.61102  0.47030  0.79120  1.0000
  C   C341      1.0  0.63586  0.47941  0.81131  1.0000
  H   H336      1.0  0.61150  0.45629  0.95985  1.0000
  C   C342      1.0  0.63781  0.43038  0.84068  1.0000
  H   H337      1.0  0.58069  0.43426  0.77970  1.0000
  H   H338      1.0  0.60047  0.48556  0.77235  1.0000
  C   C343      1.0  0.49387  0.02362  0.79913  1.0000
  C   C344      1.0  0.60578  0.22260  0.85629  1.0000
  C   C345      1.0  0.59209  0.19639  0.84390  1.0000
  C   C346      1.0  0.60842  0.17509  0.82424  1.0000
  C   C347      1.0  0.63851  0.17998  0.81691  1.0000
  S   S120      1.0  0.35077  0.41614  0.74336  1.0000
  C   C348      1.0  0.63594  0.22728  0.84925  1.0000
  H   H339      1.0  0.56880  0.19259  0.84935  1.0000
  H   H340      1.0  0.59768  0.15502  0.81455  1.0000
  H   H341      1.0  0.34444  0.05621  0.77828  1.0000
  H   H342      1.0  0.51976  0.42684  0.68989  1.0000
  C   C349      1.0  0.52077  0.47975  0.77722  1.0000
  C   C350      1.0  0.42677  0.15179  0.80535  1.0000
  C   C351      1.0  0.52380  0.03187  0.79740  1.0000
  H   H343      1.0  0.53761  0.46331  0.78320  1.0000
  H   H344      1.0  0.41118  0.12584  0.75948  1.0000
  C   C352      1.0  0.57587  0.11980  0.59606  1.0000
  C   C353      1.0  0.59207  0.10482  0.62362  1.0000
  C   C354      1.0  0.60982  0.08042  0.61458  1.0000
  C   C355      1.0  0.55234  0.03861  0.67327  1.0000
  H   H345      1.0  0.56240  0.13888  0.60312  1.0000
  H   H346      1.0  0.59108  0.11242  0.65171  1.0000
  H   H347      1.0  0.61187  0.41632  0.96249  1.0000
  H   H348      1.0  0.55174  0.29637  0.83768  1.0000
  H   H349      1.0  0.36070  0.32563  0.68874  1.0000
  H   H350      1.0  0.47987  0.14733  0.89347  1.0000
  H   H351      1.0  0.36790  0.36829  0.57341  1.0000
  H   H352      1.0  0.56998  0.39351  0.93780  1.0000
  H   H353      1.0  0.45874  0.29719  0.85884  1.0000
  H   H354      1.0  0.45445  0.34730  0.83023  1.0000
  H   H355      1.0  0.49305  0.11065  0.88294  1.0000
  C   C356      1.0  0.47280  0.12471  0.88476  1.0000
  H   H356      1.0  0.44402  0.17116  0.85471  1.0000
  C   C357      1.0  0.61106  0.07089  0.57798  1.0000
  H   H357      1.0  0.51792  0.26605  0.89413  1.0000
  N   N30       1.0  0.53326  0.47224  0.68319  1.0000
  H   H358      1.0  0.64667  0.24733  0.85878  1.0000
  S   S121      1.0  0.64020  0.29686  0.94358  1.0000
  C   C358      1.0  0.56707  0.41176  0.91831  1.0000
  H   H359      1.0  0.45587  0.43446  0.57892  1.0000
  C   C359      1.0  0.50792  0.26406  0.86626  1.0000
  H   H360      1.0  0.54837  0.34657  0.80906  1.0000
  H   H361      1.0  0.41551  0.17212  0.79680  1.0000
  C   C360      1.0  0.51300  0.44950  0.68337  1.0000
  H   H362      1.0  0.35557  0.09076  0.82981  1.0000
  C   C361      1.0  0.55923  0.45805  0.86821  1.0000
  C   C362      1.0  0.44307  0.15116  0.83813  1.0000
  C   C363      1.0  0.36804  0.07032  0.82697  1.0000
  C   C364      1.0  0.45505  0.10018  0.82898  1.0000
  S   S122      1.0  0.64724  0.36731  0.91588  1.0000
  H   H363      1.0  0.56891  0.01636  0.80118  1.0000
  C   C365      1.0  0.61198  0.43569  0.94312  1.0000
  H   H364      1.0  0.46713  0.43700  0.67669  1.0000
  H   H365      1.0  0.45785  0.11518  0.90612  1.0000
  H   H366      1.0  0.52257  0.24944  0.84966  1.0000
  C   C366      1.0  0.50112  0.35025  0.81752  1.0000
  H   H367      1.0  0.46536  0.07970  0.83860  1.0000
  H   H368      1.0  0.43632  0.07943  0.78081  1.0000
  H   H369      1.0  0.66230  0.33946  0.00809  1.0000
  N   N31       1.0  0.50536  0.29366  0.84913  1.0000
  C   C367      1.0  0.47845  0.30785  0.84770  1.0000
  C   C368      1.0  0.53029  0.30741  0.83586  1.0000
  C   C369      1.0  0.47589  0.33625  0.83168  1.0000
  C   C370      1.0  0.52854  0.33583  0.81975  1.0000
  H   H370      1.0  0.63570  0.14042  0.57331  1.0000
  C   C371      1.0  0.36303  0.30546  0.85760  1.0000
  C   C372      1.0  0.53940  0.43413  0.86820  1.0000
  H   H371      1.0  0.56859  0.46873  0.72137  1.0000
  H   H372      1.0  0.52823  0.39195  0.89345  1.0000
  C   C373      1.0  0.36176  0.05074  0.79786  1.0000
  S   S123      1.0  0.35908  0.15918  0.84888  1.0000
  Fe  Fe64      1.0  0.35737  0.17607  0.95393  1.0000
  S   S124      1.0  0.36060  0.36041  0.82507  1.0000
  H   H373      1.0  0.36379  0.26206  0.88312  1.0000
  C   C374      1.0  0.52837  0.51003  0.77482  1.0000
  H   H374      1.0  0.45039  0.48912  0.66461  1.0000
  H   H375      1.0  0.64829  0.41504  0.85971  1.0000
  C   C375      1.0  0.52425  0.50104  0.67733  1.0000
  C   C376      1.0  0.52911  0.03446  0.69803  1.0000
  H   H376      1.0  0.36249  0.28661  0.73813  1.0000
  H   H377      1.0  0.66869  0.46615  0.85147  1.0000
  H   H378      1.0  0.62469  0.05194  0.57088  1.0000
  S   S125      1.0  0.35152  0.50203  0.76429  1.0000
  Fe  Fe65      1.0  0.66829  0.32309  0.90403  1.0000
  S   S126      1.0  0.35307  0.19321  0.01205  1.0000
  C   C377      1.0  0.34890  0.16813  0.04931  1.0000
  H   H379      1.0  0.57058  0.44277  0.68386  1.0000
  C   C378      1.0  0.65581  0.34577  0.03554  1.0000
  H   H380      1.0  0.57941  0.48118  0.67588  1.0000
  C   C379      1.0  0.35022  0.13727  0.04432  1.0000
  H   H381      1.0  0.67552  0.20990  0.82412  1.0000
  C   C380      1.0  0.57747  0.11055  0.55938  1.0000
  H   H382      1.0  0.35387  0.12834  0.01717  1.0000
  H   H383      1.0  0.67205  0.10073  0.56061  1.0000
  C   C381      1.0  0.62714  0.35645  0.04187  1.0000
  C   C382      1.0  0.56680  0.01385  0.65880  1.0000
  C   C383      1.0  0.49438  0.50755  0.67041  1.0000
  C   C384      1.0  0.34637  0.30452  0.73934  1.0000
  H   H384      1.0  0.34535  0.31355  0.87495  1.0000
  C   C385      1.0  0.34539  0.32632  0.71175  1.0000
  Fe  Fe66      1.0  0.46465  0.88594  0.38670  1.0000
  S   S127      1.0  0.44480  0.90682  0.33615  1.0000
  S   S128      1.0  0.50763  0.85971  0.38465  1.0000
  Fe  Fe67      1.0  0.41506  0.90833  0.43614  1.0000
  S   S129      1.0  0.39192  0.93214  0.38958  1.0000
  S   S130      1.0  0.39116  0.91067  0.49043  1.0000
  Fe  Fe68      1.0  0.40090  0.89084  0.35751  1.0000
  S   S131      1.0  0.36872  0.87084  0.31680  1.0000
  Fe  Fe69      1.0  0.43749  0.94603  0.37249  1.0000
  S   S132      1.0  0.44617  0.99206  0.35083  1.0000
  S   S133      1.0  0.42120  0.86567  0.40492  1.0000
  S   S134      1.0  0.46007  0.92655  0.42225  1.0000
  C   C386      1.0  0.58864  0.58191  0.53217  1.0000
  N   N32       1.0  0.41112  0.80427  0.33231  1.0000
  H   H385      1.0  0.65573  0.75483  0.37272  1.0000
  S   S135      1.0  0.39141  0.59706  0.26390  1.0000
  N   N33       1.0  0.62101  0.96283  0.32556  1.0000
  H   H386      1.0  0.41596  0.62886  0.19840  1.0000
  C   C387      1.0  0.36999  0.98149  0.31431  1.0000
  H   H387      1.0  0.40483  0.99589  0.43745  1.0000
  C   C388      1.0  0.48370  0.00057  0.35807  1.0000
  H   H388      1.0  0.63576  0.95271  0.27131  1.0000
  H   H389      1.0  0.37213  0.55186  0.11602  1.0000
  C   C389      1.0  0.46608  0.64621  0.32437  1.0000
  C   C390      1.0  0.44099  0.66198  0.31197  1.0000
  C   C391      1.0  0.41777  0.64711  0.29366  1.0000
  C   C392      1.0  0.41973  0.61643  0.28735  1.0000
  C   C393      1.0  0.44490  0.60074  0.29948  1.0000
  C   C394      1.0  0.46792  0.61555  0.31809  1.0000
  H   H390      1.0  0.43948  0.68571  0.31673  1.0000
  H   H391      1.0  0.39846  0.65940  0.28436  1.0000
  H   H392      1.0  0.44669  0.57707  0.29441  1.0000
  H   H393      1.0  0.48729  0.60335  0.32723  1.0000
  C   C395      1.0  0.41665  0.64507  0.14233  1.0000
  C   C396      1.0  0.56219  0.72750  0.34183  1.0000
  S   S136      1.0  0.56481  0.52937  0.35946  1.0000
  H   H394      1.0  0.45435  0.90900  0.50790  1.0000
  C   C397      1.0  0.62877  0.96574  0.36174  1.0000
  H   H395      1.0  0.62614  0.78426  0.33140  1.0000
  C   C398      1.0  0.46183  0.80554  0.35295  1.0000
  C   C399      1.0  0.50384  0.97833  0.36864  1.0000
  H   H396      1.0  0.43821  0.97560  0.54557  1.0000
  H   H397      1.0  0.50738  0.55620  0.34525  1.0000
  H   H398      1.0  0.49700  0.95525  0.36949  1.0000
  S   S137      1.0  0.65505  0.83033  0.23352  1.0000
  C   C400      1.0  0.56125  0.59428  0.54161  1.0000
  Fe  Fe70      1.0  0.64732  0.87447  0.26082  1.0000
  S   S138      1.0  0.60266  0.89737  0.26424  1.0000
  H   H399      1.0  0.45436  0.83976  0.26983  1.0000
  Fe  Fe71      1.0  0.55181  0.61213  0.44863  1.0000
  S   S139      1.0  0.59208  0.59063  0.42431  1.0000
  S   S140      1.0  0.53753  0.61000  0.50815  1.0000
  Fe  Fe72      1.0  0.52986  0.63600  0.37416  1.0000
  S   S141      1.0  0.56833  0.61646  0.34349  1.0000
  S   S142      1.0  0.49504  0.66526  0.34710  1.0000
  Fe  Fe73      1.0  0.56099  0.57637  0.37949  1.0000
  H   H400      1.0  0.45625  0.53622  0.49974  1.0000
  Fe  Fe74      1.0  0.59608  0.63252  0.39066  1.0000
  S   S143      1.0  0.63868  0.65748  0.38068  1.0000
  S   S144      1.0  0.52009  0.59434  0.40641  1.0000
  S   S145      1.0  0.55829  0.65562  0.41870  1.0000
  C   C401      1.0  0.43211  0.79765  0.35839  1.0000
  H   H401      1.0  0.57498  0.95438  0.33097  1.0000
  H   H402      1.0  0.59550  0.58151  0.50378  1.0000
  C   C402      1.0  0.44204  0.91196  0.53308  1.0000
  C   C403      1.0  0.53293  0.98598  0.37873  1.0000
  H   H403      1.0  0.54807  0.96887  0.38836  1.0000
  C   C404      1.0  0.63190  0.53828  0.30865  1.0000
  H   H404      1.0  0.39857  0.52425  0.35091  1.0000
  H   H405      1.0  0.39703  0.97463  0.50009  1.0000
  H   H406      1.0  0.65003  0.85654  0.14207  1.0000
  H   H407      1.0  0.37092  0.81278  0.36024  1.0000
  C   C405      1.0  0.47650  0.51955  0.34260  1.0000
  C   C406      1.0  0.53433  0.87065  0.35171  1.0000
  C   C407      1.0  0.52855  0.89384  0.32681  1.0000
  C   C408      1.0  0.54956  0.90147  0.29990  1.0000
  C   C409      1.0  0.57677  0.88640  0.29803  1.0000
  C   C410      1.0  0.58276  0.86332  0.32309  1.0000
  C   C411      1.0  0.56149  0.85536  0.34973  1.0000
  H   H408      1.0  0.50793  0.90597  0.32820  1.0000
  H   H409      1.0  0.54472  0.91927  0.28054  1.0000
  H   H410      1.0  0.60376  0.85169  0.32197  1.0000
  H   H411      1.0  0.56618  0.83751  0.36907  1.0000
  H   H412      1.0  0.59440  0.70005  0.36934  1.0000
  C   C412      1.0  0.44840  0.82738  0.29446  1.0000
  C   C413      1.0  0.40639  0.64043  0.10657  1.0000
  C   C414      1.0  0.37992  0.79703  0.33959  1.0000
  H   H413      1.0  0.53518  0.75972  0.31302  1.0000
  C   C415      1.0  0.64015  0.85079  0.08436  1.0000
  H   H414      1.0  0.45732  0.53376  0.33901  1.0000
  C   C416      1.0  0.64259  0.73443  0.36674  1.0000
  C   C417      1.0  0.35029  0.68539  0.07373  1.0000
  C   C418      1.0  0.38752  0.61633  0.09950  1.0000
  N   N34       1.0  0.61294  0.74177  0.35264  1.0000
  H   H415      1.0  0.42584  0.78680  0.38397  1.0000
  H   H416      1.0  0.47833  0.80105  0.37413  1.0000
  C   C419      1.0  0.58013  0.77529  0.32042  1.0000
  H   H417      1.0  0.41259  0.65561  0.08447  1.0000
  C   C420      1.0  0.59023  0.96852  0.31442  1.0000
  C   C421      1.0  0.50478  0.53230  0.34652  1.0000
  C   C422      1.0  0.65865  0.85011  0.11556  1.0000
  H   H418      1.0  0.64122  0.72124  0.39266  1.0000
  C   C423      1.0  0.64183  0.95510  0.30003  1.0000
  C   C424      1.0  0.46994  0.82055  0.32079  1.0000
  N   N35       1.0  0.65499  0.51750  0.29660  1.0000
  C   C425      1.0  0.38912  0.53455  0.32555  1.0000
  H   H419      1.0  0.40532  0.53188  0.30284  1.0000
  C   C426      1.0  0.59050  0.72133  0.35587  1.0000
  C   C427      1.0  0.41892  0.81895  0.30064  1.0000
  H   H420      1.0  0.39176  0.97131  0.31692  1.0000
  Fe  Fe75      1.0  0.34926  0.62157  0.24929  1.0000
  C   C428      1.0  0.60818  0.76832  0.33475  1.0000
  C   C429      1.0  0.41820  0.98464  0.49280  1.0000
  H   H421      1.0  0.61727  0.85773  0.08706  1.0000
  H   H422      1.0  0.37771  0.77378  0.34999  1.0000
  H   H423      1.0  0.43111  0.66380  0.14829  1.0000
  H   H424      1.0  0.63592  0.56142  0.29858  1.0000
  H   H425      1.0  0.38229  0.58690  0.18448  1.0000
  H   H426      1.0  0.36251  0.70515  0.08156  1.0000
  H   H427      1.0  0.49277  0.82762  0.31681  1.0000
  H   H428      1.0  0.48695  0.99676  0.52786  1.0000
  H   H429      1.0  0.40219  0.82500  0.28041  1.0000
  H   H430      1.0  0.64708  0.59398  0.37117  1.0000
  H   H431      1.0  0.54447  0.71114  0.34458  1.0000
  H   H432      1.0  0.50101  0.56219  0.47575  1.0000
  C   C430      1.0  0.49922  0.53808  0.47399  1.0000
  H   H433      1.0  0.57649  0.79644  0.30639  1.0000
  C   C431      1.0  0.65795  0.96024  0.37333  1.0000
  C   C432      1.0  0.55701  0.75472  0.32410  1.0000
  N   N36       1.0  0.37862  0.59776  0.12739  1.0000
  H   H434      1.0  0.36600  0.79917  0.31439  1.0000
  S   S146      1.0  0.67494  0.86412  0.31071  1.0000
  H   H435      1.0  0.65482  0.72112  0.34606  1.0000
  C   C433      1.0  0.46882  0.99720  0.50816  1.0000
  C   C434      1.0  0.40812  0.62554  0.17043  1.0000
  C   C435      1.0  0.52960  0.51405  0.35182  1.0000
  H   H436      1.0  0.38642  0.55879  0.33086  1.0000
  C   C436      1.0  0.41101  0.91275  0.53216  1.0000
  C   C437      1.0  0.44138  0.98511  0.51831  1.0000
  C   C438      1.0  0.66709  0.63668  0.36002  1.0000
  C   C439      1.0  0.34569  0.96441  0.30329  1.0000
  H   H437      1.0  0.61230  0.97234  0.38183  1.0000
  H   H438      1.0  0.58626  0.96294  0.28508  1.0000
  N   N37       1.0  0.47276  0.00930  0.47386  1.0000
  C   C440      1.0  0.38899  0.60184  0.16240  1.0000
  H   H439      1.0  0.58462  0.99237  0.31881  1.0000
  C   C441      1.0  0.35894  0.57251  0.11959  1.0000
  H   H440      1.0  0.66397  0.96238  0.40208  1.0000
  C   C442      1.0  0.42255  0.99657  0.45771  1.0000
  H   H441      1.0  0.63111  0.53883  0.33919  1.0000
  C   C443      1.0  0.66566  0.60555  0.35884  1.0000
  H   H442      1.0  0.51671  0.00265  0.45493  1.0000
  H   H443      1.0  0.60975  0.53120  0.29834  1.0000
  C   C444      1.0  0.45007  0.00906  0.44874  1.0000
  C   C445      1.0  0.67119  0.94959  0.31064  1.0000
  N   N38       1.0  0.36089  0.52038  0.31561  1.0000
  C   C446      1.0  0.36615  0.01165  0.32206  1.0000
  C   C447      1.0  0.47416  0.52350  0.48764  1.0000
  H   H444      1.0  0.54145  0.53294  0.44762  1.0000
  H   H445      1.0  0.37945  0.61307  0.07166  1.0000
  H   H446      1.0  0.62862  0.56079  0.55221  1.0000
  C   C448      1.0  0.52208  0.52138  0.45829  1.0000
  H   H447      1.0  0.34544  0.57665  0.09437  1.0000
  H   H448      1.0  0.34854  0.94093  0.29717  1.0000
  Fe  Fe76      1.0  0.39781  0.70640  0.87159  1.0000
  H   H449      1.0  0.43296  0.64259  0.75341  1.0000
  S   S147      1.0  0.43061  0.73852  0.84593  1.0000
  Fe  Fe77      1.0  0.37136  0.68409  0.94450  1.0000
  H   H450      1.0  0.56935  0.96605  0.65837  1.0000
  Fe  Fe78      1.0  0.38577  0.64026  0.88344  1.0000
  S   S148      1.0  0.40706  0.59526  0.87541  1.0000
  S   S149      1.0  0.41335  0.67358  0.91433  1.0000
  H   H451      1.0  0.53252  0.77022  0.86347  1.0000
  Fe  Fe79      1.0  0.43693  0.92478  0.69538  1.0000
  S   S150      1.0  0.45025  0.89056  0.73785  1.0000
  S   S151      1.0  0.46113  0.92450  0.64090  1.0000
  Fe  Fe80      1.0  0.39968  0.95993  0.75068  1.0000
  S   S152      1.0  0.41033  0.92878  0.79738  1.0000
  C   C449      1.0  0.35628  0.55735  0.79568  1.0000
  Fe  Fe81      1.0  0.45654  0.92966  0.77494  1.0000
  S   S153      1.0  0.49822  0.93389  0.80849  1.0000
  Fe  Fe82      1.0  0.40279  0.89245  0.75624  1.0000
  H   H452      1.0  0.51453  0.95087  0.73178  1.0000
  S   S154      1.0  0.44670  0.96392  0.73148  1.0000
  H   H453      1.0  0.54737  0.94463  0.87201  1.0000
  C   C450      1.0  0.50801  0.97173  0.80702  1.0000
  H   H454      1.0  0.46722  0.56255  0.82401  1.0000
  H   H455      1.0  0.53137  0.60406  0.58604  1.0000
  H   H456      1.0  0.46022  0.53863  0.75493  1.0000
  S   S155      1.0  0.36929  0.99965  0.75767  1.0000
  C   C451      1.0  0.39207  0.57029  0.84309  1.0000
  C   C452      1.0  0.40459  0.54180  0.84004  1.0000
  C   C453      1.0  0.39282  0.52103  0.81522  1.0000
  C   C454      1.0  0.65106  0.84258  0.04979  1.0000
  S   S156      1.0  0.37115  0.69668  0.00462  1.0000
  C   C455      1.0  0.48081  0.85776  0.84100  1.0000
  H   H457      1.0  0.42313  0.53551  0.85741  1.0000
  S   S157      1.0  0.59127  0.53439  0.72612  1.0000
  C   C456      1.0  0.36808  0.57821  0.82053  1.0000
  C   C457      1.0  0.41459  0.77030  0.82507  1.0000
  C   C458      1.0  0.43292  0.79234  0.80958  1.0000
  C   C459      1.0  0.42050  0.81815  0.79359  1.0000
  C   C460      1.0  0.38967  0.82182  0.79259  1.0000
  S   S158      1.0  0.38856  0.92355  0.71052  1.0000
  C   C461      1.0  0.38379  0.77386  0.82374  1.0000
  H   H458      1.0  0.45670  0.78927  0.80961  1.0000
  H   H459      1.0  0.43470  0.83494  0.78148  1.0000
  H   H460      1.0  0.54592  0.93622  0.70830  1.0000
  C   C462      1.0  0.36830  0.52853  0.79341  1.0000
  H   H461      1.0  0.57721  0.78928  0.83136  1.0000
  H   H462      1.0  0.66747  0.71124  0.78757  1.0000
  C   C463      1.0  0.60808  0.67139  0.66801  1.0000
  C   C464      1.0  0.41037  0.91963  0.59864  1.0000
  C   C465      1.0  0.44137  0.91916  0.59955  1.0000
  C   C466      1.0  0.58502  0.67463  0.64256  1.0000
  H   H463      1.0  0.39803  0.92266  0.62377  1.0000
  C   C467      1.0  0.61277  0.64492  0.59964  1.0000
  C   C468      1.0  0.37136  0.79947  0.80739  1.0000
  Fe  Fe83      1.0  0.63021  0.85180  0.87636  1.0000
  S   S159      1.0  0.60238  0.82557  0.91569  1.0000
  S   S160      1.0  0.60769  0.88683  0.84178  1.0000
  Fe  Fe84      1.0  0.64086  0.82983  0.95469  1.0000
  S   S161      1.0  0.62707  0.84440  0.01141  1.0000
  Fe  Fe85      1.0  0.62555  0.78522  0.89413  1.0000
  S   S162      1.0  0.59783  0.74443  0.88245  1.0000
  C   C469      1.0  0.55799  0.98519  0.66970  1.0000
  S   S163      1.0  0.64987  0.81113  0.85081  1.0000
  Fe  Fe86      1.0  0.61982  0.61330  0.75082  1.0000
  C   C470      1.0  0.60736  0.57018  0.55966  1.0000
  H   H464      1.0  0.61430  0.63464  0.57281  1.0000
  Fe  Fe87      1.0  0.56582  0.57318  0.74836  1.0000
  H   H465      1.0  0.57896  0.99001  0.86494  1.0000
  S   S164      1.0  0.51670  0.56861  0.75768  1.0000
  Fe  Fe88      1.0  0.62523  0.54702  0.76841  1.0000
  C   C471      1.0  0.55260  0.59461  0.57861  1.0000
  Fe  Fe89      1.0  0.61278  0.56822  0.68958  1.0000
  S   S165      1.0  0.62392  0.55834  0.63064  1.0000
  S   S166      1.0  0.59841  0.58384  0.79326  1.0000
  S   S167      1.0  0.58454  0.60631  0.70797  1.0000
  C   C472      1.0  0.62672  0.92031  0.83305  1.0000
  C   C473      1.0  0.61483  0.94027  0.80723  1.0000
  C   C474      1.0  0.62806  0.96817  0.80131  1.0000
  H   H466      1.0  0.65726  0.60864  0.59256  1.0000
  H   H467      1.0  0.63275  0.90319  0.96544  1.0000
  C   C475      1.0  0.66140  0.62378  0.61613  1.0000
  H   H468      1.0  0.59524  0.93410  0.79177  1.0000
  H   H469      1.0  0.61853  0.98334  0.78147  1.0000
  H   H470      1.0  0.65020  0.74556  0.83606  1.0000
  C   C476      1.0  0.61110  0.71987  0.84869  1.0000
  C   C477      1.0  0.59482  0.69409  0.84033  1.0000
  C   C478      1.0  0.60466  0.67447  0.81298  1.0000
  C   C479      1.0  0.63078  0.68071  0.79374  1.0000
  C   C480      1.0  0.64718  0.70636  0.80226  1.0000
  C   C481      1.0  0.63741  0.72587  0.82972  1.0000
  H   H471      1.0  0.57448  0.68934  0.85498  1.0000
  H   H472      1.0  0.59188  0.65475  0.80656  1.0000
  N   N39       1.0  0.50707  0.83860  0.83824  1.0000
  H   H473      1.0  0.41242  0.99661  0.81684  1.0000
  C   C482      1.0  0.53788  0.98005  0.80611  1.0000
  H   H474      1.0  0.45131  0.59350  0.77530  1.0000
  H   H475      1.0  0.48726  0.53048  0.66654  1.0000
  H   H476      1.0  0.55487  0.96319  0.80791  1.0000
  C   C483      1.0  0.53232  0.79242  0.85124  1.0000
  N   N40       1.0  0.63490  0.64116  0.62514  1.0000
  C   C484      1.0  0.57142  0.58309  0.60614  1.0000
  C   C485      1.0  0.59894  0.57104  0.59671  1.0000
  H   H477      1.0  0.59893  0.91176  0.98957  1.0000
  C   C486      1.0  0.58736  0.66139  0.60809  1.0000
  H   H478      1.0  0.56465  0.58369  0.63459  1.0000
  H   H479      1.0  0.56188  0.90544  0.91659  1.0000
  H   H480      1.0  0.47514  0.86741  0.81361  1.0000
  C   C487      1.0  0.50677  0.53125  0.76562  1.0000
  S   S168      1.0  0.37328  0.85394  0.77303  1.0000
  H   H481      1.0  0.53211  0.87196  0.80979  1.0000
  H   H482      1.0  0.48755  0.80191  0.86734  1.0000
  H   H483      1.0  0.60652  0.68138  0.69507  1.0000
  S   S169      1.0  0.34475  0.64824  0.91699  1.0000
  C   C488      1.0  0.52637  0.95108  0.70504  1.0000
  H   H484      1.0  0.48117  0.91481  0.56728  1.0000
  C   C489      1.0  0.45717  0.91529  0.56670  1.0000
  C   C490      1.0  0.50709  0.81055  0.85347  1.0000
  H   H485      1.0  0.55092  0.51691  0.78011  1.0000
  H   H486      1.0  0.54006  0.51927  0.67844  1.0000
  H   H487      1.0  0.62463  0.99524  0.90245  1.0000
  H   H488      1.0  0.65062  0.65165  0.67897  1.0000
  C   C491      1.0  0.47718  0.52233  0.76142  1.0000
  S   S170      1.0  0.64333  0.65716  0.75855  1.0000
  C   C492      1.0  0.55750  0.80311  0.83324  1.0000
  H   H489      1.0  0.34749  0.80183  0.80614  1.0000
  H   H490      1.0  0.48531  0.87647  0.86009  1.0000
  N   N41       1.0  0.46669  0.61016  0.82671  1.0000
  C   C493      1.0  0.47037  0.63465  0.84847  1.0000
  C   C494      1.0  0.45384  0.61288  0.79271  1.0000
  C   C495      1.0  0.46066  0.66275  0.83656  1.0000
  C   C496      1.0  0.44359  0.64060  0.78009  1.0000
  C   C497      1.0  0.44704  0.66567  0.80224  1.0000
  C   C498      1.0  0.47749  0.58108  0.83968  1.0000
  H   H491      1.0  0.48039  0.63244  0.87548  1.0000
  H   H492      1.0  0.50195  0.57982  0.83632  1.0000
  H   H493      1.0  0.37125  0.91714  0.56443  1.0000
  C   C499      1.0  0.65360  0.97613  0.82079  1.0000
  C   C500      1.0  0.57549  0.92531  0.91405  1.0000
  H   H494      1.0  0.51126  0.94179  0.68379  1.0000
  H   H495      1.0  0.35857  0.60029  0.82238  1.0000
  C   C501      1.0  0.56717  0.94743  0.88876  1.0000
  C   C502      1.0  0.52071  0.00548  0.70805  1.0000
  S   S171      1.0  0.66197  0.78702  0.93652  1.0000
  H   H496      1.0  0.46330  0.68211  0.85400  1.0000
  H   H497      1.0  0.36953  0.75675  0.83501  1.0000
  H   H498      1.0  0.43901  0.68733  0.79308  1.0000
  C   C503      1.0  0.48602  0.99358  0.80399  1.0000
  H   H499      1.0  0.57692  0.84035  0.80430  1.0000
  H   H500      1.0  0.46099  0.84527  0.85083  1.0000
  S   S172      1.0  0.67031  0.01118  0.81397  1.0000
  C   C504      1.0  0.61050  0.97581  0.90599  1.0000
  C   C505      1.0  0.54579  0.01010  0.80162  1.0000
  H   H501      1.0  0.56949  0.66348  0.58807  1.0000
  H   H502      1.0  0.47147  0.57750  0.86898  1.0000
  C   C506      1.0  0.63300  0.65445  0.65879  1.0000
  N   N42       1.0  0.60072  0.92839  0.93475  1.0000
  S   S173      1.0  0.35827  0.72001  0.90453  1.0000
  S   S174      1.0  0.37347  0.67221  0.83814  1.0000
  H   H503      1.0  0.46289  0.98727  0.80492  1.0000
  C   C507      1.0  0.55731  0.83175  0.81802  1.0000
  H   H504      1.0  0.63799  0.95578  0.94771  1.0000
  C   C508      1.0  0.53187  0.84944  0.82111  1.0000
  C   C509      1.0  0.60832  0.90572  0.96243  1.0000
  S   S175      1.0  0.65024  0.51576  0.80631  1.0000
  C   C510      1.0  0.61805  0.95332  0.93121  1.0000
  S   S176      1.0  0.64956  0.57735  0.72961  1.0000
  C   C511      1.0  0.58485  0.97282  0.88476  1.0000
  N   N43       1.0  0.53549  0.98134  0.69445  1.0000
  C   C512      1.0  0.39526  0.91651  0.56501  1.0000
  H   H505      1.0  0.56532  0.68724  0.64962  1.0000
  H   H506      1.0  0.59950  0.88346  0.95480  1.0000
  S   S177      1.0  0.66715  0.85923  0.91655  1.0000
  C   C513      1.0  0.35038  0.67616  0.03696  1.0000
  C   C514      1.0  0.65259  0.92796  0.85221  1.0000
  H   H507      1.0  0.66777  0.60915  0.63971  1.0000
  H   H508      1.0  0.50249  0.00246  0.72706  1.0000
  C   C515      1.0  0.66604  0.95586  0.84603  1.0000
  H   H509      1.0  0.66190  0.91270  0.87220  1.0000
  H   H510      1.0  0.67647  0.62917  0.82549  1.0000
  Fe  Fe90      1.0  0.72071  0.38900  0.25981  1.0000
  S   S178      1.0  0.68547  0.40590  0.22099  1.0000
  S   S179      1.0  0.76119  0.41711  0.27231  1.0000
  H   H511      1.0  0.75580  0.37008  0.32746  1.0000
  C   C516      1.0  0.81909  0.03716  0.31233  1.0000
  S   S180      1.0  0.68852  0.37198  0.30194  1.0000
  S   S181      1.0  0.72488  0.34533  0.23116  1.0000
  Fe  Fe91      1.0  0.96197  0.37830  0.39234  1.0000
  S   S182      1.0  0.92794  0.39365  0.35107  1.0000
  H   H512      1.0  0.97641  0.49054  0.43388  1.0000
  Fe  Fe92      1.0  0.93817  0.41909  0.45316  1.0000
  S   S183      1.0  0.90224  0.43757  0.41664  1.0000
  S   S184      1.0  0.94886  0.44033  0.50797  1.0000
  Fe  Fe93      1.0  0.89588  0.39033  0.39805  1.0000
  S   S185      1.0  0.85104  0.36803  0.39311  1.0000
  Fe  Fe94      1.0  0.93742  0.43926  0.37327  1.0000
  S   S186      1.0  0.94284  0.48131  0.33994  1.0000
  S   S187      1.0  0.92921  0.37135  0.43827  1.0000
  S   S188      1.0  0.97392  0.42420  0.41091  1.0000
  Fe  Fe95      1.0  0.80928  0.14534  0.21573  1.0000
  S   S189      1.0  0.84973  0.16922  0.23600  1.0000
  S   S190      1.0  0.79352  0.14291  0.15697  1.0000
  Fe  Fe96      1.0  0.79228  0.12353  0.29262  1.0000
  S   S191      1.0  0.83144  0.14560  0.31962  1.0000
  S   S192      1.0  0.76021  0.09352  0.32267  1.0000
  Fe  Fe97      1.0  0.82029  0.18413  0.28206  1.0000
  S   S193      1.0  0.82185  0.23265  0.29743  1.0000
  Fe  Fe98      1.0  0.85723  0.12877  0.27140  1.0000
  S   S194      1.0  0.90079  0.10420  0.27297  1.0000
  S   S195      1.0  0.77898  0.16333  0.25884  1.0000
  S   S196      1.0  0.81904  0.10341  0.24732  1.0000
  C   C517      1.0  0.81390  0.16091  0.12218  1.0000
  C   C518      1.0  0.83823  0.17908  0.13042  1.0000
  C   C519      1.0  0.85543  0.19127  0.10190  1.0000
  H   H513      1.0  0.86728  0.06708  0.32513  1.0000
  H   H514      1.0  0.84418  0.18329  0.15866  1.0000
  H   H515      1.0  0.87460  0.20484  0.10835  1.0000
  H   H516      1.0  0.89155  0.03914  0.30743  1.0000
  C   C520      1.0  0.70363  0.15820  0.35601  1.0000
  N   N44       1.0  0.84684  0.02480  0.31427  1.0000
  C   C521      1.0  0.72853  0.14344  0.34186  1.0000
  C   C522      1.0  0.72902  0.11230  0.34024  1.0000
  C   C523      1.0  0.70450  0.09597  0.35300  1.0000
  H   H517      1.0  0.84143  0.09110  0.15030  1.0000
  C   C524      1.0  0.94006  0.04273  0.42797  1.0000
  H   H518      1.0  0.74749  0.15614  0.33260  1.0000
  H   H519      1.0  0.91394  0.15017  0.21309  1.0000
  H   H520      1.0  0.87683  0.10603  0.19902  1.0000
  C   C525      1.0  0.97450  0.14303  0.34499  1.0000
  C   C526      1.0  0.94685  0.15731  0.34283  1.0000
  C   C527      1.0  0.92407  0.14562  0.32068  1.0000
  C   C528      1.0  0.92895  0.11964  0.30055  1.0000
  C   C529      1.0  0.95671  0.10557  0.30238  1.0000
  C   C530      1.0  0.97946  0.11730  0.32448  1.0000
  H   H521      1.0  0.94295  0.17728  0.35863  1.0000
  H   H522      1.0  0.90275  0.15667  0.31931  1.0000
  H   H523      1.0  0.96067  0.08554  0.28671  1.0000
  H   H524      1.0  0.92952  0.10607  0.42022  1.0000
  C   C531      1.0  0.97081  0.06936  0.46954  1.0000
  C   C532      1.0  0.84855  0.18507  0.06510  1.0000
  H   H525      1.0  0.93621  0.11762  0.20485  1.0000
  S   S197      1.0  0.99683  0.34382  0.37848  1.0000
  C   C533      1.0  0.69924  0.47776  0.27606  1.0000
  C   C534      1.0  0.86710  0.11112  0.10671  1.0000
  H   H526      1.0  0.83472  0.30176  0.39501  1.0000
  C   C535      1.0  0.73832  0.28615  0.16963  1.0000
  H   H527      1.0  0.69474  0.09725  0.49832  1.0000
  H   H528      1.0  0.78332  0.27481  0.15714  1.0000
  C   C536      1.0  0.90807  0.29725  0.30972  1.0000
  H   H529      1.0  0.96917  0.11161  0.41989  1.0000
  C   C537      1.0  0.72791  0.27062  0.30080  1.0000
  C   C538      1.0  0.75221  0.28949  0.29483  1.0000
  C   C539      1.0  0.78113  0.27790  0.29462  1.0000
  C   C540      1.0  0.78586  0.24742  0.30079  1.0000
  C   C541      1.0  0.76169  0.22879  0.30834  1.0000
  C   C542      1.0  0.73275  0.24034  0.30825  1.0000
  H   H530      1.0  0.74879  0.31308  0.29053  1.0000
  H   H531      1.0  0.79969  0.29252  0.28901  1.0000
  H   H532      1.0  0.76529  0.20551  0.31458  1.0000
  H   H533      1.0  0.71409  0.22570  0.31343  1.0000
  C   C543      1.0  0.78653  0.40188  0.30445  1.0000
  C   C544      1.0  0.81546  0.41339  0.30642  1.0000
  C   C545      1.0  0.83555  0.40291  0.33326  1.0000
  C   C546      1.0  0.82671  0.38090  0.35836  1.0000
  C   C547      1.0  0.79801  0.36887  0.35584  1.0000
  C   C548      1.0  0.77800  0.37922  0.32885  1.0000
  H   H534      1.0  0.82240  0.43023  0.28684  1.0000
  H   H535      1.0  0.85786  0.41175  0.33459  1.0000
  H   H536      1.0  0.79103  0.35179  0.37512  1.0000
  C   C549      1.0  0.95884  0.01781  0.48224  1.0000
  H   H537      1.0  0.92238  0.51065  0.26766  1.0000
  H   H538      1.0  0.85411  0.46584  0.32278  1.0000
  H   H539      1.0  0.69847  0.33562  0.05956  1.0000
  H   H540      1.0  0.79972  0.22529  0.22399  1.0000
  N   N45       1.0  0.95447  0.06836  0.43776  1.0000
  C   C550      1.0  0.73898  0.23537  0.21349  1.0000
  S   S198      1.0  0.69484  0.34846  0.13587  1.0000
  H   H541      1.0  0.78415  0.20070  0.18968  1.0000
  C   C551      1.0  0.92621  0.13771  0.19163  1.0000
  H   H542      1.0  0.69403  0.24711  0.22809  1.0000
  C   C552      1.0  0.95115  0.09515  0.41475  1.0000
  C   C553      1.0  0.91149  0.13671  0.12635  1.0000
  C   C554      1.0  0.88133  0.11220  0.17069  1.0000
  C   C555      1.0  0.82366  0.16772  0.05687  1.0000
  H   H543      1.0  0.90571  0.39316  0.52041  1.0000
  C   C556      1.0  0.79008  0.22418  0.19591  1.0000
  H   H544      1.0  0.69330  0.29227  0.18787  1.0000
  H   H545      1.0  0.70351  0.18230  0.35742  1.0000
  C   C557      1.0  0.87230  0.04281  0.32595  1.0000
  C   C558      1.0  0.71329  0.25285  0.21163  1.0000
  H   H546      1.0  0.92697  0.04194  0.40291  1.0000
  H   H547      1.0  0.95649  0.04480  0.34264  1.0000
  H   H548      1.0  0.87891  0.03644  0.35436  1.0000
  C   C559      1.0  0.84508  0.48705  0.33146  1.0000
  N   N46       1.0  0.76359  0.24303  0.19361  1.0000
  S   S199      1.0  0.69139  0.28407  0.29687  1.0000
  H   H549      1.0  0.01016  0.05697  0.33954  1.0000
  H   H550      1.0  0.70478  0.07187  0.35184  1.0000
  C   C560      1.0  0.00274  0.47213  0.34691  1.0000
  H   H551      1.0  0.73921  0.21582  0.23127  1.0000
  H   H552      1.0  0.88475  0.49980  0.36070  1.0000
  C   C561      1.0  0.97332  0.04410  0.49216  1.0000
  H   H553      1.0  0.80247  0.48050  0.30534  1.0000
  C   C562      1.0  0.76364  0.26827  0.17223  1.0000
  C   C563      1.0  0.94216  0.01705  0.44989  1.0000
  C   C564      1.0  0.80631  0.15576  0.08537  1.0000
  H   H554      1.0  0.86210  0.28636  0.30044  1.0000
  H   H555      1.0  0.81565  0.06047  0.31894  1.0000
  Fe  Fe99      1.0  0.68988  0.32939  0.27010  1.0000
  N   N47       1.0  0.87027  0.29827  0.35616  1.0000
  C   C565      1.0  0.87852  0.29330  0.32059  1.0000
  C   C566      1.0  0.89096  0.30646  0.38185  1.0000
  H   H556      1.0  0.00256  0.39691  0.33361  1.0000
  C   C567      1.0  0.92072  0.31033  0.37199  1.0000
  C   C568      1.0  0.92924  0.30597  0.33565  1.0000
  C   C569      1.0  0.83904  0.29442  0.36641  1.0000
  C   C570      1.0  0.86148  0.10328  0.14322  1.0000
  H   H557      1.0  0.88442  0.31077  0.40998  1.0000
  C   C571      1.0  0.97279  0.02713  0.34354  1.0000
  H   H558      1.0  0.93711  0.31701  0.39228  1.0000
  H   H559      1.0  0.93068  0.15020  0.11940  1.0000
  H   H560      1.0  0.83241  0.27064  0.36373  1.0000
  H   H561      1.0  0.95223  0.30951  0.32775  1.0000
  H   H562      1.0  0.82471  0.30829  0.34820  1.0000
  H   H563      1.0  0.73848  0.30628  0.15291  1.0000
  H   H564      1.0  0.98240  0.08961  0.47738  1.0000
  H   H565      1.0  0.91447  0.29366  0.28140  1.0000
  H   H566      1.0  0.95228  0.08935  0.38516  1.0000
  H   H567      1.0  0.00092  0.10658  0.32554  1.0000
  N   N48       1.0  0.90590  0.12876  0.16209  1.0000
  H   H568      1.0  0.99784  0.44865  0.34477  1.0000
  S   S200      1.0  0.00217  0.15692  0.37450  1.0000
  H   H569      1.0  0.80744  0.23108  0.17598  1.0000
  Fe  Fe100     1.0  0.68692  0.36040  0.19546  1.0000
  H   H570      1.0  0.78743  0.14178  0.07889  1.0000
  H   H571      1.0  0.71647  0.46222  0.26803  1.0000
  C   C572      1.0  0.81624  0.49538  0.32157  1.0000
  H   H572      1.0  0.94447  0.15224  0.18155  1.0000
  C   C573      1.0  0.00312  0.03405  0.34195  1.0000
  H   H573      1.0  0.85148  0.10500  0.08525  1.0000
  H   H574      1.0  0.98655  0.04506  0.51712  1.0000
  C   C574      1.0  0.71295  0.27828  0.18933  1.0000
  C   C575      1.0  0.97993  0.49307  0.34334  1.0000
  C   C576      1.0  0.89225  0.12793  0.09813  1.0000
  H   H575      1.0  0.89625  0.13496  0.06992  1.0000
  C   C577      1.0  0.86235  0.50612  0.35279  1.0000
  C   C578      1.0  0.99609  0.49924  0.44740  1.0000
  C   C579      1.0  0.70305  0.50834  0.27044  1.0000
  H   H576      1.0  0.77263  0.02995  0.30053  1.0000
  C   C580      1.0  0.93435  0.42412  0.54832  1.0000
  C   C581      1.0  0.79458  0.01993  0.30195  1.0000
  C   C582      1.0  0.91292  0.40161  0.54676  1.0000
  C   C583      1.0  0.67897  0.14193  0.36832  1.0000
  C   C584      1.0  0.67942  0.11076  0.36686  1.0000
  C   C585      1.0  0.67887  0.11472  0.50430  1.0000
  H   H577      1.0  0.68052  0.13400  0.44979  1.0000
  Fe  Fe101     1.0  0.87600  0.20538  0.89274  1.0000
  S   S201      1.0  0.84676  0.17026  0.86796  1.0000
  S   S202      1.0  0.90233  0.23426  0.85374  1.0000
  Fe  Fe102     1.0  0.86219  0.18549  0.97158  1.0000
  S   S203      1.0  0.83181  0.14885  0.95306  1.0000
  S   S204      1.0  0.87231  0.19807  0.03028  1.0000
  Fe  Fe103     1.0  0.86653  0.13966  0.91041  1.0000
  S   S205      1.0  0.88709  0.09463  0.90047  1.0000
  Fe  Fe104     1.0  0.81499  0.18301  0.91253  1.0000
  S   S206      1.0  0.76599  0.18770  0.90129  1.0000
  S   S207      1.0  0.89841  0.17388  0.93202  1.0000
  S   S208      1.0  0.84289  0.22038  0.93432  1.0000
  Fe  Fe105     1.0  0.90135  0.40893  0.70868  1.0000
  S   S209      1.0  0.92497  0.38339  0.75337  1.0000
  S   S210      1.0  0.89116  0.38855  0.65353  1.0000
  Fe  Fe106     1.0  0.88792  0.46174  0.75829  1.0000
  S   S211      1.0  0.90978  0.44038  0.80727  1.0000
  H   H578      1.0  0.72344  0.22624  0.98734  1.0000
  Fe  Fe107     1.0  0.94510  0.42764  0.76731  1.0000
  H   H579      1.0  0.94886  0.32953  0.86409  1.0000
  Fe  Fe108     1.0  0.88760  0.39798  0.78953  1.0000
  S   S212      1.0  0.86451  0.36939  0.83221  1.0000
  S   S213      1.0  0.92506  0.45203  0.71910  1.0000
  S   S214      1.0  0.86225  0.42046  0.74393  1.0000
  H   H580      1.0  0.96638  0.05668  0.70713  1.0000
  S   S215      1.0  0.71794  0.31981  0.90402  1.0000
  C   C586      1.0  0.98881  0.35630  0.86091  1.0000
  C   C587      1.0  0.76562  0.08571  0.86093  1.0000
  C   C588      1.0  0.97457  0.02038  0.77486  1.0000
  H   H581      1.0  0.81687  0.23239  0.00964  1.0000
  H   H582      1.0  0.98536  0.06488  0.66484  1.0000
  H   H583      1.0  0.77244  0.20185  0.99446  1.0000
  C   C589      1.0  0.75258  0.22446  0.90159  1.0000
  C   C590      1.0  0.72195  0.22974  0.89998  1.0000
  C   C591      1.0  0.71105  0.25905  0.90081  1.0000
  C   C592      1.0  0.73077  0.28304  0.90350  1.0000
  C   C593      1.0  0.76131  0.27778  0.90496  1.0000
  C   C594      1.0  0.77215  0.24860  0.90348  1.0000
  H   H584      1.0  0.70659  0.21124  0.89804  1.0000
  C   C595      1.0  0.99859  0.14611  0.83724  1.0000
  H   H585      1.0  0.77665  0.29636  0.90633  1.0000
  H   H586      1.0  0.79565  0.24507  0.90277  1.0000
  C   C596      1.0  0.87310  0.06996  0.86713  1.0000
  C   C597      1.0  0.84853  0.07721  0.84520  1.0000
  C   C598      1.0  0.83773  0.05653  0.81943  1.0000
  H   H587      1.0  0.71240  0.30700  0.98297  1.0000
  H   H588      1.0  0.91653  0.37284  0.87813  1.0000
  C   C599      1.0  0.88718  0.04236  0.86255  1.0000
  H   H589      1.0  0.83793  0.09868  0.84810  1.0000
  H   H590      1.0  0.81878  0.06217  0.80243  1.0000
  C   C600      1.0  0.89449  0.49983  0.62280  1.0000
  C   C601      1.0  0.00466  0.46879  0.78113  1.0000
  C   C602      1.0  0.89226  0.27202  0.84886  1.0000
  C   C603      1.0  0.90438  0.28887  0.81998  1.0000
  C   C604      1.0  0.89620  0.31884  0.81477  1.0000
  C   C605      1.0  0.87607  0.33222  0.83866  1.0000
  C   C606      1.0  0.86424  0.31550  0.86789  1.0000
  C   C607      1.0  0.87220  0.28543  0.87288  1.0000
  H   H591      1.0  0.91984  0.27861  0.80122  1.0000
  H   H592      1.0  0.90521  0.33136  0.79196  1.0000
  H   H593      1.0  0.84866  0.32575  0.88652  1.0000
  H   H594      1.0  0.86295  0.27279  0.89545  1.0000
  C   C608      1.0  0.79256  0.27383  0.00924  1.0000
  H   H595      1.0  0.89773  0.48313  0.56742  1.0000
  H   H596      1.0  0.81805  0.16301  0.02864  1.0000
  C   C609      1.0  0.94358  0.43492  0.58265  1.0000
  C   C610      1.0  0.93112  0.42359  0.61528  1.0000
  C   C611      1.0  0.90932  0.40141  0.61366  1.0000
  C   C612      1.0  0.90046  0.39028  0.57937  1.0000
  H   H597      1.0  0.93809  0.43225  0.64156  1.0000
  C   C613      1.0  0.95836  0.35172  0.86620  1.0000
  H   H598      1.0  0.92784  0.13981  0.86550  1.0000
  H   H599      1.0  0.88641  0.51079  0.67963  1.0000
  N   N49       1.0  0.85271  0.45491  0.63337  1.0000
  C   C614      1.0  0.75352  0.06637  0.83500  1.0000
  H   H600      1.0  0.78750  0.08146  0.87243  1.0000
  S   S216      1.0  0.86566  0.50701  0.75672  1.0000
  H   H601      1.0  0.00282  0.33735  0.85466  1.0000
  C   C615      1.0  0.77037  0.22580  0.99786  1.0000
  N   N50       1.0  0.79308  0.26542  0.81439  1.0000
  C   C616      1.0  0.80917  0.29123  0.81154  1.0000
  C   C617      1.0  0.76274  0.26640  0.81611  1.0000
  C   C618      1.0  0.79510  0.31900  0.81314  1.0000
  C   C619      1.0  0.74790  0.29380  0.81727  1.0000
  C   C620      1.0  0.76428  0.32022  0.81650  1.0000
  C   C621      1.0  0.80841  0.23657  0.81439  1.0000
  H   H602      1.0  0.83309  0.29045  0.80856  1.0000
  H   H603      1.0  0.74987  0.24597  0.81802  1.0000
  H   H604      1.0  0.80811  0.33942  0.81226  1.0000
  H   H605      1.0  0.98773  0.07121  0.83126  1.0000
  H   H606      1.0  0.75310  0.34156  0.81889  1.0000
  H   H607      1.0  0.83098  0.23845  0.82680  1.0000
  H   H608      1.0  0.79612  0.21974  0.83109  1.0000
  H   H609      1.0  0.81057  0.22838  0.78580  1.0000
  H   H610      1.0  0.71571  0.05737  0.80017  1.0000
  H   H611      1.0  0.93814  0.08658  0.85394  1.0000
  N   N51       1.0  0.74017  0.27003  0.99722  1.0000
  H   H612      1.0  0.95869  0.03847  0.77409  1.0000
  S   S217      1.0  0.99298  0.43152  0.78371  1.0000
  C   C622      1.0  0.94018  0.37602  0.87403  1.0000
  C   C623      1.0  0.71085  0.28411  0.99487  1.0000
  H   H613      1.0  0.88366  0.37306  0.57797  1.0000
  H   H614      1.0  0.84903  0.47117  0.68824  1.0000
  C   C624      1.0  0.86561  0.45866  0.59963  1.0000
  H   H615      1.0  0.93843  0.42359  0.88161  1.0000
  H   H616      1.0  0.99229  0.43063  0.87106  1.0000
  N   N52       1.0  0.98302  0.01870  0.67988  1.0000
  H   H617      1.0  0.96021  0.45230  0.58395  1.0000
  H   H618      1.0  0.68103  0.13918  0.86762  1.0000
  H   H619      1.0  0.75912  0.12580  0.89168  1.0000
  C   C625      1.0  0.98314  0.09455  0.83660  1.0000
  H   H620      1.0  0.94881  0.04892  0.66341  1.0000
  H   H621      1.0  0.83190  0.42211  0.66722  1.0000
  H   H622      1.0  0.72393  0.29457  0.82036  1.0000
  H   H623      1.0  0.71069  0.16153  0.84900  1.0000
  N   N53       1.0  0.00075  0.38429  0.86358  1.0000
  C   C626      1.0  0.95250  0.40450  0.87618  1.0000
  H   H624      1.0  0.68741  0.26306  0.89928  1.0000
  C   C627      1.0  0.00487  0.02622  0.77036  1.0000
  C   C628      1.0  0.97022  0.04876  0.67867  1.0000
  N   N54       1.0  0.72170  0.11610  0.85763  1.0000
  H   H625      1.0  0.90643  0.50240  0.81841  1.0000
  C   C629      1.0  0.94967  0.13335  0.85586  1.0000
  H   H626      1.0  0.90626  0.03666  0.87934  1.0000
  H   H627      1.0  0.96101  0.48627  0.76975  1.0000
  H   H628      1.0  0.71137  0.14999  0.89666  1.0000
  C   C630      1.0  0.98297  0.40830  0.87054  1.0000
  C   C631      1.0  0.98436  0.49135  0.77237  1.0000
  H   H629      1.0  0.83449  0.41232  0.62019  1.0000
  H   H630      1.0  0.00052  0.44288  0.70231  1.0000
  C   C632      1.0  0.79534  0.24297  0.00601  1.0000
  H   H631      1.0  0.98506  0.19899  0.86225  1.0000
  C   C633      1.0  0.76460  0.28708  0.00485  1.0000
  H   H632      1.0  0.94950  0.18884  0.87991  1.0000
  C   C634      1.0  0.74939  0.11073  0.87182  1.0000
  C   C635      1.0  0.88678  0.48104  0.59388  1.0000
  C   C636      1.0  0.95531  0.10317  0.84929  1.0000
  C   C637      1.0  0.85164  0.02873  0.81524  1.0000
  C   C638      1.0  0.83046  0.43144  0.63886  1.0000
  C   C639      1.0  0.74274  0.23975  0.99375  1.0000
  H   H633      1.0  0.76599  0.04703  0.82608  1.0000
  C   C640      1.0  0.72540  0.07218  0.82041  1.0000
  H   H634      1.0  0.81195  0.28738  0.01509  1.0000
  C   C641      1.0  0.70544  0.14297  0.86835  1.0000
  C   C642      1.0  0.70975  0.09735  0.83202  1.0000
  H   H635      1.0  0.95369  0.19557  0.83137  1.0000
  H   H636      1.0  0.76254  0.31109  0.00748  1.0000
  C   C643      1.0  0.87661  0.02189  0.83658  1.0000
  C   C644      1.0  0.85959  0.47373  0.66161  1.0000
  C   C645      1.0  0.88067  0.49634  0.65684  1.0000
  H   H637      1.0  0.80785  0.44046  0.63392  1.0000
  N   N55       1.0  0.97133  0.15432  0.85025  1.0000
  H   H638      1.0  0.86032  0.44367  0.57725  1.0000
  H   H639      1.0  0.68800  0.10181  0.82036  1.0000
  H   H640      1.0  0.69574  0.27136  0.97660  1.0000
  C   C646      1.0  0.96466  0.18593  0.85616  1.0000
  H   H641      1.0  0.70074  0.28547  0.02262  1.0000
  C   C647      1.0  0.00494  0.11611  0.83034  1.0000
  Fe  Fe109     1.0  0.71272  0.88388  0.27847  1.0000
  H   H642      1.0  0.72957  0.78135  0.13407  1.0000
  S   S218      1.0  0.74475  0.91658  0.30466  1.0000
  H   H643      1.0  0.76244  0.85522  0.31929  1.0000
  C   C648      1.0  0.69160  0.65150  0.34479  1.0000
  C   C649      1.0  0.82716  0.62003  0.08101  1.0000
  S   S219      1.0  0.72593  0.84082  0.25259  1.0000
  Fe  Fe110     1.0  0.95932  0.88869  0.40279  1.0000
  S   S220      1.0  0.92381  0.90050  0.36180  1.0000
  H   H644      1.0  0.78574  0.69061  0.16864  1.0000
  Fe  Fe111     1.0  0.92878  0.92191  0.46592  1.0000
  S   S221      1.0  0.89058  0.93679  0.43022  1.0000
  S   S222      1.0  0.94040  0.93966  0.52237  1.0000
  Fe  Fe112     1.0  0.89189  0.89024  0.40754  1.0000
  S   S223      1.0  0.85235  0.86090  0.39521  1.0000
  Fe  Fe113     1.0  0.92517  0.94581  0.38741  1.0000
  H   H645      1.0  0.72337  0.51687  0.25827  1.0000
  S   S224      1.0  0.92742  0.87436  0.44692  1.0000
  S   S225      1.0  0.96325  0.93499  0.42467  1.0000
  Fe  Fe114     1.0  0.81559  0.62127  0.21181  1.0000
  S   S226      1.0  0.84966  0.64850  0.24166  1.0000
  S   S227      1.0  0.81930  0.60527  0.15340  1.0000
  Fe  Fe115     1.0  0.77761  0.61164  0.28040  1.0000
  S   S228      1.0  0.80807  0.63866  0.31599  1.0000
  S   S229      1.0  0.74019  0.58359  0.30331  1.0000
  Fe  Fe116     1.0  0.80987  0.66994  0.26764  1.0000
  S   S230      1.0  0.81074  0.71959  0.27483  1.0000
  Fe  Fe117     1.0  0.84502  0.61497  0.28732  1.0000
  S   S231      1.0  0.88058  0.59069  0.31919  1.0000
  S   S232      1.0  0.77585  0.64522  0.23415  1.0000
  S   S233      1.0  0.81451  0.58557  0.25526  1.0000
  C   C650      1.0  0.82769  0.63033  0.11733  1.0000
  C   C651      1.0  0.83511  0.66007  0.12416  1.0000
  C   C652      1.0  0.84186  0.67938  0.09468  1.0000
  H   H646      1.0  0.87281  0.98526  0.30927  1.0000
  H   H647      1.0  0.83603  0.66807  0.15211  1.0000
  H   H648      1.0  0.84784  0.70232  0.10005  1.0000
  H   H649      1.0  0.71023  0.78442  0.19393  1.0000
  H   H650      1.0  0.79240  0.57826  0.34839  1.0000
  C   C653      1.0  0.85056  0.53340  0.36392  1.0000
  C   C654      1.0  0.71421  0.63533  0.32747  1.0000
  C   C655      1.0  0.71266  0.60423  0.32600  1.0000
  H   H651      1.0  0.94558  0.58980  0.26127  1.0000
  H   H652      1.0  0.68799  0.56528  0.34274  1.0000
  C   C656      1.0  0.80519  0.52296  0.33305  1.0000
  H   H653      1.0  0.73281  0.64694  0.31527  1.0000
  H   H654      1.0  0.75856  0.71916  0.21561  1.0000
  H   H655      1.0  0.78276  0.52939  0.32530  1.0000
  C   C657      1.0  0.96882  0.63744  0.34268  1.0000
  C   C658      1.0  0.94682  0.65212  0.32195  1.0000
  C   C659      1.0  0.91943  0.63818  0.31490  1.0000
  C   C660      1.0  0.91392  0.60955  0.32876  1.0000
  C   C661      1.0  0.93579  0.59497  0.34963  1.0000
  C   C662      1.0  0.96325  0.60877  0.35639  1.0000
  H   H656      1.0  0.95098  0.67432  0.31133  1.0000
  H   H657      1.0  0.90263  0.64959  0.29881  1.0000
  H   H658      1.0  0.93147  0.57295  0.36073  1.0000
  H   H659      1.0  0.97997  0.59729  0.37244  1.0000
  C   C663      1.0  0.77286  0.72002  0.12419  1.0000
  H   H660      1.0  0.83007  0.95378  0.29072  1.0000
  H   H661      1.0  0.88254  0.61068  0.17597  1.0000
  H   H662      1.0  0.89123  0.89777  0.52926  1.0000
  H   H663      1.0  0.95217  0.53600  0.27583  1.0000
  H   H664      1.0  0.97788  0.95167  0.34904  1.0000
  H   H665      1.0  0.68760  0.94331  0.29040  1.0000
  H   H666      1.0  0.72217  0.82638  0.07506  1.0000
  H   H667      1.0  0.96924  0.53980  0.34143  1.0000
  H   H668      1.0  0.01066  0.95763  0.52628  1.0000
  C   C664      1.0  0.82688  0.97732  0.29632  1.0000
  H   H669      1.0  0.75664  0.75355  0.08631  1.0000
  C   C665      1.0  0.72111  0.75984  0.30353  1.0000
  C   C666      1.0  0.74651  0.77771  0.30229  1.0000
  C   C667      1.0  0.77413  0.76512  0.29423  1.0000
  C   C668      1.0  0.77658  0.73441  0.28850  1.0000
  C   C669      1.0  0.75148  0.71620  0.29183  1.0000
  C   C670      1.0  0.72370  0.72894  0.29917  1.0000
  H   H670      1.0  0.74484  0.80134  0.30730  1.0000
  H   H671      1.0  0.79341  0.77937  0.29176  1.0000
  H   H672      1.0  0.75331  0.69244  0.28766  1.0000
  H   H673      1.0  0.70409  0.71502  0.30015  1.0000
  C   C671      1.0  0.77439  0.90080  0.33007  1.0000
  C   C672      1.0  0.79469  0.91957  0.34794  1.0000
  C   C673      1.0  0.81905  0.90760  0.36730  1.0000
  C   C674      1.0  0.82274  0.87668  0.36983  1.0000
  C   C675      1.0  0.80212  0.85787  0.35257  1.0000
  C   C676      1.0  0.77812  0.86989  0.33257  1.0000
  H   H674      1.0  0.79135  0.94340  0.34728  1.0000
  H   H675      1.0  0.83454  0.92224  0.38102  1.0000
  H   H676      1.0  0.80470  0.83395  0.35445  1.0000
  C   C677      1.0  0.68827  0.84135  0.11229  1.0000
  C   C678      1.0  0.75782  0.72660  0.18721  1.0000
  C   C679      1.0  0.72646  0.76832  0.20588  1.0000
  H   H677      1.0  0.99601  0.90387  0.33278  1.0000
  H   H678      1.0  0.82157  0.59699  0.07560  1.0000
  Fe  Fe118     1.0  0.68599  0.82192  0.28091  1.0000
  C   C680      1.0  0.81019  0.56982  0.36697  1.0000
  N   N56       1.0  0.74199  0.75149  0.17745  1.0000
  C   C681      1.0  0.96373  0.99746  0.34756  1.0000
  H   H679      1.0  0.71387  0.75309  0.22436  1.0000
  C   C682      1.0  0.74168  0.76131  0.14173  1.0000
  H   H680      1.0  0.92506  0.62571  0.21581  1.0000
  C   C683      1.0  0.75700  0.74568  0.11456  1.0000
  C   C684      1.0  0.79855  0.98982  0.29383  1.0000
  C   C685      1.0  0.68055  0.52801  0.28084  1.0000
  H   H681      1.0  0.86426  0.54823  0.38024  1.0000
  C   C686      1.0  0.89143  0.54697  0.22604  1.0000
  H   H682      1.0  0.70193  0.94732  0.35600  1.0000
  H   H683      1.0  0.78487  0.70763  0.10346  1.0000
  C   C687      1.0  0.92734  0.58301  0.24362  1.0000
  H   H684      1.0  0.97365  0.53703  0.47060  1.0000
  H   H685      1.0  0.77967  0.97602  0.28621  1.0000
  H   H686      1.0  0.68392  0.55177  0.27648  1.0000
  C   C688      1.0  0.98668  0.52350  0.34442  1.0000
  N   N57       1.0  0.91542  0.55505  0.24692  1.0000
  C   C689      1.0  0.77334  0.71042  0.16076  1.0000
  C   C690      1.0  0.84126  0.66905  0.05831  1.0000
  N   N58       1.0  0.86342  0.78668  0.36435  1.0000
  C   C691      1.0  0.88825  0.80416  0.36138  1.0000
  C   C692      1.0  0.85207  0.77264  0.33414  1.0000
  C   C693      1.0  0.90228  0.80808  0.32745  1.0000
  C   C694      1.0  0.86564  0.77591  0.29982  1.0000
  C   C695      1.0  0.89086  0.79382  0.29650  1.0000
  C   C696      1.0  0.84790  0.78394  0.39958  1.0000
  H   H687      1.0  0.89695  0.81584  0.38514  1.0000
  H   H688      1.0  0.83230  0.75888  0.33640  1.0000
  H   H689      1.0  0.92163  0.82243  0.32524  1.0000
  H   H690      1.0  0.85645  0.76475  0.27595  1.0000
  H   H691      1.0  0.90138  0.79679  0.26995  1.0000
  H   H692      1.0  0.82734  0.79764  0.39875  1.0000
  H   H693      1.0  0.84201  0.76031  0.40536  1.0000
  H   H694      1.0  0.86170  0.79222  0.42278  1.0000
  H   H695      1.0  0.86046  0.56037  0.18336  1.0000
  S   S234      1.0  0.00013  0.86050  0.39238  1.0000
  N   N59       1.0  0.82245  0.54164  0.35371  1.0000
  C   C697      1.0  0.91578  0.60344  0.21806  1.0000
  Fe  Fe119     1.0  0.69431  0.85245  0.20696  1.0000
  S   S235      1.0  0.71217  0.84046  0.15078  1.0000
  S   S236      1.0  0.92632  0.98907  0.35604  1.0000
  H   H696      1.0  0.69299  0.67555  0.34611  1.0000
  C   C698      1.0  0.89187  0.59509  0.19590  1.0000
  H   H697      1.0  0.74279  0.78105  0.22247  1.0000
  C   C699      1.0  0.69922  0.83302  0.07772  1.0000
  C   C700      1.0  0.98492  0.97465  0.34727  1.0000
  H   H698      1.0  0.88138  0.52515  0.22945  1.0000
  C   C701      1.0  0.68868  0.58935  0.34241  1.0000
  H   H699      1.0  0.82765  0.58736  0.36798  1.0000
  S   S237      1.0  0.68593  0.77625  0.30686  1.0000
  S   S238      1.0  0.68431  0.89766  0.23025  1.0000
  H   H700      1.0  0.80071  0.56663  0.39483  1.0000
  C   C702      1.0  0.92759  0.53424  0.27433  1.0000
  C   C703      1.0  0.87947  0.56675  0.20000  1.0000
  H   H701      1.0  0.96040  0.99805  0.49956  1.0000
  S   S239      1.0  0.00290  0.65551  0.35111  1.0000
  C   C704      1.0  0.85090  0.99521  0.30684  1.0000
  H   H702      1.0  0.91832  0.53920  0.30187  1.0000
  H   H703      1.0  0.93087  0.99671  0.44180  1.0000
  C   C705      1.0  0.99454  0.52526  0.46808  1.0000
  C   C706      1.0  0.67923  0.95196  0.34755  1.0000
  Fe  Fe120     1.0  0.87062  0.69969  0.88703  1.0000
  S   S240      1.0  0.84783  0.66230  0.85751  1.0000
  S   S241      1.0  0.89713  0.73252  0.85297  1.0000
  Fe  Fe121     1.0  0.85040  0.67748  0.96329  1.0000
  S   S242      1.0  0.82578  0.63843  0.93965  1.0000
  S   S243      1.0  0.84918  0.69407  0.02201  1.0000
  Fe  Fe122     1.0  0.86568  0.63335  0.90296  1.0000
  S   S244      1.0  0.89045  0.59029  0.89381  1.0000
  Fe  Fe123     1.0  0.81037  0.67095  0.89635  1.0000
  S   S245      1.0  0.76284  0.67467  0.87773  1.0000
  S   S246      1.0  0.89163  0.67019  0.92987  1.0000
  S   S247      1.0  0.83188  0.71036  0.92270  1.0000
  Fe  Fe124     1.0  0.87657  0.91342  0.71635  1.0000
  S   S248      1.0  0.90321  0.88523  0.75538  1.0000
  S   S249      1.0  0.86606  0.89466  0.66042  1.0000
  Fe  Fe125     1.0  0.86430  0.96102  0.77432  1.0000
  S   S250      1.0  0.89020  0.93673  0.81806  1.0000
  C   C707      1.0  0.77344  0.89288  0.84713  1.0000
  Fe  Fe126     1.0  0.92312  0.92868  0.77301  1.0000
  S   S251      1.0  0.97256  0.93044  0.78107  1.0000
  Fe  Fe127     1.0  0.86813  0.89550  0.79671  1.0000
  S   S252      1.0  0.84522  0.86301  0.83458  1.0000
  S   S253      1.0  0.89919  0.95645  0.73050  1.0000
  S   S254      1.0  0.83946  0.92021  0.75639  1.0000
  H   H704      1.0  0.97700  0.56184  0.86916  1.0000
  S   S255      1.0  0.73242  0.81121  0.87800  1.0000
  H   H705      1.0  0.68096  0.57729  0.81434  1.0000
  C   C708      1.0  0.98499  0.96743  0.77972  1.0000
  C   C709      1.0  0.93633  0.60106  0.80999  1.0000
  C   C710      1.0  0.75273  0.55493  0.82113  1.0000
  H   H706      1.0  0.97736  0.61489  0.88526  1.0000
  H   H707      1.0  0.94117  0.98652  0.78261  1.0000
  C   C711      1.0  0.75370  0.71233  0.87068  1.0000
  C   C712      1.0  0.77610  0.73358  0.86562  1.0000
  C   C713      1.0  0.76930  0.76405  0.86618  1.0000
  C   C714      1.0  0.73997  0.77334  0.87082  1.0000
  C   C715      1.0  0.71723  0.75210  0.87281  1.0000
  C   C716      1.0  0.72409  0.72157  0.87276  1.0000
  H   H708      1.0  0.79877  0.72655  0.86175  1.0000
  H   H709      1.0  0.78686  0.78036  0.86423  1.0000
  H   H710      1.0  0.78300  0.87368  0.86126  1.0000
  H   H711      1.0  0.70655  0.70524  0.87593  1.0000
  C   C717      1.0  0.88248  0.56749  0.85581  1.0000
  C   C718      1.0  0.86156  0.57565  0.82903  1.0000
  C   C719      1.0  0.85655  0.55706  0.79857  1.0000
  C   C720      1.0  0.87243  0.53029  0.79480  1.0000
  H   H712      1.0  0.73382  0.68123  0.98037  1.0000
  C   C721      1.0  0.89850  0.54096  0.85176  1.0000
  H   H713      1.0  0.84932  0.59623  0.83181  1.0000
  H   H714      1.0  0.84028  0.56331  0.77799  1.0000
  C   C722      1.0  0.92062  0.62791  0.80716  1.0000
  H   H715      1.0  0.88766  0.00071  0.83343  1.0000
  C   C723      1.0  0.88348  0.76928  0.84953  1.0000
  C   C724      1.0  0.89847  0.79020  0.82752  1.0000
  C   C725      1.0  0.88744  0.81938  0.82346  1.0000
  C   C726      1.0  0.86134  0.82769  0.84138  1.0000
  C   C727      1.0  0.84676  0.80701  0.86398  1.0000
  C   C728      1.0  0.85766  0.77785  0.86783  1.0000
  H   H716      1.0  0.91860  0.78379  0.81353  1.0000
  H   H717      1.0  0.89907  0.83532  0.80645  1.0000
  H   H718      1.0  0.82679  0.81351  0.87824  1.0000
  H   H719      1.0  0.84599  0.76210  0.88491  1.0000
  H   H720      1.0  0.68009  0.63894  0.60924  1.0000
  N   N60       1.0  0.95622  0.59650  0.83800  1.0000
  H   H721      1.0  0.83351  0.63109  0.02370  1.0000
  C   C729      1.0  0.92619  0.93781  0.59567  1.0000
  C   C730      1.0  0.90991  0.92810  0.62648  1.0000
  C   C731      1.0  0.88688  0.90742  0.62228  1.0000
  H   H722      1.0  0.70487  0.72414  0.95528  1.0000
  H   H723      1.0  0.91511  0.93659  0.65342  1.0000
  H   H724      1.0  0.70856  0.91738  0.81022  1.0000
  C   C732      1.0  0.78621  0.73567  0.98547  1.0000
  H   H725      1.0  0.94395  0.95379  0.59911  1.0000
  H   H726      1.0  0.78445  0.80088  0.98929  1.0000
  C   C733      1.0  0.94638  0.64565  0.86096  1.0000
  C   C734      1.0  0.00729  0.96186  0.68581  1.0000
  C   C735      1.0  0.76614  0.58285  0.82427  1.0000
  C   C736      1.0  0.96155  0.61846  0.86312  1.0000
  C   C737      1.0  0.74846  0.60850  0.82376  1.0000
  H   H727      1.0  0.79008  0.58463  0.82717  1.0000
  H   H728      1.0  0.81418  0.91821  0.84767  1.0000
  H   H729      1.0  0.72888  0.77345  0.94868  1.0000
  C   C738      1.0  0.72194  0.55299  0.81746  1.0000
  H   H730      1.0  0.69442  0.75909  0.87563  1.0000
  C   C739      1.0  0.74146  0.75501  0.96028  1.0000
  C   C740      1.0  0.97307  0.56857  0.84010  1.0000
  C   C741      1.0  0.73652  0.96820  0.79218  1.0000
  C   C742      1.0  0.97661  0.96577  0.68726  1.0000
  C   C743      1.0  0.77847  0.94229  0.82098  1.0000
  Fe  Fe128     1.0  0.68472  0.81611  0.89440  1.0000
  H   H731      1.0  0.79235  0.96157  0.81508  1.0000
  H   H732      1.0  0.76619  0.53483  0.82146  1.0000
  C   C744      1.0  0.72769  0.72719  0.96421  1.0000
  H   H733      1.0  0.72980  0.87347  0.84276  1.0000
  C   C745      1.0  0.88030  0.89653  0.58708  1.0000
  H   H734      1.0  0.94094  0.99745  0.68648  1.0000
  C   C746      1.0  0.91955  0.92694  0.56046  1.0000
  S   S256      1.0  0.83702  0.00265  0.78390  1.0000
  H   H735      1.0  0.96218  0.94670  0.69186  1.0000
  H   H736      1.0  0.80877  0.78439  0.95538  1.0000
  H   H737      1.0  0.99477  0.57134  0.82595  1.0000
  C   C747      1.0  0.79096  0.91785  0.83947  1.0000
  C   C748      1.0  0.74364  0.89273  0.83655  1.0000
  C   C749      1.0  0.73181  0.91762  0.81818  1.0000
  H   H738      1.0  0.78608  0.68900  0.00074  1.0000
  H   H739      1.0  0.73124  0.98539  0.81300  1.0000
  H   H740      1.0  0.75907  0.63014  0.82577  1.0000
  C   C750      1.0  0.74388  0.70318  0.97839  1.0000
  C   C751      1.0  0.77320  0.70750  0.98966  1.0000
  H   H741      1.0  0.75233  0.97781  0.77184  1.0000
  C   C752      1.0  0.96462  0.99097  0.77952  1.0000
  H   H742      1.0  0.77431  0.80035  0.94112  1.0000
  C   C753      1.0  0.70037  0.63375  0.82034  1.0000
  H   H743      1.0  0.97860  0.53794  0.75913  1.0000
  C   C754      1.0  0.78524  0.78753  0.96373  1.0000
  H   H744      1.0  0.80918  0.73873  0.99379  1.0000
  H   H745      1.0  0.93205  0.58362  0.79014  1.0000
  N   N61       1.0  0.71822  0.60640  0.82092  1.0000
  N   N62       1.0  0.84623  0.81474  0.74001  1.0000
  C   C755      1.0  0.84107  0.79020  0.76167  1.0000
  C   C756      1.0  0.82686  0.83825  0.74002  1.0000
  C   C757      1.0  0.81584  0.78863  0.78392  1.0000
  C   C758      1.0  0.80153  0.83753  0.76220  1.0000
  C   C759      1.0  0.79607  0.81256  0.78436  1.0000
  C   C760      1.0  0.87324  0.81599  0.71768  1.0000
  H   H746      1.0  0.85689  0.77196  0.76258  1.0000
  H   H747      1.0  0.83111  0.85786  0.72312  1.0000
  H   H748      1.0  0.81222  0.76939  0.80164  1.0000
  H   H749      1.0  0.78666  0.85650  0.76284  1.0000
  H   H750      1.0  0.77689  0.81196  0.80238  1.0000
  H   H751      1.0  0.87517  0.79564  0.70064  1.0000
  H   H752      1.0  0.87329  0.83555  0.69859  1.0000
  H   H753      1.0  0.89303  0.81777  0.73587  1.0000
  C   C761      1.0  0.70490  0.57911  0.81730  1.0000
  H   H754      1.0  0.91373  0.67126  0.83110  1.0000
  C   C762      1.0  0.92578  0.65033  0.83281  1.0000
  H   H755      1.0  0.91477  0.53459  0.87233  1.0000
  N   N63       1.0  0.77067  0.75864  0.96964  1.0000
  H   H756      1.0  0.90431  0.63114  0.78553  1.0000
  N   N64       1.0  0.74930  0.94185  0.81035  1.0000
  H   H757      1.0  0.68923  0.82733  0.01994  1.0000
  H   H758      1.0  0.70224  0.64499  0.79313  1.0000
  C   C763      1.0  0.99429  0.52064  0.76659  1.0000
  H   H759      1.0  0.70807  0.64944  0.84194  1.0000
  H   H760      1.0  0.86251  0.88057  0.58360  1.0000
  H   H761      1.0  0.00201  0.86857  0.84144  1.0000
  H   H762      1.0  0.71565  0.96280  0.77718  1.0000
  H   H763      1.0  0.95028  0.66288  0.88121  1.0000
  C   C764      1.0  0.96477  0.99453  0.68434  1.0000
  H   H764      1.0  0.68578  0.96193  0.86128  1.0000
  H   H765      1.0  0.00428  0.81331  0.84358  1.0000
  H   H766      1.0  0.71127  0.53139  0.81477  1.0000
  H   H767      1.0  0.96077  0.54996  0.82694  1.0000
  H   H768      1.0  0.91126  0.51692  0.61891  1.0000
  C   C765      1.0  0.68066  0.83359  0.04651  1.0000
  C   C766      1.0  0.89365  0.52255  0.82131  1.0000
  C   C767      1.0  0.83388  0.63932  0.05156  1.0000
  C   C768      1.0  0.89655  0.90626  0.55625  1.0000
