data_image0
_chemical_formula_structural       FeHC2NHS2H2CH4SCHCH2C4HC2HC3HFeH2SHNCHC2H4C2HCHFeC2SH7SC4SHCH4CHNSCHSCSH2C2HC4HCFeH2FeSHFeHCHCHFeHSHCSC2HCH2CNCH2C5H3CHCHC3HCHCH2C2HCSC2H4CHCSH2C2SH3C3H2NCHCH4CSCH2SHSHCS2H2SH2SHC4H2CHCHSCHC4H2SNHS2CH2C2HSCSHCFeS2FeSHFeSFeHS3CHSCFeSFeSHSNC8H5FeHSH2FeH2CSC3HCSHC2HCH2C3SCNH3SCNCHCHC6H2CH4CHCH4CH2SHCH3FeCH3CH2N2C2HC5HC3HC2HC2FeH3C3NHC3H3CH2C2FeSHFeSCFeSFeS3FeHFeCFeSHS2HSCFeSCFeSFeS2CH2FeH2NCHS2H3C2SHFeH4CFeC3HNCHFeH5C2HFeCHC2HCH3C6H4CHCH2C5HCH2C3SH5C2HSCH3CHC3NHSCHC3HC2NC2HC2NCH2C3H3C2HC2NCH4CHCH2C2SHSCNC3H2C2HCH3C4HCNHC2H3CH2CHFeHNCHC2H3CSH3CSCSCHCHCHSC2H2NCFeHSFeSCHCHSCFeSCHFeHFeH2FeSHFeHS2CS3CHNFeS2FeCFeC3FeHS2CHC2H2FeH2FeSCH2C2HCSCNC2HSFeCSH2C2H2FeHCSCH3CSCSHCSC3HC4FeHCFeHC2NC2HCHCHSH2NHC3SHCHSCH2CHC2H2CHCFeSH3CHNHCH2CHCSH2CSHSCNHCHC3FeC2H2C2HC2HCH2SCH2CHC2H2SCH2SHCHC2SCHCHC2HC2H3CHCHC4HSHSCH2FeCSC3S2FeCFeSCFeCS2FeSHFeS2NCNH2C2HSC2FeC3HFeHCFeSCH2FeH4CHC2HCH2CHCHC2HCH2NH2SCSCH2SHCSHSHSCFeC2HCSCHNHC2FeC2HSHCHC2FeSH3SHCHCSHCFeCSH2CHC2H5C2H2CHC4NHCHCHSH2C3HFeSCFeSH2CFeSCSFeS2FeS2FeSFeS3CH2CHCH3C3HC2H2CNC2H5SC7H6NC3H3S2C2H2C4HCH2CHCFeH2CH3CHCH2NCSH7C3SHC2NC2FeSHFeS2FeSFeS2HFeSCFeS2FeSFeS3H5CHSC6H5CH2SCHCHNCH4C2HC2H3CNC2HC3H4CH3NCH3CHCHC5H3CH2CHCHC4HSC2NCHCH3CHCHNC5SCSHCFeSH2CFeS2CFeCFeS2FeHSHCHFeSCHFeCHC2HCHC2HFeH2SNCHCHCSCSC3HCHCHC2H2C4SCH2CFeC2H4SCH2C3HCS2HSHC4HCSHC2H2NH3CSH2C2HSNCH2FeHC2HCH2FeSHSCHFeSFeCSHSCSCFeSHSFeSCHCFeSH3Fe3CS2FeSFeSCFeHS2C2Fe2CHCHC5H2C4HC2H4CHC3HCH2SCHCHCHSHCHCHFeCNCSHSCH2NC3HCHNCSC2HSH2CSNFeHSHC3H3CHC2H4SC2H6CHFeCHSHSHC4HFeH3CHCSHFe2C2NSNC9HCH2C4HSC4HC4HCSHC2HCHC2HNHCH5C4SH3CHCH3CNFeSHFeS2FeHFeSCSFeHFeS2FeS3FeSHFeSCFeSFeSHSHFeSNSFeCFeSCH2CH3C2HC2HC2H2FeCHCSHCHC3HC7H5CH2NHC7H3C2H4C3S2C2HNCHCSHCSC2HCHSCHC3HC3HSCH2CNC6H3C2H5CHSC3SNHCHCH2CH3C2NH5CH4C2FeCH3CH2SC3H2NC2HC3SHC2HCH2NHCH4CSH2SHCHC2SHNCSH2FeCFeS2FeHFeS3FeSHFeSHFeSFeSHSHC6H4S2CS2H3C3SHCH3CH2CH3CH2CHSC2SH2C5NC3H2CHSHFeCH4C4H2C2H5SC2HCHCHCHCHC2NH2CHCHC2HC2HCH3NCHFeSCFeSH2CSCH2SC2H2SH4CH3NC2S2HC3SCH2C3HC5HCSHSH2C2H2CHNHCH4CHC3H4CHC2SH2CHFeH2C3HC3H2CNH2CHCHCH3C2HC3H3CH3SC2HCNHCNHSC2HCHCHC2H2FeSCH2C2FeSH2CH2CHCH2CS2FeHSHCNC5H3CHC2SC2SHC5HCNHFeHC
_chemical_formula_sum              "Fe144 H864 C864 N72 S288"
_cell_length_a       79.7328
_cell_length_b       79.686
_cell_length_c       36.8211
_cell_angle_alpha    91.5217
_cell_angle_beta     91.3963
_cell_angle_gamma    116.074

_space_group_name_H-M_alt    "P 1"
_space_group_IT_number       1

loop_
  _space_group_symop_operation_xyz
  'x, y, z'

loop_
  _atom_site_type_symbol
  _atom_site_label
  _atom_site_symmetry_multiplicity
  _atom_site_fract_x
  _atom_site_fract_y
  _atom_site_fract_z
  _atom_site_occupancy
  Fe  Fe1       1.0  0.43345  0.01025  0.46524  1.0000
  H   H1        1.0  0.43589  0.12883  0.02593  1.0000
  C   C1        1.0  0.44162  0.04497  0.13520  1.0000
  C   C2        1.0  0.40517  0.02527  0.20459  1.0000
  N   N1        1.0  0.42339  0.03699  0.15196  1.0000
  H   H2        1.0  0.43494  0.03544  0.20394  1.0000
  S   S1        1.0  0.44289  0.00713  0.40913  1.0000
  S   S2        1.0  0.44708  0.00608  0.09080  1.0000
  H   H3        1.0  0.45044  0.03838  0.14558  1.0000
  H   H4        1.0  0.44483  0.14600  0.06274  1.0000
  C   C3        1.0  0.42845  0.00113  0.29901  1.0000
  H   H5        1.0  0.45915  0.05673  0.02312  1.0000
  H   H6        1.0  0.40840  0.03767  0.10363  1.0000
  H   H7        1.0  0.37760  0.02364  0.13138  1.0000
  H   H8        1.0  0.44543  0.09219  0.46748  1.0000
  S   S3        1.0  0.41932  0.02968  0.03658  1.0000
  C   C4        1.0  0.41911  0.06129  0.01009  1.0000
  H   H9        1.0  0.44013  0.04240  0.10518  1.0000
  C   C5        1.0  0.39012  0.02633  0.14765  1.0000
  H   H10       1.0  0.45226  0.01325  0.26524  1.0000
  H   H11       1.0  0.43650  0.00696  0.32413  1.0000
  C   C6        1.0  0.38892  0.02174  0.18414  1.0000
  C   C7        1.0  0.42240  0.03303  0.18800  1.0000
  C   C8        1.0  0.45211  0.08635  0.48577  1.0000
  C   C9        1.0  0.45003  0.06302  0.01589  1.0000
  H   H12       1.0  0.47639  0.00683  0.46751  1.0000
  C   C10       1.0  0.43060  0.05282  0.01975  1.0000
  C   C11       1.0  0.40761  0.03418  0.13201  1.0000
  H   H13       1.0  0.43658  0.05811  0.46294  1.0000
  C   C12       1.0  0.45675  0.17547  0.02208  1.0000
  C   C13       1.0  0.44706  0.06698  0.48306  1.0000
  C   C14       1.0  0.44752  0.14259  0.03470  1.0000
  H   H14       1.0  0.40444  0.02171  0.23299  1.0000
  Fe  Fe2       1.0  0.42155  0.00426  0.06037  1.0000
  H   H15       1.0  0.44887  0.06028  0.14117  1.0000
  H   H16       1.0  0.37544  0.01542  0.19655  1.0000
  S   S4        1.0  0.43929  0.00114  0.19194  1.0000
  H   H17       1.0  0.46069  0.14101  0.03499  1.0000
  N   N2        1.0  0.44893  0.15716  0.00978  1.0000
  C   C15       1.0  0.43732  0.00472  0.26558  1.0000
  H   H18       1.0  0.46186  0.17928  0.05008  1.0000
  C   C16       1.0  0.45862  0.18963  0.99856  1.0000
  C   C17       1.0  0.45762  0.08139  0.00215  1.0000
  H   H19       1.0  0.40415  0.05371  0.01270  1.0000
  H   H20       1.0  0.47251  0.08908  0.99907  1.0000
  H   H21       1.0  0.46708  0.00170  0.01998  1.0000
  H   H22       1.0  0.46524  0.20419  0.00808  1.0000
  C   C18       1.0  0.42657  0.07938  0.99673  1.0000
  C   C19       1.0  0.44691  0.10787  0.59097  1.0000
  H   H23       1.0  0.41863  0.00646  0.54973  1.0000
  C   C20       1.0  0.44581  0.08964  0.99238  1.0000
  H   H24       1.0  0.42489  0.12633  0.57715  1.0000
  Fe  Fe3       1.0  0.48060  0.13699  0.95797  1.0000
  C   C21       1.0  0.49251  0.00451  0.51314  1.0000
  C   C22       1.0  0.49203  0.00931  0.98968  1.0000
  S   S5        1.0  0.48099  0.15707  0.91512  1.0000
  H   H25       1.0  0.45522  0.19603  0.94324  1.0000
  H   H26       1.0  0.47380  0.13177  0.68071  1.0000
  H   H27       1.0  0.48437  0.17814  0.75081  1.0000
  H   H28       1.0  0.49356  0.01712  0.52688  1.0000
  H   H29       1.0  0.49108  0.16953  0.81205  1.0000
  H   H30       1.0  0.45949  0.14733  0.64243  1.0000
  H   H31       1.0  0.49278  0.02268  0.98243  1.0000
  S   S6        1.0  0.49428  0.17219  0.67866  1.0000
  C   C23       1.0  0.45497  0.09877  0.61206  1.0000
  C   C24       1.0  0.44034  0.13442  0.57859  1.0000
  C   C25       1.0  0.45801  0.13360  0.63376  1.0000
  C   C26       1.0  0.46558  0.09816  0.51197  1.0000
  S   S7        1.0  0.45352  0.11260  0.97504  1.0000
  H   H32       1.0  0.44564  0.13543  0.55064  1.0000
  C   C27       1.0  0.47402  0.09035  0.53547  1.0000
  H   H33       1.0  0.47717  0.00963  0.58265  1.0000
  H   H34       1.0  0.48445  0.09922  0.55569  1.0000
  H   H35       1.0  0.47509  0.06501  0.55203  1.0000
  H   H36       1.0  0.45392  0.08529  0.60281  1.0000
  C   C28       1.0  0.49669  0.16588  0.78828  1.0000
  H   H37       1.0  0.43972  0.10128  0.56532  1.0000
  N   N3        1.0  0.44868  0.12515  0.60171  1.0000
  S   S8        1.0  0.44812  0.03451  0.50755  1.0000
  C   C29       1.0  0.46615  0.12485  0.65562  1.0000
  H   H38       1.0  0.44397  0.14890  0.58887  1.0000
  S   S9        1.0  0.48686  0.16967  0.57310  1.0000
  C   C30       1.0  0.46868  0.07092  0.53331  1.0000
  S   S10       1.0  0.47025  0.12220  0.51597  1.0000
  H   H39       1.0  0.45059  0.01745  0.57372  1.0000
  H   H40       1.0  0.49573  0.24230  0.94713  1.0000
  C   C31       1.0  0.46473  0.10739  0.64451  1.0000
  C   C32       1.0  0.44788  0.00291  0.57548  1.0000
  H   H41       1.0  0.47132  0.10067  0.66089  1.0000
  C   C33       1.0  0.44341  0.15253  0.97394  1.0000
  C   C34       1.0  0.45519  0.05909  0.50710  1.0000
  C   C35       1.0  0.45292  0.18502  0.96207  1.0000
  C   C36       1.0  0.44528  0.16638  0.94958  1.0000
  H   H42       1.0  0.44139  0.16273  0.92099  1.0000
  C   C37       1.0  0.49290  0.17075  0.75343  1.0000
  Fe  Fe4       1.0  0.49303  0.14654  0.54963  1.0000
  H   H43       1.0  0.43784  0.13810  0.96381  1.0000
  H   H44       1.0  0.41723  0.08539  0.98931  1.0000
  Fe  Fe5       1.0  0.00754  0.42170  0.45995  1.0000
  S   S11       1.0  0.01079  0.43584  0.40666  1.0000
  H   H45       1.0  0.03057  0.47001  0.02482  1.0000
  Fe  Fe6       1.0  0.49121  0.33011  0.05895  1.0000
  H   H46       1.0  0.48043  0.39784  0.05289  1.0000
  C   C38       1.0  0.04868  0.42691  0.15019  1.0000
  H   H47       1.0  0.04930  0.45957  0.47164  1.0000
  C   C39       1.0  0.37094  0.45496  0.05523  1.0000
  H   H48       1.0  0.26909  0.49308  0.17316  1.0000
  Fe  Fe7       1.0  0.01294  0.43283  0.05061  1.0000
  H   H49       1.0  0.48493  0.36950  0.06426  1.0000
  S   S12       1.0  0.01304  0.45244  0.09537  1.0000
  H   H50       1.0  0.26400  0.49737  0.02074  1.0000
  C   C40       1.0  0.05985  0.45665  0.48525  1.0000
  S   S13       1.0  0.43758  0.44123  0.99947  1.0000
  C   C41       1.0  0.00999  0.42762  0.25875  1.0000
  C   C42       1.0  0.44308  0.36612  0.00279  1.0000
  H   H51       1.0  0.43592  0.33663  0.99722  1.0000
  C   C43       1.0  0.43552  0.47727  0.44747  1.0000
  H   H52       1.0  0.33527  0.48378  0.26898  1.0000
  H   H53       1.0  0.25458  0.47332  0.14346  1.0000
  C   C44       1.0  0.09828  0.48331  0.00914  1.0000
  N   N4        1.0  0.03730  0.40877  0.13919  1.0000
  C   C45       1.0  0.47061  0.38448  0.04074  1.0000
  H   H54       1.0  0.47890  0.47534  0.44436  1.0000
  H   H55       1.0  0.48502  0.26505  0.20139  1.0000
  C   C46       1.0  0.45121  0.47286  0.09044  1.0000
  C   C47       1.0  0.99883  0.46356  0.26962  1.0000
  C   C48       1.0  0.06188  0.43894  0.12694  1.0000
  C   C49       1.0  0.03331  0.49818  0.02302  1.0000
  C   C50       1.0  0.47326  0.36843  0.04715  1.0000
  H   H56       1.0  0.47926  0.48786  0.11373  1.0000
  H   H57       1.0  0.48211  0.30542  0.26024  1.0000
  H   H58       1.0  0.35528  0.46634  0.47208  1.0000
  C   C51       1.0  0.24226  0.49407  0.10963  1.0000
  H   H59       1.0  0.32928  0.49194  0.20682  1.0000
  C   C52       1.0  0.36117  0.46606  0.05472  1.0000
  H   H60       1.0  0.24721  0.45832  0.47963  1.0000
  C   C53       1.0  0.06081  0.45526  0.01331  1.0000
  C   C54       1.0  0.45579  0.38355  0.01790  1.0000
  C   C55       1.0  0.46925  0.48747  0.09280  1.0000
  H   H61       1.0  0.04748  0.43223  0.17695  1.0000
  C   C56       1.0  0.49327  0.37189  0.37475  1.0000
  H   H62       1.0  0.34642  0.41623  0.01570  1.0000
  C   C57       1.0  0.45736  0.32179  0.36818  1.0000
  H   H63       1.0  0.43176  0.47047  0.42060  1.0000
  H   H64       1.0  0.44421  0.31833  0.35210  1.0000
  C   C58       1.0  0.01770  0.48686  0.49182  1.0000
  C   C59       1.0  0.48394  0.48458  0.46834  1.0000
  H   H65       1.0  0.37122  0.44778  0.07960  1.0000
  C   C60       1.0  0.26569  0.48795  0.14426  1.0000
  S   S14       1.0  0.49009  0.31815  0.43615  1.0000
  C   C61       1.0  0.35970  0.47455  0.02279  1.0000
  C   C62       1.0  0.46095  0.35110  0.03111  1.0000
  H   H66       1.0  0.23208  0.47971  0.11255  1.0000
  H   H67       1.0  0.27838  0.48776  0.13279  1.0000
  H   H68       1.0  0.02323  0.38228  0.16297  1.0000
  H   H69       1.0  0.49422  0.40487  0.48751  1.0000
  C   C63       1.0  0.32537  0.49766  0.23032  1.0000
  H   H70       1.0  0.00927  0.39477  0.15521  1.0000
  C   C64       1.0  0.05122  0.41404  0.08083  1.0000
  S   S15       1.0  0.00085  0.47922  0.42352  1.0000
  H   H71       1.0  0.01276  0.47378  0.27847  1.0000
  H   H72       1.0  0.41496  0.45373  0.47450  1.0000
  C   C65       1.0  0.03827  0.40235  0.10483  1.0000
  C   C66       1.0  0.47909  0.35461  0.38373  1.0000
  S   S16       1.0  0.03762  0.43698  0.01503  1.0000
  H   H73       1.0  0.46212  0.31080  0.36250  1.0000
  H   H74       1.0  0.09230  0.49561  0.05695  1.0000
  H   H75       1.0  0.47416  0.35288  0.41123  1.0000
  C   C67       1.0  0.06323  0.43236  0.09219  1.0000
  C   C68       1.0  0.02337  0.39628  0.16356  1.0000
  C   C69       1.0  0.06814  0.47027  0.03894  1.0000
  H   H76       1.0  0.00981  0.42636  0.31742  1.0000
  H   H77       1.0  0.36611  0.44167  0.47921  1.0000
  N   N5        1.0  0.47182  0.34006  0.35844  1.0000
  C   C70       1.0  0.37964  0.45248  0.02413  1.0000
  H   H78       1.0  0.42338  0.49293  0.01590  1.0000
  C   C71       1.0  0.49593  0.31687  0.25891  1.0000
  H   H79       1.0  0.49428  0.31790  0.20018  1.0000
  H   H80       1.0  0.05166  0.40914  0.05322  1.0000
  H   H81       1.0  0.42471  0.46103  0.06096  1.0000
  H   H82       1.0  0.35395  0.46724  0.07844  1.0000
  C   C72       1.0  0.08674  0.48415  0.03684  1.0000
  S   S17       1.0  0.46447  0.33071  0.03631  1.0000
  C   C73       1.0  0.43120  0.48495  0.00765  1.0000
  H   H83       1.0  0.02817  0.49789  0.05012  1.0000
  H   H84       1.0  0.02628  0.40187  0.19222  1.0000
  S   S18       1.0  0.03223  0.42006  0.49017  1.0000
  H   H85       1.0  0.02875  0.38821  0.09556  1.0000
  S   S19       1.0  0.32879  0.49431  0.34043  1.0000
  H   H86       1.0  0.07084  0.45333  0.13562  1.0000
  C   C74       1.0  0.44980  0.49543  0.45211  1.0000
  S   S20       1.0  0.01046  0.43072  0.18478  1.0000
  S   S21       1.0  0.45513  0.40485  0.00656  1.0000
  H   H87       1.0  0.07333  0.44153  0.07375  1.0000
  H   H88       1.0  0.02428  0.43830  0.25874  1.0000
  S   S22       1.0  0.38909  0.43596  0.02450  1.0000
  H   H89       1.0  0.05960  0.47108  0.06064  1.0000
  H   H90       1.0  0.01725  0.47319  0.49006  1.0000
  S   S23       1.0  0.31657  0.49185  0.44775  1.0000
  H   H91       1.0  0.47242  0.33075  0.30388  1.0000
  C   C75       1.0  0.42619  0.46783  0.47764  1.0000
  C   C76       1.0  0.00181  0.42092  0.29209  1.0000
  C   C77       1.0  0.43872  0.47244  0.06263  1.0000
  C   C78       1.0  0.47804  0.34236  0.32378  1.0000
  H   H92       1.0  0.33802  0.43220  0.99988  1.0000
  H   H93       1.0  0.00398  0.46894  0.21268  1.0000
  C   C79       1.0  0.32871  0.49302  0.26564  1.0000
  H   H94       1.0  0.45434  0.32144  0.39755  1.0000
  C   C80       1.0  0.23873  0.49879  0.00156  1.0000
  H   H95       1.0  0.42101  0.47027  0.00065  1.0000
  S   S24       1.0  0.49372  0.31164  0.10254  1.0000
  C   C81       1.0  0.36454  0.46726  0.49483  1.0000
  H   H96       1.0  0.44697  0.46181  0.10971  1.0000
  C   C82       1.0  0.03458  0.48233  0.00889  1.0000
  C   C83       1.0  0.44566  0.35000  0.00943  1.0000
  C   C84       1.0  0.49234  0.35938  0.31396  1.0000
  C   C85       1.0  0.01199  0.49377  0.46187  1.0000
  H   H97       1.0  0.22508  0.49128  0.44834  1.0000
  H   H98       1.0  0.08093  0.48531  0.48596  1.0000
  S   S25       1.0  0.34412  0.48498  0.01804  1.0000
  N   N6        1.0  0.44429  0.48582  0.03713  1.0000
  H   H99       1.0  0.23003  0.48398  0.00401  1.0000
  S   S26       1.0  0.30799  0.49835  0.07552  1.0000
  S   S27       1.0  0.99878  0.40719  0.08352  1.0000
  C   C86       1.0  0.99973  0.42088  0.22561  1.0000
  H   H100      1.0  0.28106  0.46766  0.48824  1.0000
  H   H101      1.0  0.00716  0.46322  0.33830  1.0000
  C   C87       1.0  0.23444  0.49915  0.47090  1.0000
  C   C88       1.0  0.07784  0.47124  0.49345  1.0000
  H   H102      1.0  0.49767  0.36086  0.28676  1.0000
  S   S28       1.0  0.49780  0.31445  0.33318  1.0000
  C   C89       1.0  0.35722  0.40911  0.95235  1.0000
  S   S29       1.0  0.15630  0.48963  0.93601  1.0000
  H   H103      1.0  0.10616  0.48597  0.62458  1.0000
  C   C90       1.0  0.09090  0.46836  0.98343  1.0000
  Fe  Fe8       1.0  0.41268  0.43419  0.56866  1.0000
  S   S30       1.0  0.43081  0.45601  0.61067  1.0000
  S   S31       1.0  0.38940  0.43560  0.53296  1.0000
  Fe  Fe9       1.0  0.43571  0.41167  0.57502  1.0000
  S   S32       1.0  0.45544  0.43211  0.61691  1.0000
  H   H104      1.0  0.43153  0.36512  0.98539  1.0000
  Fe  Fe10      1.0  0.43030  0.43221  0.64314  1.0000
  S   S33       1.0  0.43589  0.43575  0.70465  1.0000
  Fe  Fe11      1.0  0.45447  0.45419  0.58218  1.0000
  H   H105      1.0  0.09793  0.44672  0.53525  1.0000
  S   S34       1.0  0.41016  0.41007  0.60327  1.0000
  S   S35       1.0  0.11322  0.48748  0.52561  1.0000
  S   S36       1.0  0.41367  0.44445  0.92848  1.0000
  C   C91       1.0  0.38196  0.48293  0.55009  1.0000
  H   H106      1.0  0.03628  0.43513  0.57454  1.0000
  S   S37       1.0  0.44440  0.42687  0.91926  1.0000
  C   C92       1.0  0.41719  0.37448  0.64896  1.0000
  Fe  Fe12      1.0  0.44363  0.45249  0.94401  1.0000
  S   S38       1.0  0.46486  0.48204  0.93739  1.0000
  Fe  Fe13      1.0  0.41366  0.41761  0.90797  1.0000
  S   S39       1.0  0.39782  0.40450  0.85437  1.0000
  H   H107      1.0  0.49440  0.25796  0.55755  1.0000
  S   S40       1.0  0.40516  0.40337  0.96163  1.0000
  N   N7        1.0  0.07939  0.46909  0.59868  1.0000
  C   C93       1.0  0.36586  0.40965  0.91949  1.0000
  C   C94       1.0  0.36888  0.47248  0.99199  1.0000
  C   C95       1.0  0.42421  0.42764  0.74559  1.0000
  C   C96       1.0  0.43460  0.43416  0.77863  1.0000
  C   C97       1.0  0.42656  0.42741  0.81199  1.0000
  C   C98       1.0  0.40803  0.41384  0.81275  1.0000
  C   C99       1.0  0.39753  0.40732  0.77973  1.0000
  C   C100      1.0  0.40553  0.41429  0.74626  1.0000
  H   H108      1.0  0.44903  0.44453  0.77845  1.0000
  H   H109      1.0  0.43480  0.43263  0.83713  1.0000
  H   H110      1.0  0.38315  0.39688  0.78005  1.0000
  H   H111      1.0  0.39735  0.40921  0.72104  1.0000
  H   H112      1.0  0.46700  0.40004  0.71296  1.0000
  Fe  Fe14      1.0  0.43620  0.41458  0.97433  1.0000
  H   H113      1.0  0.23044  0.46669  0.52755  1.0000
  S   S41       1.0  0.20250  0.49701  0.50246  1.0000
  H   H114      1.0  0.42417  0.46921  0.53550  1.0000
  H   H115      1.0  0.45863  0.41636  0.73058  1.0000
  Fe  Fe15      1.0  0.16776  0.49826  0.61958  1.0000
  H   H116      1.0  0.30823  0.47811  0.52795  1.0000
  H   H117      1.0  0.06616  0.42098  0.52131  1.0000
  C   C101      1.0  0.45546  0.38154  0.53632  1.0000
  S   S42       1.0  0.48045  0.48097  0.57750  1.0000
  C   C102      1.0  0.25459  0.46552  0.50471  1.0000
  C   C103      1.0  0.45851  0.40756  0.70649  1.0000
  C   C104      1.0  0.09728  0.47130  0.61484  1.0000
  H   H118      1.0  0.41402  0.36933  0.62081  1.0000
  C   C105      1.0  0.35708  0.43344  0.90000  1.0000
  S   S43       1.0  0.17321  0.48950  0.67552  1.0000
  H   H119      1.0  0.47055  0.41026  0.52235  1.0000
  C   C106      1.0  0.07791  0.48414  0.58460  1.0000
  C   C107      1.0  0.43144  0.47666  0.51218  1.0000
  H   H120      1.0  0.39663  0.37123  0.72997  1.0000
  C   C108      1.0  0.45474  0.36358  0.53273  1.0000
  H   H121      1.0  0.36774  0.47888  0.96708  1.0000
  H   H122      1.0  0.18448  0.48530  0.74800  1.0000
  C   C109      1.0  0.48510  0.47498  0.99079  1.0000
  C   C110      1.0  0.46819  0.36048  0.51307  1.0000
  C   C111      1.0  0.33881  0.41893  0.99257  1.0000
  S   S44       1.0  0.43670  0.43397  0.53772  1.0000
  C   C112      1.0  0.36995  0.48209  0.52064  1.0000
  N   N8        1.0  0.28323  0.48046  0.54090  1.0000
  H   H123      1.0  0.06020  0.49394  0.55581  1.0000
  H   H124      1.0  0.06688  0.44290  0.96566  1.0000
  H   H125      1.0  0.44618  0.39174  0.64027  1.0000
  S   S45       1.0  0.43806  0.38459  0.56133  1.0000
  C   C113      1.0  0.47050  0.37889  0.93229  1.0000
  N   N9        1.0  0.34859  0.42038  0.95870  1.0000
  C   C114      1.0  0.08744  0.44961  0.52133  1.0000
  H   H126      1.0  0.24787  0.48436  0.58358  1.0000
  C   C115      1.0  0.04597  0.46438  0.56466  1.0000
  H   H127      1.0  0.37289  0.42271  0.86799  1.0000
  C   C116      1.0  0.40313  0.36871  0.67410  1.0000
  C   C117      1.0  0.34825  0.43229  0.93289  1.0000
  C   C118      1.0  0.04768  0.44908  0.57857  1.0000
  C   C119      1.0  0.09167  0.46792  0.51204  1.0000
  C   C120      1.0  0.48552  0.48940  0.53386  1.0000
  C   C121      1.0  0.38254  0.45399  0.52862  1.0000
  H   H128      1.0  0.46422  0.38850  0.93957  1.0000
  H   H129      1.0  0.28182  0.49370  0.59104  1.0000
  C   C122      1.0  0.40745  0.37545  0.71015  1.0000
  H   H130      1.0  0.47625  0.46030  0.98483  1.0000
  H   H131      1.0  0.09955  0.46746  0.96200  1.0000
  H   H132      1.0  0.39720  0.46974  0.57719  1.0000
  H   H133      1.0  0.38891  0.35909  0.66557  1.0000
  C   C123      1.0  0.43537  0.38724  0.66012  1.0000
  H   H134      1.0  0.45916  0.36444  0.93371  1.0000
  C   C124      1.0  0.37906  0.46179  0.99279  1.0000
  H   H135      1.0  0.09510  0.46228  0.63846  1.0000
  H   H136      1.0  0.35765  0.39979  0.97292  1.0000
  H   H137      1.0  0.46742  0.34660  0.51063  1.0000
  H   H138      1.0  0.10507  0.46748  0.59416  1.0000
  C   C125      1.0  0.06461  0.45169  0.59554  1.0000
  H   H139      1.0  0.06605  0.43960  0.60496  1.0000
  H   H140      1.0  0.08996  0.49772  0.58512  1.0000
  S   S46       1.0  0.15884  0.47912  0.56887  1.0000
  H   H141      1.0  0.47532  0.38135  0.90407  1.0000
  C   C126      1.0  0.06115  0.48206  0.56774  1.0000
  H   H142      1.0  0.46508  0.41745  0.68463  1.0000
  H   H143      1.0  0.03318  0.46236  0.55012  1.0000
  H   H144      1.0  0.38613  0.49423  0.57041  1.0000
  Fe  Fe16      1.0  0.14204  0.49465  0.55278  1.0000
  C   C127      1.0  0.38831  0.46906  0.55399  1.0000
  H   H145      1.0  0.42898  0.39351  0.74840  1.0000
  H   H146      1.0  0.35714  0.44317  0.87988  1.0000
  H   H147      1.0  0.30758  0.48570  0.57381  1.0000
  C   C128      1.0  0.30346  0.48671  0.54522  1.0000
  H   H148      1.0  0.17543  0.49150  0.80931  1.0000
  H   H149      1.0  0.38566  0.46002  0.96861  1.0000
  N   N10       1.0  0.48621  0.38185  0.95739  1.0000
  N   N11       1.0  0.43938  0.39417  0.69532  1.0000
  C   C129      1.0  0.42580  0.38811  0.72042  1.0000
  C   C130      1.0  0.27414  0.48533  0.56718  1.0000
  H   H150      1.0  0.02722  0.49186  0.54814  1.0000
  C   C131      1.0  0.47840  0.47756  0.50286  1.0000
  C   C132      1.0  0.48315  0.48851  0.97006  1.0000
  C   C133      1.0  0.27375  0.47087  0.50974  1.0000
  C   C134      1.0  0.16579  0.49359  0.71862  1.0000
  C   C135      1.0  0.25496  0.48011  0.56312  1.0000
  H   H151      1.0  0.45033  0.49318  0.57338  1.0000
  C   C136      1.0  0.36590  0.42199  0.89331  1.0000
  C   C137      1.0  0.48323  0.39328  0.50017  1.0000
  C   C138      1.0  0.46984  0.39640  0.51995  1.0000
  H   H152      1.0  0.34143  0.44125  0.93796  1.0000
  C   C139      1.0  0.49688  0.39925  0.97300  1.0000
  C   C140      1.0  0.02381  0.49762  0.52441  1.0000
  H   H153      1.0  0.37266  0.40068  0.91435  1.0000
  C   C141      1.0  0.37071  0.45326  0.49896  1.0000
  C   C142      1.0  0.49057  0.36736  0.96392  1.0000
  Fe  Fe17      1.0  0.40749  0.43132  0.98255  1.0000
  H   H154      1.0  0.49314  0.41062  0.96854  1.0000
  H   H155      1.0  0.48194  0.35346  0.95222  1.0000
  H   H156      1.0  0.44368  0.35197  0.54521  1.0000
  C   C143      1.0  0.17405  0.49047  0.75036  1.0000
  C   C144      1.0  0.06939  0.43501  0.51332  1.0000
  C   C145      1.0  0.07232  0.45444  0.98562  1.0000
  N   N12       1.0  0.44559  0.49436  0.51659  1.0000
  H   H157      1.0  0.32444  0.40742  0.98969  1.0000
  C   C146      1.0  0.24516  0.47017  0.53163  1.0000
  C   C147      1.0  0.16897  0.49400  0.78518  1.0000
  C   C148      1.0  0.04071  0.48229  0.97378  1.0000
  H   H158      1.0  0.46922  0.46292  0.50548  1.0000
  H   H159      1.0  0.04168  0.47000  0.96260  1.0000
  H   H160      1.0  0.43870  0.49064  0.98239  1.0000
  C   C149      1.0  0.48253  0.37533  0.49662  1.0000
  H   H161      1.0  0.00137  0.48213  0.94747  1.0000
  H   H162      1.0  0.04992  0.49805  0.92553  1.0000
  C   C150      1.0  0.04538  0.49802  0.95308  1.0000
  C   C151      1.0  0.05539  0.43846  0.49571  1.0000
  Fe  Fe18      1.0  0.18866  0.68663  0.05043  1.0000
  S   S47       1.0  0.20203  0.67940  0.09802  1.0000
  H   H163      1.0  0.31096  0.51756  0.31537  1.0000
  Fe  Fe19      1.0  0.14937  0.65405  0.06358  1.0000
  S   S48       1.0  0.16084  0.64548  0.11260  1.0000
  C   C152      1.0  0.11134  0.63940  0.14415  1.0000
  Fe  Fe20      1.0  0.17650  0.67583  0.12839  1.0000
  S   S49       1.0  0.17980  0.68895  0.18575  1.0000
  Fe  Fe21      1.0  0.18498  0.64951  0.07824  1.0000
  S   S50       1.0  0.19584  0.62763  0.07914  1.0000
  S   S51       1.0  0.16369  0.68470  0.08162  1.0000
  S   S52       1.0  0.17309  0.65661  0.02861  1.0000
  Fe  Fe22      1.0  0.32365  0.51570  0.12597  1.0000
  H   H164      1.0  0.21403  0.72639  0.48702  1.0000
  Fe  Fe23      1.0  0.35407  0.54476  0.08109  1.0000
  C   C153      1.0  0.22783  0.72859  0.01069  1.0000
  Fe  Fe24      1.0  0.31292  0.52556  0.05063  1.0000
  S   S53       1.0  0.37597  0.57229  0.43018  1.0000
  H   H165      1.0  0.10211  0.65452  0.08745  1.0000
  S   S54       1.0  0.32703  0.54247  0.10153  1.0000
  S   S55       1.0  0.35201  0.51917  0.10886  1.0000
  H   H166      1.0  0.05760  0.63838  0.43536  1.0000
  S   S56       1.0  0.14342  0.63496  0.43130  1.0000
  C   C154      1.0  0.13873  0.69138  0.15400  1.0000
  Fe  Fe25      1.0  0.19215  0.67450  0.46133  1.0000
  S   S57       1.0  0.18788  0.65347  0.41488  1.0000
  C   C155      1.0  0.41845  0.60951  0.02540  1.0000
  Fe  Fe26      1.0  0.16305  0.65811  0.39747  1.0000
  S   S58       1.0  0.15042  0.65475  0.33950  1.0000
  Fe  Fe27      1.0  0.16857  0.63193  0.45169  1.0000
  S   S59       1.0  0.16339  0.60162  0.45268  1.0000
  S   S60       1.0  0.16814  0.68038  0.44169  1.0000
  C   C156      1.0  0.27300  0.51843  0.11950  1.0000
  H   H167      1.0  0.09847  0.63067  0.12738  1.0000
  H   H168      1.0  0.36588  0.53608  0.19523  1.0000
  Fe  Fe28      1.0  0.35222  0.54395  0.43961  1.0000
  H   H169      1.0  0.15430  0.56413  0.05790  1.0000
  H   H170      1.0  0.38060  0.55782  0.01744  1.0000
  N   N13       1.0  0.35700  0.59036  0.01576  1.0000
  C   C157      1.0  0.35934  0.60010  0.05121  1.0000
  H   H171      1.0  0.20409  0.52753  0.45726  1.0000
  S   S61       1.0  0.35859  0.52026  0.42286  1.0000
  S   S62       1.0  0.32395  0.53214  0.41062  1.0000
  H   H172      1.0  0.35167  0.55713  0.21243  1.0000
  H   H173      1.0  0.06975  0.60656  0.45914  1.0000
  H   H174      1.0  0.36910  0.55962  0.34725  1.0000
  C   C158      1.0  0.26950  0.52547  0.00805  1.0000
  C   C159      1.0  0.35637  0.55066  0.23340  1.0000
  S   S63       1.0  0.31126  0.51504  0.18175  1.0000
  H   H175      1.0  0.12524  0.67995  0.45098  1.0000
  Fe  Fe29      1.0  0.31266  0.51763  0.46293  1.0000
  H   H176      1.0  0.30434  0.52517  0.25317  1.0000
  H   H177      1.0  0.38291  0.61061  0.99670  1.0000
  H   H178      1.0  0.28720  0.52335  0.13049  1.0000
  H   H179      1.0  0.37073  0.52588  0.30806  1.0000
  C   C160      1.0  0.16736  0.59149  0.49190  1.0000
  Fe  Fe30      1.0  0.32958  0.50738  0.39698  1.0000
  C   C161      1.0  0.45458  0.50387  0.48707  1.0000
  C   C162      1.0  0.24080  0.67199  0.07414  1.0000
  C   C163      1.0  0.39114  0.57218  0.01989  1.0000
  H   H180      1.0  0.12210  0.63467  0.13719  1.0000
  N   N14       1.0  0.10352  0.65948  0.41652  1.0000
  C   C164      1.0  0.36982  0.53008  0.25076  1.0000
  H   H181      1.0  0.48847  0.51297  0.06954  1.0000
  Fe  Fe31      1.0  0.15022  0.65639  0.47629  1.0000
  H   H182      1.0  0.08375  0.59932  0.04482  1.0000
  H   H183      1.0  0.34751  0.56265  0.27744  1.0000
  H   H184      1.0  0.24609  0.53366  0.07035  1.0000
  H   H185      1.0  0.27156  0.71534  0.43324  1.0000
  H   H186      1.0  0.42848  0.62607  0.48939  1.0000
  C   C165      1.0  0.07235  0.64805  0.43814  1.0000
  C   C166      1.0  0.47447  0.50155  0.06780  1.0000
  H   H187      1.0  0.47696  0.62256  0.07791  1.0000
  Fe  Fe32      1.0  0.34556  0.50682  0.47407  1.0000
  C   C167      1.0  0.20578  0.54097  0.46843  1.0000
  H   H188      1.0  0.14957  0.70154  0.17226  1.0000
  C   C168      1.0  0.31507  0.51204  0.29187  1.0000
  C   C169      1.0  0.48258  0.58237  0.00751  1.0000
  H   H189      1.0  0.13677  0.66799  0.18406  1.0000
  C   C170      1.0  0.39372  0.58256  0.05246  1.0000
  H   H190      1.0  0.19586  0.57295  0.01463  1.0000
  H   H191      1.0  0.19543  0.54820  0.41988  1.0000
  H   H192      1.0  0.48462  0.72604  0.43678  1.0000
  C   C171      1.0  0.16102  0.66354  0.29764  1.0000
  C   C172      1.0  0.17464  0.68199  0.29507  1.0000
  C   C173      1.0  0.18056  0.68935  0.26067  1.0000
  C   C174      1.0  0.17335  0.67828  0.22844  1.0000
  C   C175      1.0  0.16030  0.65958  0.23108  1.0000
  C   C176      1.0  0.15393  0.65241  0.26541  1.0000
  H   H193      1.0  0.18003  0.69085  0.31945  1.0000
  H   H194      1.0  0.19061  0.70383  0.25902  1.0000
  H   H195      1.0  0.15474  0.65079  0.20669  1.0000
  H   H196      1.0  0.14332  0.63816  0.26703  1.0000
  C   C177      1.0  0.41675  0.56687  0.47341  1.0000
  H   H197      1.0  0.15241  0.54997  0.99866  1.0000
  C   C178      1.0  0.19122  0.61214  0.04105  1.0000
  H   H198      1.0  0.11439  0.68805  0.07486  1.0000
  H   H199      1.0  0.41090  0.60518  0.43677  1.0000
  C   C179      1.0  0.49636  0.50344  0.46496  1.0000
  C   C180      1.0  0.26813  0.53071  0.10048  1.0000
  C   C181      1.0  0.16002  0.57196  0.49216  1.0000
  C   C182      1.0  0.19241  0.58462  0.01286  1.0000
  C   C183      1.0  0.40494  0.60279  0.46333  1.0000
  H   H200      1.0  0.27856  0.54480  0.09586  1.0000
  C   C184      1.0  0.46689  0.60718  0.00263  1.0000
  H   H201      1.0  0.13822  0.71188  0.11758  1.0000
  H   H202      1.0  0.48612  0.63843  0.04124  1.0000
  C   C185      1.0  0.31133  0.51632  0.25652  1.0000
  C   C186      1.0  0.44556  0.59339  0.49287  1.0000
  C   C187      1.0  0.43640  0.69728  0.47383  1.0000
  S   S64       1.0  0.20522  0.70888  0.00957  1.0000
  H   H203      1.0  0.37562  0.52049  0.24347  1.0000
  H   H204      1.0  0.35275  0.60979  0.05015  1.0000
  H   H205      1.0  0.15473  0.59098  0.09415  1.0000
  H   H206      1.0  0.24348  0.68631  0.08389  1.0000
  H   H207      1.0  0.34425  0.55114  0.33811  1.0000
  C   C188      1.0  0.09882  0.62714  0.02544  1.0000
  C   C189      1.0  0.32373  0.50027  0.29663  1.0000
  H   H208      1.0  0.44561  0.66875  0.47892  1.0000
  S   S65       1.0  0.34054  0.52999  0.02826  1.0000
  C   C190      1.0  0.22965  0.68063  0.01798  1.0000
  H   H209      1.0  0.15124  0.56347  0.46945  1.0000
  H   H210      1.0  0.33046  0.56842  0.02759  1.0000
  H   H211      1.0  0.30200  0.74093  0.45617  1.0000
  C   C191      1.0  0.08480  0.64799  0.41201  1.0000
  H   H212      1.0  0.06980  0.65953  0.49020  1.0000
  C   C192      1.0  0.34112  0.57425  0.00769  1.0000
  C   C193      1.0  0.48805  0.59777  0.03194  1.0000
  C   C194      1.0  0.11623  0.65865  0.38917  1.0000
  N   N15       1.0  0.20284  0.56952  0.46180  1.0000
  H   H213      1.0  0.07947  0.63836  0.38854  1.0000
  S   S66       1.0  0.11897  0.63178  0.05385  1.0000
  C   C195      1.0  0.06662  0.60535  0.00596  1.0000
  H   H214      1.0  0.01036  0.51781  0.43992  1.0000
  C   C196      1.0  0.48269  0.73166  0.46258  1.0000
  C   C197      1.0  0.31658  0.50929  0.22556  1.0000
  C   C198      1.0  0.14823  0.58761  0.06699  1.0000
  H   H215      1.0  0.35298  0.58993  0.07280  1.0000
  C   C199      1.0  0.35393  0.55359  0.27016  1.0000
  C   C200      1.0  0.03610  0.52991  0.01746  1.0000
  N   N16       1.0  0.03760  0.51343  0.00229  1.0000
  C   C201      1.0  0.27349  0.72970  0.43518  1.0000
  C   C202      1.0  0.43300  0.66697  0.49383  1.0000
  H   H216      1.0  0.10805  0.63685  0.17322  1.0000
  C   C203      1.0  0.14810  0.57257  0.04625  1.0000
  C   C204      1.0  0.36434  0.53880  0.22371  1.0000
  N   N17       1.0  0.35901  0.54470  0.29646  1.0000
  C   C205      1.0  0.13304  0.57959  0.99653  1.0000
  H   H217      1.0  0.46621  0.51107  0.01964  1.0000
  H   H218      1.0  0.05470  0.59187  0.00765  1.0000
  C   C206      1.0  0.11218  0.66482  0.10662  1.0000
  C   C207      1.0  0.24992  0.52446  0.08614  1.0000
  C   C208      1.0  0.11594  0.58475  0.49500  1.0000
  H   H219      1.0  0.20108  0.59441  0.06856  1.0000
  H   H220      1.0  0.10412  0.62655  0.46176  1.0000
  H   H221      1.0  0.46591  0.51786  0.49047  1.0000
  C   C209      1.0  0.08315  0.60965  0.02704  1.0000
  C   C210      1.0  0.48215  0.72205  0.49447  1.0000
  H   H222      1.0  0.24523  0.72263  0.41681  1.0000
  C   C211      1.0  0.43617  0.71458  0.47997  1.0000
  C   C212      1.0  0.29048  0.74401  0.44828  1.0000
  N   N18       1.0  0.11828  0.65932  0.13710  1.0000
  C   C213      1.0  0.48634  0.62619  0.05466  1.0000
  H   H223      1.0  0.12682  0.60327  0.00488  1.0000
  H   H224      1.0  0.42874  0.62400  0.02748  1.0000
  H   H225      1.0  0.10960  0.65389  0.00085  1.0000
  H   H226      1.0  0.40976  0.60922  0.08058  1.0000
  C   C214      1.0  0.48056  0.74837  0.46361  1.0000
  H   H227      1.0  0.40791  0.55738  0.45171  1.0000
  C   C215      1.0  0.36704  0.53321  0.28724  1.0000
  H   H228      1.0  0.23437  0.72805  0.06755  1.0000
  H   H229      1.0  0.12292  0.58017  0.47477  1.0000
  C   C216      1.0  0.19541  0.59682  0.04329  1.0000
  C   C217      1.0  0.23689  0.50602  0.09061  1.0000
  S   S67       1.0  0.12174  0.50116  0.00841  1.0000
  H   H230      1.0  0.25906  0.49999  0.44551  1.0000
  S   S68       1.0  0.37900  0.57313  0.08908  1.0000
  C   C218      1.0  0.18391  0.61511  0.00831  1.0000
  N   N19       1.0  0.14079  0.56891  0.01133  1.0000
  C   C219      1.0  0.40764  0.60114  0.05535  1.0000
  C   C220      1.0  0.20089  0.55269  0.44753  1.0000
  C   C221      1.0  0.13242  0.69714  0.12327  1.0000
  H   H231      1.0  0.35327  0.53514  0.35032  1.0000
  H   H232      1.0  0.42026  0.65780  0.47721  1.0000
  C   C222      1.0  0.01413  0.51215  0.46344  1.0000
  C   C223      1.0  0.11033  0.67131  0.44658  1.0000
  H   H233      1.0  0.20000  0.59479  0.45377  1.0000
  C   C224      1.0  0.25870  0.73381  0.42578  1.0000
  H   H234      1.0  0.02457  0.52578  0.03676  1.0000
  H   H235      1.0  0.18277  0.57429  0.43035  1.0000
  H   H236      1.0  0.46059  0.61673  0.00054  1.0000
  C   C225      1.0  0.35634  0.54789  0.33485  1.0000
  C   C226      1.0  0.19781  0.58157  0.43902  1.0000
  C   C227      1.0  0.11909  0.68379  0.09932  1.0000
  C   C228      1.0  0.43430  0.58088  0.46527  1.0000
  H   H237      1.0  0.23052  0.66187  0.09219  1.0000
  C   C229      1.0  0.09585  0.62678  0.48445  1.0000
  N   N20       1.0  0.23349  0.66794  0.03636  1.0000
  H   H238      1.0  0.11247  0.66205  0.36204  1.0000
  C   C230      1.0  0.23923  0.73504  0.04244  1.0000
  C   C231      1.0  0.13150  0.67231  0.16046  1.0000
  H   H239      1.0  0.43905  0.58218  0.43769  1.0000
  H   H240      1.0  0.25414  0.67081  0.07678  1.0000
  H   H241      1.0  0.43923  0.72436  0.45830  1.0000
  C   C232      1.0  0.38746  0.58764  0.46780  1.0000
  H   H242      1.0  0.14067  0.61045  0.06761  1.0000
  H   H243      1.0  0.45750  0.50275  0.42897  1.0000
  C   C233      1.0  0.46180  0.50043  0.03977  1.0000
  H   H244      1.0  0.13103  0.66865  0.39580  1.0000
  Fe  Fe33      1.0  0.33689  0.50383  0.05649  1.0000
  H   H245      1.0  0.37438  0.60810  0.05946  1.0000
  N   N21       1.0  0.48046  0.61012  0.02885  1.0000
  C   C234      1.0  0.09827  0.67178  0.47316  1.0000
  H   H246      1.0  0.23284  0.64088  0.03477  1.0000
  C   C235      1.0  0.14053  0.59867  0.05199  1.0000
  C   C236      1.0  0.13281  0.59465  0.01661  1.0000
  H   H247      1.0  0.18065  0.62682  0.00616  1.0000
  H   H248      1.0  0.08911  0.56143  0.48449  1.0000
  H   H249      1.0  0.43963  0.69375  0.44708  1.0000
  C   C237      1.0  0.07919  0.65997  0.46897  1.0000
  S   S69       1.0  0.29381  0.53612  0.02129  1.0000
  H   H250      1.0  0.20639  0.58534  0.41457  1.0000
  H   H251      1.0  0.04945  0.53956  0.03167  1.0000
  H   H252      1.0  0.11560  0.64443  0.38726  1.0000
  C   C238      1.0  0.07637  0.61538  0.48312  1.0000
  S   S70       1.0  0.22271  0.69413  0.47917  1.0000
  C   C239      1.0  0.25375  0.50411  0.46915  1.0000
  S   S71       1.0  0.34090  0.53155  0.49238  1.0000
  C   C240      1.0  0.25804  0.50634  0.01105  1.0000
  H   H253      1.0  0.23188  0.69385  0.03107  1.0000
  C   C241      1.0  0.23038  0.65119  0.01980  1.0000
  H   H254      1.0  0.48933  0.57315  0.00906  1.0000
  C   C242      1.0  0.09773  0.64037  0.00246  1.0000
  H   H255      1.0  0.45916  0.60442  0.48696  1.0000
  S   S72       1.0  0.48380  0.70043  0.49103  1.0000
  C   C243      1.0  0.49346  0.73841  0.99671  1.0000
  C   C244      1.0  0.41496  0.61464  0.49318  1.0000
  H   H256      1.0  0.38250  0.54637  0.49224  1.0000
  H   H257      1.0  0.22289  0.50091  0.07834  1.0000
  N   N22       1.0  0.26014  0.50037  0.12382  1.0000
  C   C245      1.0  0.46299  0.73791  0.99590  1.0000
  Fe  Fe34      1.0  0.02184  0.58550  0.54874  1.0000
  H   H258      1.0  0.04685  0.52554  0.95119  1.0000
  S   S73       1.0  0.03488  0.57723  0.59490  1.0000
  Fe  Fe35      1.0  0.01798  0.58659  0.94820  1.0000
  S   S74       1.0  0.01581  0.56872  0.89821  1.0000
  C   C246      1.0  0.08111  0.63613  0.98162  1.0000
  H   H259      1.0  0.44042  0.50880  0.56075  1.0000
  C   C247      1.0  0.22711  0.50414  0.50157  1.0000
  H   H260      1.0  0.17622  0.60598  0.95216  1.0000
  S   S75       1.0  0.18976  0.52936  0.90843  1.0000
  C   C248      1.0  0.47974  0.72958  0.52760  1.0000
  Fe  Fe36      1.0  0.17658  0.54362  0.94318  1.0000
  S   S76       1.0  0.18327  0.57424  0.94018  1.0000
  C   C249      1.0  0.22340  0.64686  0.98379  1.0000
  H   H261      1.0  0.02581  0.57315  0.75487  1.0000
  Fe  Fe37      1.0  0.14555  0.50693  0.96903  1.0000
  H   H262      1.0  0.06027  0.57681  0.52044  1.0000
  Fe  Fe38      1.0  0.45184  0.63779  0.94905  1.0000
  H   H263      1.0  0.37915  0.59440  0.93690  1.0000
  H   H264      1.0  0.18462  0.54353  0.65709  1.0000
  Fe  Fe39      1.0  0.47506  0.66039  0.88613  1.0000
  S   S77       1.0  0.49609  0.68277  0.92478  1.0000
  H   H265      1.0  0.16631  0.55609  0.69260  1.0000
  Fe  Fe40      1.0  0.47145  0.68130  0.95596  1.0000
  H   H266      1.0  0.46493  0.51492  0.55468  1.0000
  S   S78       1.0  0.47507  0.63653  0.91770  1.0000
  S   S79       1.0  0.45063  0.66023  0.91553  1.0000
  C   C250      1.0  0.16429  0.56328  0.52121  1.0000
  S   S80       1.0  0.14929  0.51201  0.60554  1.0000
  S   S81       1.0  0.00517  0.55614  0.52626  1.0000
  S   S82       1.0  0.19325  0.52015  0.59458  1.0000
  C   C251      1.0  0.49667  0.67599  0.77695  1.0000
  H   H267      1.0  0.21926  0.68673  0.96780  1.0000
  N   N23       1.0  0.01340  0.61554  0.83605  1.0000
  Fe  Fe41      1.0  0.17400  0.53239  0.57674  1.0000
  S   S83       1.0  0.18335  0.56351  0.58471  1.0000
  S   S84       1.0  0.16612  0.51616  0.52348  1.0000
  Fe  Fe42      1.0  0.48597  0.66845  0.61154  1.0000
  C   C252      1.0  0.15225  0.50016  0.72208  1.0000
  Fe  Fe43      1.0  0.45081  0.64460  0.56477  1.0000
  C   C253      1.0  0.19711  0.53722  0.74283  1.0000
  C   C254      1.0  0.11704  0.60724  0.54125  1.0000
  C   C255      1.0  0.40744  0.61160  0.52767  1.0000
  Fe  Fe44      1.0  0.48129  0.67913  0.53393  1.0000
  H   H268      1.0  0.21358  0.65633  0.93723  1.0000
  S   S85       1.0  0.47094  0.63778  0.59736  1.0000
  S   S86       1.0  0.46416  0.67498  0.58343  1.0000
  C   C256      1.0  0.48062  0.72615  0.89588  1.0000
  H   H269      1.0  0.47499  0.60670  0.71304  1.0000
  C   C257      1.0  0.09796  0.59640  0.54626  1.0000
  C   C258      1.0  0.47293  0.66092  0.71481  1.0000
  H   H270      1.0  0.00976  0.56789  0.81347  1.0000
  H   H271      1.0  0.16775  0.55614  0.76005  1.0000
  Fe  Fe45      1.0  0.16028  0.50942  0.89026  1.0000
  H   H272      1.0  0.36623  0.57328  0.50581  1.0000
  H   H273      1.0  0.06229  0.55513  0.51798  1.0000
  Fe  Fe46      1.0  0.49398  0.65841  0.95866  1.0000
  S   S87       1.0  0.02962  0.52762  0.56909  1.0000
  C   C259      1.0  0.00398  0.57616  0.72424  1.0000
  H   H274      1.0  0.02159  0.61545  0.89171  1.0000
  H   H275      1.0  0.27885  0.74568  0.53610  1.0000
  C   C260      1.0  0.39240  0.55028  0.51624  1.0000
  C   C261      1.0  0.48603  0.60825  0.65958  1.0000
  H   H276      1.0  0.02271  0.53734  0.49653  1.0000
  C   C262      1.0  0.47791  0.66358  0.78122  1.0000
  S   S88       1.0  0.12823  0.65581  0.51530  1.0000
  C   C263      1.0  0.03462  0.61456  0.79168  1.0000
  N   N24       1.0  0.47537  0.71125  0.87162  1.0000
  C   C264      1.0  0.21426  0.56355  0.51867  1.0000
  C   C265      1.0  0.04376  0.51359  0.96787  1.0000
  H   H277      1.0  0.13626  0.50820  0.75925  1.0000
  S   S89       1.0  0.14756  0.52502  0.92233  1.0000
  Fe  Fe47      1.0  0.48774  0.64374  0.54698  1.0000
  C   C266      1.0  0.26137  0.53682  0.99511  1.0000
  S   S90       1.0  0.29032  0.51947  0.49930  1.0000
  H   H278      1.0  0.49746  0.63925  0.73183  1.0000
  H   H279      1.0  0.46366  0.65502  0.69111  1.0000
  C   C267      1.0  0.23944  0.51435  0.53045  1.0000
  C   C268      1.0  0.01213  0.57286  0.75588  1.0000
  H   H280      1.0  0.44804  0.73050  0.99072  1.0000
  H   H281      1.0  0.47935  0.72244  0.55238  1.0000
  Fe  Fe48      1.0  0.18359  0.50213  0.54330  1.0000
  H   H282      1.0  0.35053  0.56473  0.92212  1.0000
  C   C269      1.0  0.06544  0.61861  0.98318  1.0000
  S   S91       1.0  0.04470  0.61416  0.95679  1.0000
  C   C270      1.0  0.18538  0.54382  0.68661  1.0000
  H   H283      1.0  0.19050  0.53290  0.81248  1.0000
  H   H284      1.0  0.48440  0.69659  0.83353  1.0000
  H   H285      1.0  0.22067  0.63341  0.97101  1.0000
  C   C271      1.0  0.02510  0.61515  0.86348  1.0000
  S   S92       1.0  0.46651  0.64885  0.51385  1.0000
  C   C272      1.0  0.14059  0.55300  0.99011  1.0000
  S   S93       1.0  0.17430  0.52671  0.99210  1.0000
  H   H286      1.0  0.49368  0.51795  0.96101  1.0000
  C   C273      1.0  0.46615  0.65607  0.74993  1.0000
  S   S94       1.0  0.46818  0.65723  0.82464  1.0000
  C   C274      1.0  0.09341  0.63919  0.54362  1.0000
  C   C275      1.0  0.46110  0.59194  0.97772  1.0000
  C   C276      1.0  0.06532  0.61591  0.51195  1.0000
  H   H287      1.0  0.44930  0.70580  0.84598  1.0000
  C   C277      1.0  0.02468  0.51552  0.52676  1.0000
  C   C278      1.0  0.00310  0.56997  0.78922  1.0000
  C   C279      1.0  0.21935  0.65967  0.96492  1.0000
  C   C280      1.0  0.45546  0.69900  0.86436  1.0000
  Fe  Fe49      1.0  0.18545  0.51078  0.95629  1.0000
  H   H288      1.0  0.31095  0.50150  0.53744  1.0000
  C   C281      1.0  0.36819  0.58875  0.95635  1.0000
  Fe  Fe50      1.0  0.00129  0.54456  0.93401  1.0000
  H   H289      1.0  0.12717  0.57660  0.96891  1.0000
  C   C282      1.0  0.25874  0.51929  0.52872  1.0000
  C   C283      1.0  0.38973  0.59674  0.53193  1.0000
  N   N25       1.0  0.41055  0.56545  0.50804  1.0000
  C   C284      1.0  0.42976  0.68991  0.53552  1.0000
  C   C285      1.0  0.49159  0.67353  0.71053  1.0000
  H   H290      1.0  0.45057  0.58992  0.95656  1.0000
  C   C286      1.0  0.37028  0.59784  0.99038  1.0000
  H   H291      1.0  0.20403  0.53084  0.68941  1.0000
  C   C287      1.0  0.42153  0.57762  0.53531  1.0000
  H   H292      1.0  0.47016  0.72871  0.91016  1.0000
  S   S95       1.0  0.49358  0.61869  0.53230  1.0000
  H   H293      1.0  0.99912  0.63177  0.84946  1.0000
  H   H294      1.0  0.21610  0.53738  0.52081  1.0000
  N   N26       1.0  0.08815  0.58009  0.52621  1.0000
  H   H295      1.0  0.26807  0.52701  0.55141  1.0000
  C   C288      1.0  0.20943  0.57502  0.49691  1.0000
  C   C289      1.0  0.37982  0.58473  0.50216  1.0000
  C   C290      1.0  0.04638  0.61366  0.81945  1.0000
  S   S96       1.0  0.47058  0.65842  0.99209  1.0000
  H   H296      1.0  0.22590  0.73334  0.95369  1.0000
  C   C291      1.0  0.09686  0.57425  0.50068  1.0000
  H   H297      1.0  0.44793  0.69595  0.89027  1.0000
  S   S97       1.0  0.17444  0.65214  0.49912  1.0000
  C   C292      1.0  0.18569  0.58804  0.97982  1.0000
  H   H298      1.0  0.38578  0.55455  0.53858  1.0000
  H   H299      1.0  0.44769  0.60168  0.54956  1.0000
  C   C293      1.0  0.33850  0.56485  0.97386  1.0000
  H   H300      1.0  0.49639  0.58528  0.51041  1.0000
  C   C294      1.0  0.17505  0.55083  0.70661  1.0000
  C   C295      1.0  0.06807  0.56930  0.53150  1.0000
  H   H301      1.0  0.20545  0.53146  0.75667  1.0000
  H   H302      1.0  0.23411  0.51828  0.55429  1.0000
  C   C296      1.0  0.47778  0.74638  0.52868  1.0000
  H   H303      1.0  0.21894  0.56772  0.54684  1.0000
  C   C297      1.0  0.23451  0.73811  0.97847  1.0000
  Fe  Fe51      1.0  0.01721  0.54801  0.57409  1.0000
  S   S98       1.0  0.41980  0.62583  0.56609  1.0000
  H   H304      1.0  0.14577  0.50262  0.69797  1.0000
  H   H305      1.0  0.08039  0.64652  0.96416  1.0000
  H   H306      1.0  0.06569  0.62823  0.56482  1.0000
  C   C298      1.0  0.17603  0.57406  0.55023  1.0000
  H   H307      1.0  0.09095  0.60128  0.56583  1.0000
  N   N27       1.0  0.18679  0.54396  0.76225  1.0000
  H   H308      1.0  0.09985  0.64868  0.56687  1.0000
  C   C299      1.0  0.19648  0.53695  0.70477  1.0000
  H   H309      1.0  0.32596  0.55190  0.96794  1.0000
  H   H310      1.0  0.23605  0.53824  0.97620  1.0000
  C   C300      1.0  0.26473  0.74157  0.52572  1.0000
  H   H311      1.0  0.00871  0.61554  0.77869  1.0000
  C   C301      1.0  0.47414  0.72851  0.98984  1.0000
  S   S99       1.0  0.01781  0.58452  0.68573  1.0000
  H   H312      1.0  0.03788  0.61384  0.76336  1.0000
  H   H313      1.0  0.42726  0.68035  0.55745  1.0000
  C   C302      1.0  0.22804  0.73046  0.49805  1.0000
  S   S100      1.0  0.00661  0.51918  0.93258  1.0000
  H   H314      1.0  0.27004  0.55162  0.99253  1.0000
  S   S101      1.0  0.14820  0.50512  0.83160  1.0000
  C   C303      1.0  0.15526  0.50035  0.78863  1.0000
  N   N28       1.0  0.43322  0.68521  0.50144  1.0000
  H   H315      1.0  0.43307  0.65973  0.51919  1.0000
  C   C304      1.0  0.23054  0.51018  0.98907  1.0000
  H   H316      1.0  0.46505  0.56791  0.96043  1.0000
  C   C305      1.0  0.12604  0.60135  0.51542  1.0000
  C   C306      1.0  0.49514  0.50745  0.97709  1.0000
  C   C307      1.0  0.25347  0.72290  0.51335  1.0000
  Fe  Fe52      1.0  0.00981  0.57405  0.62649  1.0000
  C   C308      1.0  0.43285  0.71957  0.51468  1.0000
  C   C309      1.0  0.14691  0.50334  0.75687  1.0000
  H   H317      1.0  0.03267  0.53746  0.99569  1.0000
  H   H318      1.0  0.19950  0.55808  0.81253  1.0000
  C   C310      1.0  0.49749  0.50831  0.53033  1.0000
  C   C311      1.0  0.18292  0.59361  0.55059  1.0000
  H   H319      1.0  0.19202  0.60205  0.57299  1.0000
  C   C312      1.0  0.04168  0.61406  0.85562  1.0000
  C   C313      1.0  0.35222  0.57208  0.94819  1.0000
  H   H320      1.0  0.45161  0.64646  0.75289  1.0000
  C   C314      1.0  0.24205  0.52927  0.98581  1.0000
  H   H321      1.0  0.10388  0.68053  0.49774  1.0000
  H   H322      1.0  0.05068  0.61335  0.87757  1.0000
  S   S102      1.0  0.42683  0.60949  0.95280  1.0000
  C   C315      1.0  0.17595  0.55083  0.74466  1.0000
  H   H323      1.0  0.39406  0.53772  0.52413  1.0000
  H   H324      1.0  0.15864  0.54823  0.52087  1.0000
  C   C316      1.0  0.18802  0.54464  0.80213  1.0000
  H   H325      1.0  0.12733  0.54026  0.99362  1.0000
  C   C317      1.0  0.22251  0.67668  0.98204  1.0000
  C   C318      1.0  0.42963  0.70720  0.54271  1.0000
  H   H326      1.0  0.12472  0.62038  0.55663  1.0000
  H   H327      1.0  0.17467  0.54306  0.81377  1.0000
  S   S103      1.0  0.46318  0.70479  0.97206  1.0000
  C   C319      1.0  0.43916  0.59179  0.52811  1.0000
  H   H328      1.0  0.38372  0.59441  0.55844  1.0000
  H   H329      1.0  0.06531  0.56722  0.56091  1.0000
  S   S104      1.0  0.04059  0.60456  0.50630  1.0000
  H   H330      1.0  0.05902  0.61247  0.81293  1.0000
  C   C320      1.0  0.17859  0.60233  0.52147  1.0000
  H   H331      1.0  0.41651  0.57672  0.56265  1.0000
  C   C321      1.0  0.07404  0.62751  0.54262  1.0000
  C   C322      1.0  0.10437  0.63917  0.51432  1.0000
  S   S105      1.0  0.00561  0.56237  0.98477  1.0000
  C   C323      1.0  0.40199  0.58049  0.99009  1.0000
  H   H332      1.0  0.14226  0.55602  0.96075  1.0000
  C   C324      1.0  0.01808  0.61550  0.80053  1.0000
  H   H333      1.0  0.39964  0.57245  0.96473  1.0000
  C   C325      1.0  0.18142  0.60328  0.97769  1.0000
  C   C326      1.0  0.48855  0.70815  0.85335  1.0000
  H   H334      1.0  0.18440  0.61742  0.52142  1.0000
  C   C327      1.0  0.48532  0.61530  0.69435  1.0000
  C   C328      1.0  0.46911  0.57955  0.98006  1.0000
  H   H335      1.0  0.42729  0.71106  0.56991  1.0000
  H   H336      1.0  0.45319  0.68531  0.85156  1.0000
  H   H337      1.0  0.47631  0.59406  0.65104  1.0000
  C   C329      1.0  0.21253  0.54649  0.50420  1.0000
  H   H338      1.0  0.21066  0.58817  0.50860  1.0000
  C   C330      1.0  0.45053  0.50335  0.55308  1.0000
  H   H339      1.0  0.25914  0.71281  0.51424  1.0000
  C   C331      1.0  0.41540  0.59925  0.99249  1.0000
  C   C332      1.0  0.02071  0.52309  0.49576  1.0000
  C   C333      1.0  0.23514  0.71723  0.49897  1.0000
  C   C334      1.0  0.26604  0.51410  0.49824  1.0000
  H   H340      1.0  0.43329  0.73325  0.51996  1.0000
  S   S106      1.0  0.36173  0.49958  0.51833  1.0000
  H   H341      1.0  0.14080  0.60971  0.51098  1.0000
  S   S107      1.0  0.20588  0.49989  0.97936  1.0000
  C   C335      1.0  0.23929  0.74913  0.51047  1.0000
  H   H342      1.0  0.49316  0.92033  0.04429  1.0000
  H   H343      1.0  0.46851  0.99859  0.31912  1.0000
  Fe  Fe53      1.0  0.45272  0.81408  0.06016  1.0000
  C   C336      1.0  0.35715  0.92187  0.00801  1.0000
  S   S108      1.0  0.49651  0.82072  0.43335  1.0000
  C   C337      1.0  0.29232  0.82314  0.05507  1.0000
  C   C338      1.0  0.41274  0.94844  0.27608  1.0000
  C   C339      1.0  0.48536  0.83670  0.28201  1.0000
  S   S109      1.0  0.46893  0.80344  0.09580  1.0000
  S   S110      1.0  0.46750  0.84330  0.08306  1.0000
  Fe  Fe54      1.0  0.47655  0.81449  0.38411  1.0000
  C   C340      1.0  0.40091  0.88595  0.00545  1.0000
  Fe  Fe55      1.0  0.44428  0.81098  0.43108  1.0000
  S   S111      1.0  0.41494  0.80875  0.42807  1.0000
  C   C341      1.0  0.37998  0.80807  0.01076  1.0000
  Fe  Fe56      1.0  0.47256  0.79689  0.45866  1.0000
  C   C342      1.0  0.43441  0.78107  0.18838  1.0000
  S   S112      1.0  0.46589  0.83512  0.40256  1.0000
  S   S113      1.0  0.45331  0.78981  0.40900  1.0000
  Fe  Fe57      1.0  0.40670  0.96736  0.46760  1.0000
  S   S114      1.0  0.41428  0.96130  0.41225  1.0000
  H   H344      1.0  0.39970  0.98033  0.20832  1.0000
  Fe  Fe58      1.0  0.39832  0.96256  0.07784  1.0000
  S   S115      1.0  0.37347  0.93350  0.07745  1.0000
  S   S116      1.0  0.42233  0.96246  0.11090  1.0000
  N   N29       1.0  0.27768  0.76616  0.44320  1.0000
  C   C343      1.0  0.48285  0.99873  0.47939  1.0000
  N   N30       1.0  0.43950  0.79099  0.22098  1.0000
  H   H345      1.0  0.43958  0.83809  0.48731  1.0000
  H   H346      1.0  0.48726  0.85852  0.24636  1.0000
  C   C344      1.0  0.35815  0.89797  0.04569  1.0000
  C   C345      1.0  0.44499  0.96827  0.26412  1.0000
  H   H347      1.0  0.45109  0.77563  0.25005  1.0000
  S   S117      1.0  0.43651  0.98527  0.48533  1.0000
  C   C346      1.0  0.30728  0.85686  0.05787  1.0000
  C   C347      1.0  0.30463  0.83997  0.07264  1.0000
  Fe  Fe59      1.0  0.43956  0.97769  0.06500  1.0000
  C   C348      1.0  0.48543  0.81924  0.28455  1.0000
  C   C349      1.0  0.29766  0.85665  0.02544  1.0000
  C   C350      1.0  0.41694  0.91730  0.03205  1.0000
  H   H348      1.0  0.36236  0.89398  0.07092  1.0000
  Fe  Fe60      1.0  0.42744  0.99055  0.13436  1.0000
  H   H349      1.0  0.30013  0.86985  0.01364  1.0000
  C   C351      1.0  0.34770  0.88407  0.01878  1.0000
  Fe  Fe61      1.0  0.48779  0.84881  0.03838  1.0000
  S   S118      1.0  0.48298  0.80792  0.32647  1.0000
  C   C352      1.0  0.36736  0.89215  0.47273  1.0000
  H   H350      1.0  0.47189  0.97997  0.33982  1.0000
  H   H351      1.0  0.29028  0.80987  0.06601  1.0000
  Fe  Fe62      1.0  0.48528  0.83336  0.11581  1.0000
  H   H352      1.0  0.24933  0.75522  0.42345  1.0000
  H   H353      1.0  0.39838  0.94003  0.26652  1.0000
  H   H354      1.0  0.43170  0.76648  0.18674  1.0000
  H   H355      1.0  0.28301  0.79205  0.42003  1.0000
  C   C353      1.0  0.48153  0.98254  0.46116  1.0000
  H   H356      1.0  0.48924  0.95981  0.46244  1.0000
  C   C354      1.0  0.36291  0.91695  0.04058  1.0000
  C   C355      1.0  0.41716  0.95177  0.31328  1.0000
  H   H357      1.0  0.38102  0.81155  0.44092  1.0000
  C   C356      1.0  0.26350  0.76041  0.00974  1.0000
  H   H358      1.0  0.31696  0.87007  0.07104  1.0000
  H   H359      1.0  0.38383  0.97463  0.26732  1.0000
  C   C357      1.0  0.46805  0.98458  0.31394  1.0000
  H   H360      1.0  0.48084  0.75543  0.43878  1.0000
  C   C358      1.0  0.43281  0.78962  0.15662  1.0000
  H   H361      1.0  0.42887  0.78183  0.13063  1.0000
  C   C359      1.0  0.39569  0.85923  0.48727  1.0000
  C   C360      1.0  0.41919  0.82446  0.01325  1.0000
  H   H362      1.0  0.41630  0.86423  0.44720  1.0000
  C   C361      1.0  0.44311  0.80945  0.22292  1.0000
  H   H363      1.0  0.44617  0.79141  0.27807  1.0000
  H   H364      1.0  0.42244  0.89432  0.04817  1.0000
  N   N31       1.0  0.28571  0.84008  0.00825  1.0000
  H   H365      1.0  0.43431  0.83083  0.01408  1.0000
  H   H366      1.0  0.39880  0.87150  0.00425  1.0000
  S   S119      1.0  0.47125  0.81972  0.01252  1.0000
  C   C362      1.0  0.38968  0.80046  0.03192  1.0000
  S   S120      1.0  0.40276  0.99253  0.45085  1.0000
  C   C363      1.0  0.49026  0.76679  0.01533  1.0000
  H   H367      1.0  0.45553  0.97537  0.24457  1.0000
  H   H368      1.0  0.30555  0.77331  0.46260  1.0000
  S   S121      1.0  0.39750  0.98524  0.34135  1.0000
  H   H369      1.0  0.36486  0.80175  0.01009  1.0000
  C   C364      1.0  0.38490  0.80671  0.46546  1.0000
  S   S122      1.0  0.49018  0.84645  0.17361  1.0000
  H   H370      1.0  0.38199  0.78825  0.04741  1.0000
  S   S123      1.0  0.41551  0.97677  0.03054  1.0000
  H   H371      1.0  0.34410  0.86956  0.02332  1.0000
  S   S124      1.0  0.46804  0.97461  0.42045  1.0000
  C   C365      1.0  0.40113  0.80397  0.46672  1.0000
  Fe  Fe63      1.0  0.48400  0.83978  0.45332  1.0000
  C   C366      1.0  0.44197  0.81852  0.19158  1.0000
  C   C367      1.0  0.43672  0.80849  0.15829  1.0000
  H   H372      1.0  0.40625  0.94601  0.33277  1.0000
  C   C368      1.0  0.29237  0.76230  0.45200  1.0000
  S   S125      1.0  0.45830  0.96508  0.04638  1.0000
  C   C369      1.0  0.48850  0.83562  0.21589  1.0000
  H   H373      1.0  0.48960  0.81083  0.19407  1.0000
  N   N32       1.0  0.44921  0.97137  0.30069  1.0000
  H   H374      1.0  0.44742  0.81743  0.24860  1.0000
  C   C370      1.0  0.40930  0.80864  0.03321  1.0000
  C   C371      1.0  0.41161  0.85856  0.47351  1.0000
  Fe  Fe64      1.0  0.48853  0.81060  0.04938  1.0000
  C   C372      1.0  0.43560  0.96331  0.32518  1.0000
  C   C373      1.0  0.40914  0.99020  0.29984  1.0000
  H   H375      1.0  0.43895  0.96615  0.35409  1.0000
  S   S126      1.0  0.46165  0.81640  0.48235  1.0000
  H   H376      1.0  0.36580  0.88455  0.44711  1.0000
  C   C374      1.0  0.27989  0.78540  0.44671  1.0000
  H   H377      1.0  0.48110  0.89795  0.09657  1.0000
  C   C375      1.0  0.39880  0.98302  0.26687  1.0000
  C   C376      1.0  0.47093  0.75683  0.00867  1.0000
  Fe  Fe65      1.0  0.41262  0.98761  0.39594  1.0000
  S   S127      1.0  0.42119  0.79895  0.05989  1.0000
  H   H378      1.0  0.42711  0.77026  0.25990  1.0000
  H   H379      1.0  0.44565  0.83335  0.19295  1.0000
  H   H380      1.0  0.42720  0.92744  0.05122  1.0000
  S   S128      1.0  0.28571  0.78068  0.01135  1.0000
  H   H381      1.0  0.42333  0.95476  0.22225  1.0000
  C   C377      1.0  0.37687  0.91188  0.47417  1.0000
  H   H382      1.0  0.48743  0.79670  0.25423  1.0000
  C   C378      1.0  0.40774  0.98625  0.23344  1.0000
  S   S129      1.0  0.49306  0.87598  0.00932  1.0000
  H   H383      1.0  0.26700  0.78562  0.45710  1.0000
  C   C379      1.0  0.42674  0.95664  0.25127  1.0000
  Fe  Fe66      1.0  0.44376  0.98120  0.42884  1.0000
  C   C380      1.0  0.28288  0.82344  0.02274  1.0000
  S   S130      1.0  0.40198  0.98985  0.10544  1.0000
  H   H384      1.0  0.38255  0.91929  0.44983  1.0000
  H   H385      1.0  0.43590  0.81536  0.13368  1.0000
  C   C381      1.0  0.44097  0.78160  0.25381  1.0000
  H   H386      1.0  0.38803  0.86528  0.47195  1.0000
  C   C382      1.0  0.47641  0.98010  0.02007  1.0000
  C   C383      1.0  0.48839  0.81809  0.21838  1.0000
  H   H387      1.0  0.31221  0.83990  0.09747  1.0000
  H   H388      1.0  0.48416  0.84394  0.30635  1.0000
  H   H389      1.0  0.36132  0.80565  0.49457  1.0000
  H   H390      1.0  0.26536  0.75575  0.06682  1.0000
  H   H391      1.0  0.46209  0.76376  0.01314  1.0000
  C   C384      1.0  0.49039  0.97245  0.47625  1.0000
  C   C385      1.0  0.25684  0.75085  0.04194  1.0000
  H   H392      1.0  0.47870  0.98574  0.29399  1.0000
  H   H393      1.0  0.29134  0.79397  0.46681  1.0000
  C   C386      1.0  0.41426  0.89875  0.03033  1.0000
  H   H394      1.0  0.27349  0.81023  0.00918  1.0000
  C   C387      1.0  0.42708  0.99706  0.23275  1.0000
  C   C388      1.0  0.48711  0.84491  0.24792  1.0000
  C   C389      1.0  0.40635  0.92281  0.00893  1.0000
  C   C390      1.0  0.43797  0.85054  0.47849  1.0000
  N   N33       1.0  0.42101  0.85065  0.49278  1.0000
  H   H395      1.0  0.45053  0.86335  0.48810  1.0000
  C   C391      1.0  0.48988  0.97462  0.00810  1.0000
  H   H396      1.0  0.48802  0.87576  0.13245  1.0000
  C   C392      1.0  0.47750  0.99746  0.01092  1.0000
  H   H397      1.0  0.43727  0.84960  0.44826  1.0000
  S   S131      1.0  0.49442  0.86621  0.49087  1.0000
  H   H398      1.0  0.36035  0.93635  0.00395  1.0000
  H   H399      1.0  0.48903  0.96119  0.01514  1.0000
  C   C393      1.0  0.49540  0.89989  0.09961  1.0000
  C   C394      1.0  0.48712  0.81010  0.25256  1.0000
  C   C395      1.0  0.26106  0.75224  0.42992  1.0000
  H   H400      1.0  0.40823  0.93716  0.01039  1.0000
  Fe  Fe67      1.0  0.32277  0.84186  0.94805  1.0000
  S   S132      1.0  0.34186  0.83740  0.90947  1.0000
  C   C396      1.0  0.34617  0.90791  0.98161  1.0000
  Fe  Fe68      1.0  0.30524  0.80077  0.97016  1.0000
  S   S133      1.0  0.32446  0.79416  0.93464  1.0000
  H   H401      1.0  0.26677  0.81934  0.72645  1.0000
  H   H402      1.0  0.35377  0.81626  0.82191  1.0000
  C   C397      1.0  0.38971  0.81519  0.89269  1.0000
  Fe  Fe69      1.0  0.31772  0.81036  0.89189  1.0000
  S   S134      1.0  0.31298  0.79709  0.83430  1.0000
  C   C398      1.0  0.27208  0.79623  0.62802  1.0000
  S   S135      1.0  0.29744  0.81582  0.92662  1.0000
  Fe  Fe70      1.0  0.34280  0.80343  0.56943  1.0000
  S   S136      1.0  0.32701  0.80620  0.52060  1.0000
  S   S137      1.0  0.36474  0.79267  0.56642  1.0000
  Fe  Fe71      1.0  0.32582  0.82147  0.62149  1.0000
  S   S138      1.0  0.30934  0.82624  0.57540  1.0000
  S   S139      1.0  0.32488  0.83323  0.67851  1.0000
  Fe  Fe72      1.0  0.30228  0.79658  0.55634  1.0000
  S   S140      1.0  0.38940  0.94688  0.50985  1.0000
  Fe  Fe73      1.0  0.33541  0.83549  0.54338  1.0000
  S   S141      1.0  0.32904  0.82749  0.99397  1.0000
  S   S142      1.0  0.31742  0.79145  0.60418  1.0000
  S   S143      1.0  0.35240  0.83299  0.59060  1.0000
  C   C399      1.0  0.37089  0.91201  0.53814  1.0000
  H   H403      1.0  0.41729  0.84423  0.97665  1.0000
  H   H404      1.0  0.40924  0.84121  0.87120  1.0000
  C   C400      1.0  0.27497  0.78709  0.69924  1.0000
  H   H405      1.0  0.36641  0.86594  0.97222  1.0000
  C   C401      1.0  0.36402  0.81603  0.84157  1.0000
  H   H406      1.0  0.38615  0.84177  0.82490  1.0000
  H   H407      1.0  0.29097  0.83237  0.71479  1.0000
  H   H408      1.0  0.47586  0.75198  0.55448  1.0000
  C   C402      1.0  0.27007  0.77836  0.63519  1.0000
  C   C403      1.0  0.36159  0.89227  0.53681  1.0000
  C   C404      1.0  0.38951  0.85185  0.52097  1.0000
  H   H409      1.0  0.35564  0.88486  0.56102  1.0000
  C   C405      1.0  0.27581  0.80934  0.65679  1.0000
  C   C406      1.0  0.37848  0.79696  0.52765  1.0000
  H   H410      1.0  0.39845  0.78916  0.55333  1.0000
  H   H411      1.0  0.49425  0.80156  0.56224  1.0000
  C   C407      1.0  0.39468  0.79414  0.52886  1.0000
  N   N34       1.0  0.37186  0.80116  0.89070  1.0000
  C   C408      1.0  0.41508  0.84350  0.52601  1.0000
  C   C409      1.0  0.41438  0.99376  0.56600  1.0000
  H   H412      1.0  0.47142  0.97642  0.58363  1.0000
  H   H413      1.0  0.28595  0.84876  0.95419  1.0000
  H   H414      1.0  0.26614  0.84677  0.97980  1.0000
  H   H415      1.0  0.43872  0.95125  0.57844  1.0000
  H   H416      1.0  0.37712  0.85217  0.53171  1.0000
  S   S144      1.0  0.32605  0.87171  0.95430  1.0000
  C   C410      1.0  0.42664  0.97066  0.57407  1.0000
  C   C411      1.0  0.31775  0.80779  0.79152  1.0000
  C   C412      1.0  0.32283  0.82684  0.78805  1.0000
  C   C413      1.0  0.32566  0.83451  0.75333  1.0000
  C   C414      1.0  0.32364  0.82333  0.72172  1.0000
  C   C415      1.0  0.31915  0.80442  0.72532  1.0000
  C   C416      1.0  0.31610  0.79669  0.75999  1.0000
  H   H417      1.0  0.32419  0.83559  0.81199  1.0000
  H   H418      1.0  0.32911  0.84916  0.75088  1.0000
  H   H419      1.0  0.31759  0.79565  0.70131  1.0000
  H   H420      1.0  0.31232  0.78197  0.76237  1.0000
  H   H421      1.0  0.39968  0.81532  0.91345  1.0000
  H   H422      1.0  0.27093  0.79996  0.60026  1.0000
  N   N35       1.0  0.27714  0.80466  0.69186  1.0000
  C   C417      1.0  0.45973  0.97992  0.58112  1.0000
  C   C418      1.0  0.25219  0.75383  0.97791  1.0000
  C   C419      1.0  0.35956  0.88222  0.50394  1.0000
  H   H423      1.0  0.49417  0.90805  0.97398  1.0000
  H   H424      1.0  0.36102  0.79077  0.94152  1.0000
  H   H425      1.0  0.34120  0.91185  0.95719  1.0000
  S   S145      1.0  0.47439  0.77638  0.49986  1.0000
  S   S146      1.0  0.37858  0.83366  0.96293  1.0000
  C   C420      1.0  0.36617  0.78636  0.91704  1.0000
  C   C421      1.0  0.38992  0.82385  0.99075  1.0000
  H   H426      1.0  0.26745  0.76818  0.61293  1.0000
  H   H427      1.0  0.27784  0.82336  0.65087  1.0000
  C   C422      1.0  0.38220  0.83034  0.84328  1.0000
  C   C423      1.0  0.37851  0.92196  0.50684  1.0000
  C   C424      1.0  0.37672  0.87774  0.95721  1.0000
  C   C425      1.0  0.39516  0.82998  0.86904  1.0000
  H   H428      1.0  0.28492  0.81458  0.74724  1.0000
  C   C426      1.0  0.35901  0.80152  0.86577  1.0000
  H   H429      1.0  0.41246  0.95962  0.57182  1.0000
  H   H430      1.0  0.49383  0.83165  0.58066  1.0000
  C   C427      1.0  0.28000  0.81837  0.72161  1.0000
  H   H431      1.0  0.39410  0.83758  0.56625  1.0000
  C   C428      1.0  0.44144  0.96583  0.57817  1.0000
  Fe  Fe74      1.0  0.34724  0.82194  0.95476  1.0000
  H   H432      1.0  0.23370  0.75926  0.50909  1.0000
  H   H433      1.0  0.40258  0.98237  0.55028  1.0000
  C   C429      1.0  0.27160  0.77374  0.67100  1.0000
  H   H434      1.0  0.37199  0.91962  0.56354  1.0000
  H   H435      1.0  0.27615  0.78340  0.72702  1.0000
  H   H436      1.0  0.38367  0.87209  0.93795  1.0000
  C   C430      1.0  0.39321  0.90970  0.98424  1.0000
  H   H437      1.0  0.35490  0.77307  0.90533  1.0000
  C   C431      1.0  0.25777  0.75488  0.52394  1.0000
  H   H438      1.0  0.38495  0.91413  0.96661  1.0000
  H   H439      1.0  0.36879  0.88375  0.94126  1.0000
  N   N36       1.0  0.43001  0.98898  0.57171  1.0000
  C   C432      1.0  0.39919  0.84389  0.54051  1.0000
  S   S147      1.0  0.27168  0.77898  0.53655  1.0000
  H   H440      1.0  0.37809  0.78350  0.92574  1.0000
  H   H441      1.0  0.34471  0.79066  0.86461  1.0000
  H   H442      1.0  0.25697  0.76093  0.95288  1.0000
  H   H443      1.0  0.42234  0.83699  0.54108  1.0000
  H   H444      1.0  0.27025  0.75994  0.67682  1.0000
  H   H445      1.0  0.40938  0.99622  0.59253  1.0000
  H   H446      1.0  0.26748  0.82613  0.96197  1.0000
  C   C433      1.0  0.27577  0.84039  0.97443  1.0000
  C   C434      1.0  0.34123  0.88892  0.98695  1.0000
  C   C435      1.0  0.40951  0.83202  0.99209  1.0000
  S   S148      1.0  0.34714  0.85736  0.49996  1.0000
  H   H447      1.0  0.41848  0.79551  0.49979  1.0000
  C   C436      1.0  0.46298  0.99859  0.58038  1.0000
  C   C437      1.0  0.40607  0.79778  0.49861  1.0000
  N   N37       1.0  0.39058  0.89151  0.98288  1.0000
  C   C438      1.0  0.47798  0.75580  0.49670  1.0000
  C   C439      1.0  0.37368  0.80335  0.49585  1.0000
  Fe  Fe75      1.0  0.67861  0.19425  0.45152  1.0000
  S   S149      1.0  0.66048  0.19299  0.40228  1.0000
  H   H448      1.0  0.56851  0.06400  0.06009  1.0000
  Fe  Fe76      1.0  0.65472  0.15179  0.46278  1.0000
  S   S150      1.0  0.63597  0.14800  0.41377  1.0000
  S   S151      1.0  0.63059  0.18922  0.00139  1.0000
  Fe  Fe77      1.0  0.66206  0.16654  0.38538  1.0000
  S   S152      1.0  0.67009  0.16060  0.32881  1.0000
  Fe  Fe78      1.0  0.63601  0.17477  0.43478  1.0000
  S   S153      1.0  0.60834  0.17644  0.43430  1.0000
  S   S154      1.0  0.68125  0.16830  0.43318  1.0000
  H   H449      1.0  0.53979  0.19633  0.46886  1.0000
  Fe  Fe79      1.0  0.64747  0.17909  0.03703  1.0000
  S   S155      1.0  0.49875  0.16039  0.99753  1.0000
  C   C440      1.0  0.57647  0.16857  0.47105  1.0000
  Fe  Fe80      1.0  0.66012  0.17727  0.11557  1.0000
  S   S156      1.0  0.67917  0.16501  0.09679  1.0000
  S   S157      1.0  0.65385  0.18495  0.17242  1.0000
  Fe  Fe81      1.0  0.68778  0.18657  0.05316  1.0000
  S   S158      1.0  0.71874  0.20256  0.03923  1.0000
  Fe  Fe82      1.0  0.65536  0.14661  0.05763  1.0000
  S   S159      1.0  0.64418  0.11467  0.05543  1.0000
  S   S160      1.0  0.67019  0.19988  0.07456  1.0000
  S   S161      1.0  0.63588  0.15769  0.07931  1.0000
  H   H450      1.0  0.60159  0.09376  0.07353  1.0000
  H   H451      1.0  0.68870  0.23919  0.33923  1.0000
  H   H452      1.0  0.58108  0.16279  0.13189  1.0000
  H   H453      1.0  0.70427  0.14392  0.09450  1.0000
  H   H454      1.0  0.55118  0.22088  0.46064  1.0000
  C   C441      1.0  0.62343  0.19656  0.10993  1.0000
  H   H455      1.0  0.70253  0.22679  0.38584  1.0000
  S   S162      1.0  0.65365  0.17801  0.48510  1.0000
  C   C442      1.0  0.65772  0.17721  0.21543  1.0000
  C   C443      1.0  0.65120  0.18255  0.24684  1.0000
  C   C444      1.0  0.65437  0.17717  0.28162  1.0000
  C   C445      1.0  0.66427  0.16648  0.28547  1.0000
  C   C446      1.0  0.67074  0.16112  0.25406  1.0000
  C   C447      1.0  0.66746  0.16638  0.21926  1.0000
  H   H456      1.0  0.64366  0.19092  0.24428  1.0000
  H   H457      1.0  0.64937  0.18148  0.30548  1.0000
  H   H458      1.0  0.67844  0.15288  0.25668  1.0000
  H   H459      1.0  0.67259  0.16218  0.19547  1.0000
  H   H460      1.0  0.55262  0.04024  0.01013  1.0000
  C   C448      1.0  0.69360  0.22893  0.33144  1.0000
  H   H461      1.0  0.63815  0.20160  0.11738  1.0000
  H   H462      1.0  0.51648  0.24263  0.07496  1.0000
  S   S163      1.0  0.70196  0.22424  0.46210  1.0000
  C   C449      1.0  0.57194  0.06771  0.03220  1.0000
  H   H463      1.0  0.69660  0.20384  0.25793  1.0000
  C   C450      1.0  0.57712  0.15374  0.02229  1.0000
  H   H464      1.0  0.59025  0.12554  0.42758  1.0000
  N   N38       1.0  0.69593  0.13695  0.03811  1.0000
  C   C451      1.0  0.60997  0.07755  0.46427  1.0000
  H   H465      1.0  0.67584  0.10960  0.02031  1.0000
  H   H466      1.0  0.70845  0.23264  0.01957  1.0000
  H   H467      1.0  0.56995  0.14150  0.03804  1.0000
  H   H468      1.0  0.75741  0.22310  0.02143  1.0000
  C   C452      1.0  0.73151  0.22551  0.02229  1.0000
  C   C453      1.0  0.72308  0.23647  0.48927  1.0000
  H   H469      1.0  0.57005  0.02229  0.42678  1.0000
  C   C454      1.0  0.62294  0.09663  0.46640  1.0000
  C   C455      1.0  0.59036  0.11945  0.45357  1.0000
  H   H470      1.0  0.62579  0.10485  0.44240  1.0000
  H   H471      1.0  0.60294  0.07126  0.43848  1.0000
  H   H472      1.0  0.61499  0.17465  0.14845  1.0000
  C   C456      1.0  0.69621  0.13161  0.07585  1.0000
  N   N39       1.0  0.70696  0.20834  0.34842  1.0000
  C   C457      1.0  0.70135  0.22177  0.35778  1.0000
  C   C458      1.0  0.70565  0.20219  0.31295  1.0000
  H   H473      1.0  0.57097  0.17839  0.08420  1.0000
  C   C459      1.0  0.69822  0.20924  0.28583  1.0000
  C   C460      1.0  0.69196  0.22253  0.29527  1.0000
  C   C461      1.0  0.71488  0.20073  0.37615  1.0000
  H   H474      1.0  0.60489  0.11253  0.04476  1.0000
  H   H475      1.0  0.70968  0.19123  0.30567  1.0000
  H   H476      1.0  0.58375  0.10199  0.06945  1.0000
  H   H477      1.0  0.68172  0.12473  0.08563  1.0000
  C   C462      1.0  0.55317  0.20793  0.46105  1.0000
  H   H478      1.0  0.70842  0.18520  0.37301  1.0000
  H   H479      1.0  0.73022  0.20640  0.37355  1.0000
  H   H480      1.0  0.71218  0.20430  0.40414  1.0000
  N   N40       1.0  0.61777  0.20488  0.08339  1.0000
  C   C463      1.0  0.54030  0.00703  0.41825  1.0000
  H   H481      1.0  0.62677  0.22182  0.03721  1.0000
  H   H482      1.0  0.63457  0.23412  0.08116  1.0000
  H   H483      1.0  0.59464  0.20531  0.05365  1.0000
  C   C464      1.0  0.61034  0.18131  0.12775  1.0000
  H   H484      1.0  0.64491  0.21970  0.06256  1.0000
  C   C465      1.0  0.59539  0.17239  0.47402  1.0000
  H   H485      1.0  0.55600  0.20438  0.43322  1.0000
  C   C466      1.0  0.68474  0.12374  0.01254  1.0000
  C   C467      1.0  0.63382  0.09736  0.01959  1.0000
  C   C468      1.0  0.59666  0.16186  0.02099  1.0000
  C   C469      1.0  0.75070  0.23202  0.01590  1.0000
  C   C470      1.0  0.63167  0.22101  0.06539  1.0000
  H   H486      1.0  0.51142  0.21580  0.03261  1.0000
  H   H487      1.0  0.61083  0.14522  0.47813  1.0000
  H   H488      1.0  0.56987  0.16745  0.44448  1.0000
  C   C471      1.0  0.62392  0.07850  0.02843  1.0000
  H   H489      1.0  0.70257  0.12174  0.07772  1.0000
  H   H490      1.0  0.60447  0.15587  0.03562  1.0000
  C   C472      1.0  0.59136  0.17473  0.11856  1.0000
  H   H491      1.0  0.68561  0.22761  0.27460  1.0000
  C   C473      1.0  0.58568  0.18355  0.09203  1.0000
  H   H492      1.0  0.58767  0.21209  0.44702  1.0000
  C   C474      1.0  0.59916  0.19876  0.07474  1.0000
  C   C475      1.0  0.59417  0.09908  0.05449  1.0000
  C   C476      1.0  0.72315  0.23733  0.01497  1.0000
  C   C477      1.0  0.57955  0.09302  0.49215  1.0000
  H   H493      1.0  0.62256  0.07489  0.05669  1.0000
  S   S164      1.0  0.66555  0.16692  0.01271  1.0000
  C   C478      1.0  0.50910  0.22735  0.02303  1.0000
  C   C479      1.0  0.57915  0.10051  0.45849  1.0000
  N   N41       1.0  0.58492  0.08529  0.02452  1.0000
  C   C480      1.0  0.56298  0.05421  0.00421  1.0000
  H   H494      1.0  0.57030  0.09162  0.43618  1.0000
  C   C481      1.0  0.60603  0.17785  0.00121  1.0000
  H   H495      1.0  0.71591  0.16541  0.04856  1.0000
  H   H496      1.0  0.52955  0.24434  0.46161  1.0000
  H   H497      1.0  0.53819  0.01948  0.41541  1.0000
  C   C482      1.0  0.55828  0.00852  0.42487  1.0000
  H   H498      1.0  0.58826  0.00799  0.45477  1.0000
  C   C483      1.0  0.70702  0.15483  0.02841  1.0000
  H   H499      1.0  0.60839  0.04975  0.00835  1.0000
  N   N42       1.0  0.56825  0.21042  0.48741  1.0000
  C   C484      1.0  0.51195  0.24263  0.04703  1.0000
  C   C485      1.0  0.60196  0.13061  0.48241  1.0000
  C   C486      1.0  0.58528  0.21270  0.47579  1.0000
  C   C487      1.0  0.61585  0.06419  0.00106  1.0000
  C   C488      1.0  0.56682  0.16155  0.00384  1.0000
  S   S165      1.0  0.54244  0.15117  0.00757  1.0000
  C   C489      1.0  0.52196  0.24732  0.48276  1.0000
  S   S166      1.0  0.58947  0.04259  0.49063  1.0000
  H   H500      1.0  0.61289  0.21606  0.49155  1.0000
  C   C490      1.0  0.60607  0.06657  0.49514  1.0000
  Fe  Fe83      1.0  0.57698  0.02033  0.53331  1.0000
  S   S167      1.0  0.56576  0.02371  0.58686  1.0000
  H   H501      1.0  0.75203  0.23077  0.55247  1.0000
  H   H502      1.0  0.55155  0.16368  0.49970  1.0000
  C   C491      1.0  0.59968  0.21506  0.50090  1.0000
  Fe  Fe84      1.0  0.58451  0.02192  0.92711  1.0000
  S   S168      1.0  0.56159  0.02155  0.88982  1.0000
  S   S169      1.0  0.60973  0.05083  0.92878  1.0000
  C   C492      1.0  0.57610  0.17733  0.98344  1.0000
  Fe  Fe85      1.0  0.57368  0.00154  0.60668  1.0000
  C   C493      1.0  0.63560  0.10175  0.98292  1.0000
  Fe  Fe86      1.0  0.51367  0.19024  0.54965  1.0000
  S   S170      1.0  0.53097  0.19149  0.59995  1.0000
  S   S171      1.0  0.52059  0.21533  0.51290  1.0000
  Fe  Fe87      1.0  0.53396  0.16707  0.57416  1.0000
  H   H503      1.0  0.54957  0.16356  0.87506  1.0000
  S   S172      1.0  0.56575  0.00820  0.97286  1.0000
  H   H504      1.0  0.58719  0.04853  0.72674  1.0000
  C   C494      1.0  0.58072  0.07669  0.96070  1.0000
  H   H505      1.0  0.58468  0.08011  0.93289  1.0000
  Fe  Fe88      1.0  0.50457  0.16949  0.62212  1.0000
  S   S173      1.0  0.52686  0.17886  0.92962  1.0000
  C   C495      1.0  0.60377  0.17371  0.50850  1.0000
  H   H506      1.0  0.56906  0.03495  0.66926  1.0000
  Fe  Fe89      1.0  0.52257  0.15732  0.97133  1.0000
  C   C496      1.0  0.59569  0.18545  0.98212  1.0000
  H   H507      1.0  0.60581  0.14010  0.56285  1.0000
  C   C497      1.0  0.53969  0.11835  0.93777  1.0000
  C   C498      1.0  0.52020  0.10416  0.88388  1.0000
  H   H508      1.0  0.69499  0.15045  0.93825  1.0000
  C   C499      1.0  0.69537  0.14658  0.96618  1.0000
  H   H509      1.0  0.50061  0.23006  0.56128  1.0000
  C   C500      1.0  0.57856  0.00128  0.77022  1.0000
  C   C501      1.0  0.56523  0.21082  0.52376  1.0000
  H   H510      1.0  0.50846  0.09255  0.87019  1.0000
  Fe  Fe90      1.0  0.50152  0.18031  0.95312  1.0000
  H   H511      1.0  0.52319  0.14417  0.76334  1.0000
  H   H512      1.0  0.62624  0.14754  0.53557  1.0000
  S   S174      1.0  0.50879  0.14504  0.60004  1.0000
  N   N43       1.0  0.54361  0.01887  0.69531  1.0000
  C   C502      1.0  0.62813  0.08735  0.95553  1.0000
  H   H513      1.0  0.60191  0.01679  0.73688  1.0000
  C   C503      1.0  0.56382  0.03380  0.76042  1.0000
  H   H514      1.0  0.51669  0.15302  0.70218  1.0000
  C   C504      1.0  0.73001  0.22752  0.51340  1.0000
  S   S175      1.0  0.56239  0.16701  0.57684  1.0000
  C   C505      1.0  0.50008  0.16622  0.72205  1.0000
  S   S176      1.0  0.51852  0.16703  0.52258  1.0000
  C   C506      1.0  0.57450  0.16809  0.53681  1.0000
  C   C507      1.0  0.55442  0.15322  0.86492  1.0000
  C   C508      1.0  0.51473  0.15162  0.76077  1.0000
  H   H515      1.0  0.56823  0.18342  0.96912  1.0000
  C   C509      1.0  0.50545  0.00381  0.97761  1.0000
  H   H516      1.0  0.52599  0.12161  0.83794  1.0000
  C   C510      1.0  0.50029  0.24230  0.97505  1.0000
  H   H517      1.0  0.57186  0.03911  0.78585  1.0000
  C   C511      1.0  0.61536  0.07493  0.52825  1.0000
  C   C512      1.0  0.62855  0.09395  0.53024  1.0000
  H   H518      1.0  0.61264  0.06668  0.55218  1.0000
  H   H519      1.0  0.63587  0.10017  0.55586  1.0000
  C   C513      1.0  0.56750  0.05877  0.96831  1.0000
  C   C514      1.0  0.61816  0.06848  0.96437  1.0000
  C   C515      1.0  0.61414  0.13520  0.54558  1.0000
  C   C516      1.0  0.59121  0.10466  0.52050  1.0000
  S   S177      1.0  0.52345  0.01877  0.95099  1.0000
  C   C517      1.0  0.63243  0.10493  0.49939  1.0000
  H   H520      1.0  0.60290  0.19783  0.96670  1.0000
  H   H521      1.0  0.51701  0.09053  0.93483  1.0000
  C   C518      1.0  0.58926  0.08992  0.98929  1.0000
  Fe  Fe91      1.0  0.50617  0.15496  0.89364  1.0000
  C   C519      1.0  0.56606  0.16647  0.50233  1.0000
  C   C520      1.0  0.74684  0.23792  0.53404  1.0000
  H   H522      1.0  0.60732  0.21613  0.55779  1.0000
  H   H523      1.0  0.63004  0.09083  0.92724  1.0000
  H   H524      1.0  0.53572  0.02147  0.64082  1.0000
  H   H525      1.0  0.52074  0.00291  0.72821  1.0000
  S   S178      1.0  0.49864  0.20788  0.95528  1.0000
  C   C521      1.0  0.51556  0.23514  0.51179  1.0000
  H   H526      1.0  0.64302  0.11617  0.97562  1.0000
  H   H527      1.0  0.59167  0.09869  0.54642  1.0000
  C   C522      1.0  0.56206  0.03139  0.69482  1.0000
  C   C523      1.0  0.59331  0.17143  0.53974  1.0000
  C   C524      1.0  0.57241  0.03912  0.72731  1.0000
  H   H528      1.0  0.55178  0.20909  0.53294  1.0000
  C   C525      1.0  0.50564  0.23919  0.53875  1.0000
  S   S179      1.0  0.58703  0.99976  0.55394  1.0000
  S   S180      1.0  0.51255  0.14925  0.83528  1.0000
  H   H529      1.0  0.54313  0.11796  0.96635  1.0000
  S   S181      1.0  0.50415  0.13326  0.93375  1.0000
  H   H530      1.0  0.59994  0.17280  0.56637  1.0000
  C   C526      1.0  0.59657  0.21510  0.53803  1.0000
  C   C527      1.0  0.51106  0.15662  0.72596  1.0000
  C   C528      1.0  0.68428  0.12833  0.97623  1.0000
  C   C529      1.0  0.54507  0.02085  0.76068  1.0000
  H   H531      1.0  0.57646  0.21242  0.57836  1.0000
  C   C530      1.0  0.53512  0.01343  0.72767  1.0000
  S   S182      1.0  0.58868  0.00761  0.66240  1.0000
  H   H532      1.0  0.62020  0.12758  0.56211  1.0000
  C   C531      1.0  0.50760  0.15623  0.79218  1.0000
  C   C532      1.0  0.53020  0.12066  0.86578  1.0000
  H   H533      1.0  0.55149  0.15138  0.83500  1.0000
  H   H534      1.0  0.56084  0.04836  0.94644  1.0000
  N   N44       1.0  0.54461  0.13560  0.88329  1.0000
  H   H535      1.0  0.56976  0.15900  0.86998  1.0000
  H   H536      1.0  0.61840  0.17697  0.51120  1.0000
  H   H537      1.0  0.53852  0.01596  0.78633  1.0000
  C   C533      1.0  0.52500  0.10304  0.92014  1.0000
  S   S183      1.0  0.51218  0.00095  0.57190  1.0000
  H   H538      1.0  0.72244  0.21257  0.51613  1.0000
  H   H539      1.0  0.56046  0.14661  0.93290  1.0000
  C   C534      1.0  0.54938  0.13461  0.91881  1.0000
  C   C535      1.0  0.57926  0.21302  0.54959  1.0000
  H   H540      1.0  0.71544  0.17423  0.98500  1.0000
  S   S184      1.0  0.64896  0.12893  0.50372  1.0000
  N   N45       1.0  0.60235  0.12316  0.51527  1.0000
  C   C536      1.0  0.53333  0.01052  0.66086  1.0000
  H   H541      1.0  0.59975  0.10373  0.98313  1.0000
  H   H542      1.0  0.58622  0.00734  0.79562  1.0000
  Fe  Fe92      1.0  0.54288  0.00671  0.93437  1.0000
  H   H543      1.0  0.67522  0.11783  0.95616  1.0000
  C   C537      1.0  0.50328  0.22709  0.98675  1.0000
  C   C538      1.0  0.58741  0.00660  0.73691  1.0000
  H   H544      1.0  0.51800  0.00302  0.66412  1.0000
  C   C539      1.0  0.70686  0.15992  0.99236  1.0000
  H   H545      1.0  0.53810  0.00041  0.64934  1.0000
  H   H546      1.0  0.57122  0.07821  0.49610  1.0000
  Fe  Fe93      1.0  0.96558  0.41329  0.46518  1.0000
  S   S185      1.0  0.96661  0.42738  0.41270  1.0000
  H   H547      1.0  0.90229  0.31249  0.02785  1.0000
  S   S186      1.0  0.71488  0.49826  0.99612  1.0000
  C   C540      1.0  0.78325  0.34390  0.05886  1.0000
  H   H548      1.0  0.66278  0.44812  0.05826  1.0000
  Fe  Fe94      1.0  0.98468  0.44712  0.07285  1.0000
  S   S187      1.0  0.49972  0.37237  0.47075  1.0000
  Fe  Fe95      1.0  0.97119  0.40552  0.06182  1.0000
  C   C541      1.0  0.58641  0.38010  0.02884  1.0000
  S   S188      1.0  0.96889  0.42319  0.10855  1.0000
  H   H549      1.0  0.50642  0.45364  0.46394  1.0000
  S   S189      1.0  0.53016  0.31669  0.42064  1.0000
  C   C542      1.0  0.55338  0.31996  0.18728  1.0000
  S   S190      1.0  0.52566  0.35537  0.40939  1.0000
  C   C543      1.0  0.76188  0.49386  0.03102  1.0000
  Fe  Fe96      1.0  0.54375  0.34644  0.44347  1.0000
  S   S191      1.0  0.57518  0.36361  0.44809  1.0000
  H   H550      1.0  0.50436  0.28254  0.25627  1.0000
  S   S192      1.0  0.84870  0.47688  0.43534  1.0000
  Fe  Fe97      1.0  0.80720  0.48748  0.46479  1.0000
  S   S193      1.0  0.80307  0.45897  0.44405  1.0000
  C   C544      1.0  0.99392  0.46103  0.23242  1.0000
  H   H551      1.0  0.72809  0.26311  0.46774  1.0000
  C   C545      1.0  0.50990  0.28577  0.22934  1.0000
  Fe  Fe98      1.0  0.82375  0.47451  0.40153  1.0000
  S   S194      1.0  0.81958  0.46295  0.34263  1.0000
  H   H552      1.0  0.89537  0.38861  0.43910  1.0000
  H   H553      1.0  0.62468  0.46592  0.48102  1.0000
  H   H554      1.0  0.61281  0.39128  0.46527  1.0000
  Fe  Fe99      1.0  0.53253  0.34707  0.04366  1.0000
  Fe  Fe100     1.0  0.99743  0.42681  0.12743  1.0000
  Fe  Fe101     1.0  0.51240  0.30549  0.06445  1.0000
  C   C546      1.0  0.96618  0.47692  0.48766  1.0000
  S   S195      1.0  0.51578  0.35582  0.08128  1.0000
  S   S196      1.0  0.53869  0.33037  0.08573  1.0000
  Fe  Fe102     1.0  0.82852  0.48829  0.13096  1.0000
  S   S197      1.0  0.51282  0.27672  0.06717  1.0000
  Fe  Fe103     1.0  0.82908  0.45739  0.08116  1.0000
  S   S198      1.0  0.82419  0.47002  0.03105  1.0000
  C   C547      1.0  0.75898  0.44781  0.39212  1.0000
  Fe  Fe104     1.0  0.80267  0.47513  0.06205  1.0000
  H   H555      1.0  0.87813  0.47723  0.02250  1.0000
  S   S199      1.0  0.85192  0.48438  0.10457  1.0000
  S   S200      1.0  0.80608  0.46021  0.11115  1.0000
  C   C548      1.0  0.87225  0.39241  0.45985  1.0000
  C   C549      1.0  0.89352  0.34859  0.05559  1.0000
  Fe  Fe105     1.0  0.84587  0.49734  0.05569  1.0000
  Fe  Fe106     1.0  0.82854  0.46412  0.47947  1.0000
  C   C550      1.0  0.98134  0.40692  0.22596  1.0000
  H   H556      1.0  0.81338  0.42967  0.01315  1.0000
  C   C551      1.0  0.78127  0.47448  0.36185  1.0000
  H   H557      1.0  0.67375  0.42395  0.04647  1.0000
  C   C552      1.0  0.88207  0.35139  0.43868  1.0000
  C   C553      1.0  0.76135  0.24998  0.00237  1.0000
  C   C554      1.0  0.58461  0.38107  0.48327  1.0000
  C   C555      1.0  0.61258  0.40826  0.00862  1.0000
  C   C556      1.0  0.92350  0.37170  0.03529  1.0000
  H   H558      1.0  0.49920  0.38324  0.39520  1.0000
  H   H559      1.0  0.78237  0.30662  0.04741  1.0000
  C   C557      1.0  0.98935  0.47634  0.00018  1.0000
  C   C558      1.0  0.82815  0.41651  0.04109  1.0000
  C   C559      1.0  0.74094  0.46391  0.00305  1.0000
  C   C560      1.0  0.82130  0.47359  0.30004  1.0000
  H   H560      1.0  0.73634  0.49465  0.09581  1.0000
  C   C561      1.0  0.82145  0.47078  0.23347  1.0000
  C   C562      1.0  0.81897  0.46274  0.26783  1.0000
  H   H561      1.0  0.82001  0.46232  0.20904  1.0000
  H   H562      1.0  0.81557  0.44806  0.26945  1.0000
  H   H563      1.0  0.75432  0.48645  0.41651  1.0000
  H   H564      1.0  0.59629  0.49914  0.02574  1.0000
  C   C563      1.0  0.88129  0.38162  0.44886  1.0000
  H   H565      1.0  0.77603  0.25466  0.99761  1.0000
  C   C564      1.0  0.60391  0.39276  0.48558  1.0000
  C   C565      1.0  0.89438  0.36372  0.99929  1.0000
  C   C566      1.0  0.70238  0.44215  0.06357  1.0000
  H   H566      1.0  0.84699  0.39171  0.48139  1.0000
  C   C567      1.0  0.81741  0.41838  0.01228  1.0000
  H   H567      1.0  0.55685  0.33104  0.20908  1.0000
  H   H568      1.0  0.84834  0.33875  0.46638  1.0000
  S   S201      1.0  0.50768  0.32180  0.01946  1.0000
  C   C568      1.0  0.67739  0.45143  0.06327  1.0000
  H   H569      1.0  0.74108  0.44385  0.45625  1.0000
  C   C569      1.0  0.99180  0.45527  0.33320  1.0000
  H   H570      1.0  0.72416  0.43968  0.41917  1.0000
  C   C570      1.0  0.90717  0.48897  0.00865  1.0000
  H   H571      1.0  0.80809  0.41954  0.46936  1.0000
  S   S202      1.0  0.97625  0.47055  0.06934  1.0000
  H   H572      1.0  0.86268  0.47158  0.25496  1.0000
  C   C571      1.0  0.50001  0.37421  0.33970  1.0000
  H   H573      1.0  0.51127  0.38741  0.33260  1.0000
  C   C572      1.0  0.80448  0.39264  0.48777  1.0000
  H   H574      1.0  0.83163  0.35719  0.48503  1.0000
  Fe  Fe107     1.0  0.98263  0.41251  0.39051  1.0000
  C   C573      1.0  0.50325  0.25763  0.99898  1.0000
  N   N46       1.0  0.87273  0.36259  0.45139  1.0000
  C   C574      1.0  0.71475  0.46019  0.07649  1.0000
  S   S203      1.0  0.77357  0.46547  0.03356  1.0000
  H   H575      1.0  0.87762  0.34645  0.41001  1.0000
  S   S204      1.0  0.83533  0.43223  0.07941  1.0000
  C   C575      1.0  0.52776  0.30023  0.22510  1.0000
  H   H576      1.0  0.79091  0.34462  0.08406  1.0000
  H   H577      1.0  0.70743  0.43174  0.05832  1.0000
  N   N47       1.0  0.70861  0.47361  0.08182  1.0000
  C   C576      1.0  0.52470  0.33918  0.28899  1.0000
  C   C577      1.0  0.49903  0.27605  0.19860  1.0000
  C   C578      1.0  0.90968  0.46195  0.05124  1.0000
  H   H578      1.0  0.87862  0.33907  0.45579  1.0000
  C   C579      1.0  0.75799  0.47532  0.02186  1.0000
  H   H579      1.0  0.97245  0.44512  0.19178  1.0000
  N   N48       1.0  0.92391  0.48819  0.01308  1.0000
  C   C580      1.0  0.88413  0.35040  0.02431  1.0000
  S   S205      1.0  0.94804  0.37876  0.03522  1.0000
  C   C581      1.0  0.51421  0.46548  0.48257  1.0000
  C   C582      1.0  0.51667  0.38769  0.00327  1.0000
  H   H580      1.0  0.62206  0.44461  0.42895  1.0000
  S   S206      1.0  0.52602  0.34061  0.49204  1.0000
  H   H581      1.0  0.91085  0.45140  0.06774  1.0000
  H   H582      1.0  0.53590  0.30807  0.24907  1.0000
  C   C583      1.0  0.53155  0.34620  0.25489  1.0000
  S   S207      1.0  0.97195  0.39921  0.33380  1.0000
  N   N49       1.0  0.53456  0.30490  0.19117  1.0000
  Fe  Fe108     1.0  0.99445  0.44931  0.43280  1.0000
  H   H583      1.0  0.61543  0.38819  0.04327  1.0000
  S   S208      1.0  0.66090  0.47588  0.00777  1.0000
  H   H584      1.0  0.79388  0.37397  0.05736  1.0000
  C   C584      1.0  0.77580  0.35979  0.01083  1.0000
  C   C585      1.0  0.96358  0.43697  0.24612  1.0000
  C   C586      1.0  0.73325  0.25596  0.48625  1.0000
  H   H585      1.0  0.52862  0.48419  0.44030  1.0000
  H   H586      1.0  0.88582  0.33833  0.07507  1.0000
  H   H587      1.0  0.77926  0.44672  0.35526  1.0000
  C   C587      1.0  0.98271  0.48295  0.02935  1.0000
  H   H588      1.0  0.52322  0.27215  0.45770  1.0000
  C   C588      1.0  0.76348  0.32620  0.00878  1.0000
  C   C589      1.0  0.86657  0.48544  0.26691  1.0000
  H   H589      1.0  0.55429  0.32701  0.16122  1.0000
  H   H590      1.0  0.98995  0.46316  0.00136  1.0000
  H   H591      1.0  0.73294  0.46098  0.44677  1.0000
  H   H592      1.0  0.68538  0.48011  0.07924  1.0000
  S   S209      1.0  0.63701  0.42156  0.00530  1.0000
  C   C590      1.0  0.52073  0.33852  0.22257  1.0000
  C   C591      1.0  0.84563  0.36418  0.47506  1.0000
  H   H593      1.0  0.95942  0.43091  0.30264  1.0000
  H   H594      1.0  0.52029  0.41606  0.00955  1.0000
  H   H595      1.0  0.97333  0.40151  0.20065  1.0000
  H   H596      1.0  0.94996  0.42612  0.23718  1.0000
  H   H597      1.0  0.87917  0.40751  0.45839  1.0000
  H   H598      1.0  0.56382  0.31428  0.18813  1.0000
  C   C592      1.0  0.50912  0.25793  0.03523  1.0000
  H   H599      1.0  0.96109  0.47232  0.45986  1.0000
  Fe  Fe109     1.0  0.50685  0.34800  0.45715  1.0000
  C   C593      1.0  0.82724  0.38861  0.01001  1.0000
  H   H600      1.0  0.53327  0.34513  0.31354  1.0000
  S   S210      1.0  0.98553  0.42939  0.02531  1.0000
  H   H601      1.0  0.52971  0.29845  0.13410  1.0000
  S   S211      1.0  0.86030  0.33386  0.01619  1.0000
  H   H602      1.0  0.49799  0.27319  0.13995  1.0000
  C   C594      1.0  0.59401  0.42470  0.44039  1.0000
  C   C595      1.0  0.52420  0.29508  0.16098  1.0000
  C   C596      1.0  0.57382  0.38445  0.00876  1.0000
  C   C597      1.0  0.77420  0.48565  0.37917  1.0000
  H   H603      1.0  0.79410  0.38480  0.46661  1.0000
  Fe  Fe110     1.0  0.51972  0.33699  0.12185  1.0000
  H   H604      1.0  0.83099  0.37710  0.00940  1.0000
  H   H605      1.0  0.75744  0.29760  0.04903  1.0000
  H   H606      1.0  0.86261  0.47623  0.32170  1.0000
  C   C598      1.0  0.98332  0.40720  0.29255  1.0000
  H   H607      1.0  0.54543  0.35757  0.25350  1.0000
  C   C599      1.0  0.82561  0.49253  0.29744  1.0000
  S   S212      1.0  0.53071  0.34714  0.18035  1.0000
  H   H608      1.0  0.88025  0.45270  0.06003  1.0000
  Fe  Fe111     1.0  0.51035  0.32526  0.39058  1.0000
  Fe  Fe112     1.0  0.51103  0.31124  0.46730  1.0000
  C   C600      1.0  0.78501  0.36053  0.04395  1.0000
  C   C601      1.0  0.97619  0.44761  0.22066  1.0000
  N   N50       1.0  0.75208  0.45885  0.40891  1.0000
  S   S213      1.0  0.98012  0.39680  0.44207  1.0000
  N   N51       1.0  0.98648  0.45282  0.29433  1.0000
  C   C602      1.0  0.49849  0.48040  0.01953  1.0000
  C   C603      1.0  0.68357  0.43779  0.05687  1.0000
  C   C604      1.0  0.73679  0.45043  0.43390  1.0000
  C   C605      1.0  0.60574  0.39191  0.02852  1.0000
  C   C606      1.0  0.75939  0.47753  0.40249  1.0000
  C   C607      1.0  0.85510  0.35383  0.46417  1.0000
  C   C608      1.0  0.83309  0.40162  0.03977  1.0000
  C   C609      1.0  0.61189  0.45310  0.47641  1.0000
  C   C610      1.0  0.50691  0.32432  0.29114  1.0000
  H   H609      1.0  0.72940  0.46351  0.08114  1.0000
  C   C611      1.0  0.97324  0.40004  0.25931  1.0000
  H   H610      1.0  0.77185  0.31088  0.08747  1.0000
  H   H611      1.0  0.75335  0.43306  0.39754  1.0000
  C   C612      1.0  0.50624  0.28064  0.16418  1.0000
  C   C613      1.0  0.86659  0.48819  0.30462  1.0000
  C   C614      1.0  0.96900  0.43977  0.28308  1.0000
  C   C615      1.0  0.50278  0.32392  0.22479  1.0000
  H   H612      1.0  0.79285  0.48060  0.34393  1.0000
  S   S214      1.0  0.54978  0.36888  0.00378  1.0000
  C   C616      1.0  0.51841  0.26318  0.48050  1.0000
  C   C617      1.0  0.52665  0.48257  0.46930  1.0000
  C   C618      1.0  0.72160  0.49257  0.09493  1.0000
  C   C619      1.0  0.91298  0.35906  0.06097  1.0000
  H   H613      1.0  0.84140  0.40007  0.06193  1.0000
  C   C620      1.0  0.73154  0.48922  0.00386  1.0000
  C   C621      1.0  0.69020  0.46942  0.07543  1.0000
  C   C622      1.0  0.61044  0.44116  0.44670  1.0000
  C   C623      1.0  0.77093  0.30973  0.05730  1.0000
  H   H614      1.0  0.95896  0.38932  0.25941  1.0000
  C   C624      1.0  0.82623  0.48981  0.23088  1.0000
  S   S215      1.0  0.99267  0.43665  0.48704  1.0000
  H   H615      1.0  0.56418  0.32096  0.47084  1.0000
  C   C625      1.0  0.81239  0.41231  0.48926  1.0000
  C   C626      1.0  0.89129  0.47634  0.02564  1.0000
  H   H616      1.0  0.58130  0.36736  0.04363  1.0000
  C   C627      1.0  0.77359  0.45543  0.36820  1.0000
  H   H617      1.0  0.92004  0.35646  0.08406  1.0000
  C   C628      1.0  0.92536  0.47499  0.03424  1.0000
  C   C629      1.0  0.89255  0.46267  0.04691  1.0000
  H   H618      1.0  0.98759  0.44142  0.34522  1.0000
  N   N52       1.0  0.77227  0.32699  0.04163  1.0000
  H   H619      1.0  0.89754  0.35961  0.44056  1.0000
  C   C630      1.0  0.73380  0.25529  0.00147  1.0000
  H   H620      1.0  0.49967  0.46990  0.03604  1.0000
  H   H621      1.0  0.54295  0.30491  0.48984  1.0000
  H   H622      1.0  0.98489  0.46279  0.34764  1.0000
  H   H623      1.0  0.93870  0.47449  0.03806  1.0000
  H   H624      1.0  0.71803  0.49542  0.12264  1.0000
  C   C631      1.0  0.53620  0.49782  0.49362  1.0000
  C   C632      1.0  0.91401  0.37421  0.00465  1.0000
  C   C633      1.0  0.85427  0.38358  0.47293  1.0000
  C   C634      1.0  0.90362  0.31936  0.00232  1.0000
  S   S216      1.0  0.78386  0.49632  0.47678  1.0000
  H   H625      1.0  0.52838  0.38982  0.02159  1.0000
  H   H626      1.0  0.59280  0.41506  0.41794  1.0000
  H   H627      1.0  0.93324  0.33677  0.01044  1.0000
  C   C635      1.0  0.57924  0.42046  0.46357  1.0000
  H   H628      1.0  0.56651  0.40756  0.45917  1.0000
  C   C636      1.0  0.58128  0.43257  0.49335  1.0000
  H   H629      1.0  0.86952  0.49835  0.21516  1.0000
  H   H630      1.0  0.72706  0.26417  0.99579  1.0000
  H   H631      1.0  0.77746  0.37260  0.99840  1.0000
  C   C637      1.0  0.51219  0.40241  0.99634  1.0000
  N   N53       1.0  0.59748  0.44859  0.49951  1.0000
  Fe  Fe113     1.0  0.84008  0.33049  0.56155  1.0000
  S   S217      1.0  0.83441  0.35353  0.58566  1.0000
  H   H632      1.0  0.58826  0.34577  0.50919  1.0000
  Fe  Fe114     1.0  0.79857  0.30106  0.56481  1.0000
  S   S218      1.0  0.79036  0.32246  0.58899  1.0000
  S   S219      1.0  0.77794  0.26984  0.55851  1.0000
  Fe  Fe115     1.0  0.80894  0.34183  0.54818  1.0000
  H   H633      1.0  0.59685  0.45301  0.55644  1.0000
  Fe  Fe116     1.0  0.81650  0.33213  0.62491  1.0000
  S   S220      1.0  0.81591  0.34138  0.68411  1.0000
  C   C638      1.0  0.87242  0.35214  0.63788  1.0000
  S   S221      1.0  0.82390  0.30972  0.60338  1.0000
  Fe  Fe117     1.0  0.66361  0.48157  0.63020  1.0000
  H   H634      1.0  0.86289  0.32815  0.72981  1.0000
  Fe  Fe118     1.0  0.63792  0.44887  0.57938  1.0000
  S   S222      1.0  0.65421  0.46112  0.53020  1.0000
  S   S223      1.0  0.60971  0.42358  0.57905  1.0000
  Fe  Fe119     1.0  0.68019  0.46887  0.56609  1.0000
  S   S224      1.0  0.70466  0.46166  0.55370  1.0000
  S   S225      1.0  0.66347  0.45414  0.61427  1.0000
  S   S226      1.0  0.63680  0.47531  0.59892  1.0000
  Fe  Fe120     1.0  0.79464  0.30595  0.95996  1.0000
  S   S227      1.0  0.79453  0.32243  0.91098  1.0000
  H   H635      1.0  0.56313  0.48268  0.96198  1.0000
  Fe  Fe121     1.0  0.83731  0.33061  0.97421  1.0000
  S   S228      1.0  0.83998  0.34833  0.92619  1.0000
  C   C639      1.0  0.54860  0.32248  0.55302  1.0000
  Fe  Fe122     1.0  0.81323  0.34814  0.94494  1.0000
  S   S229      1.0  0.80747  0.37359  0.94496  1.0000
  Fe  Fe123     1.0  0.82114  0.32130  0.89569  1.0000
  S   S230      1.0  0.82725  0.31264  0.83939  1.0000
  H   H636      1.0  0.50156  0.45078  0.53048  1.0000
  S   S231      1.0  0.82033  0.30321  0.94280  1.0000
  H   H637      1.0  0.77660  0.31341  0.70232  1.0000
  Fe  Fe124     1.0  0.68500  0.48405  0.97048  1.0000
  S   S232      1.0  0.67316  0.45615  0.94053  1.0000
  N   N54       1.0  0.97127  0.49501  0.49942  1.0000
  S   S233      1.0  0.63320  0.45834  0.93547  1.0000
  Fe  Fe125     1.0  0.64834  0.44871  0.97539  1.0000
  C   C640      1.0  0.97504  0.47007  0.54650  1.0000
  Fe  Fe126     1.0  0.65902  0.46825  0.90247  1.0000
  S   S234      1.0  0.65466  0.45743  0.84275  1.0000
  C   C641      1.0  0.61181  0.40632  0.51422  1.0000
  H   H638      1.0  0.80099  0.44742  0.92894  1.0000
  H   H639      1.0  0.90432  0.34026  0.51630  1.0000
  C   C642      1.0  0.92022  0.38743  0.51101  1.0000
  H   H640      1.0  0.93177  0.36842  0.49677  1.0000
  H   H641      1.0  0.54115  0.33185  0.60294  1.0000
  H   H642      1.0  0.62671  0.41518  0.51599  1.0000
  C   C643      1.0  0.72779  0.47077  0.99417  1.0000
  C   C644      1.0  0.50215  0.25509  0.53654  1.0000
  H   H643      1.0  0.56998  0.42888  0.51199  1.0000
  C   C645      1.0  0.57803  0.34248  0.53010  1.0000
  C   C646      1.0  0.87126  0.32711  0.67480  1.0000
  H   H644      1.0  0.53930  0.49202  0.97737  1.0000
  C   C647      1.0  0.90618  0.33833  0.93911  1.0000
  C   C648      1.0  0.80224  0.48778  0.96461  1.0000
  H   H645      1.0  0.80315  0.40683  0.96049  1.0000
  H   H646      1.0  0.78590  0.28858  0.71879  1.0000
  Fe  Fe127     1.0  0.64697  0.48631  0.96618  1.0000
  C   C649      1.0  0.70277  0.47323  0.71173  1.0000
  H   H647      1.0  0.86705  0.33186  0.93682  1.0000
  C   C650      1.0  0.65904  0.46840  0.80005  1.0000
  S   S235      1.0  0.67026  0.49525  0.68769  1.0000
  H   H648      1.0  0.88739  0.36529  0.97501  1.0000
  C   C651      1.0  0.58066  0.40095  0.98938  1.0000
  H   H649      1.0  0.69773  0.46902  0.73871  1.0000
  C   C652      1.0  0.77719  0.28678  0.69450  1.0000
  C   C653      1.0  0.58118  0.39628  0.53871  1.0000
  C   C654      1.0  0.72686  0.47193  0.53294  1.0000
  H   H650      1.0  0.86979  0.38340  0.63654  1.0000
  C   C655      1.0  0.65707  0.46499  0.73329  1.0000
  C   C656      1.0  0.81816  0.33240  0.72679  1.0000
  C   C657      1.0  0.81616  0.34127  0.75882  1.0000
  C   C658      1.0  0.81849  0.33517  0.79340  1.0000
  C   C659      1.0  0.82305  0.32019  0.79643  1.0000
  C   C660      1.0  0.82492  0.31121  0.76434  1.0000
  C   C661      1.0  0.82237  0.31719  0.72971  1.0000
  H   H651      1.0  0.81289  0.35304  0.75698  1.0000
  H   H652      1.0  0.81702  0.34224  0.81775  1.0000
  H   H653      1.0  0.82839  0.29958  0.76636  1.0000
  H   H654      1.0  0.82389  0.31016  0.70536  1.0000
  H   H655      1.0  0.87871  0.32978  0.61855  1.0000
  C   C662      1.0  0.82324  0.39330  0.54089  1.0000
  H   H656      1.0  0.75767  0.28129  0.50397  1.0000
  H   H657      1.0  0.82736  0.38609  0.56107  1.0000
  N   N55       1.0  0.88922  0.32491  0.94881  1.0000
  H   H658      1.0  0.51859  0.47825  0.57220  1.0000
  C   C663      1.0  0.73340  0.48892  0.51548  1.0000
  C   C664      1.0  0.75007  0.26636  0.50684  1.0000
  C   C665      1.0  0.60046  0.40791  0.54113  1.0000
  C   C666      1.0  0.92232  0.34249  0.96072  1.0000
  C   C667      1.0  0.76057  0.29813  0.65405  1.0000
  C   C668      1.0  0.57325  0.38311  0.50965  1.0000
  C   C669      1.0  0.56835  0.35136  0.58603  1.0000
  H   H659      1.0  0.90721  0.34637  0.91526  1.0000
  H   H660      1.0  0.97678  0.46038  0.56461  1.0000
  H   H661      1.0  0.60500  0.42544  0.97423  1.0000
  C   C670      1.0  0.88868  0.35524  0.53282  1.0000
  C   C671      1.0  0.55169  0.33492  0.58277  1.0000
  H   H662      1.0  0.87417  0.30574  0.98895  1.0000
  H   H663      1.0  0.69798  0.44560  0.69277  1.0000
  H   H664      1.0  0.65303  0.45606  0.70884  1.0000
  H   H665      1.0  0.76432  0.46236  0.51853  1.0000
  C   C672      1.0  0.86436  0.37659  0.66247  1.0000
  C   C673      1.0  0.80980  0.38307  0.51366  1.0000
  C   C674      1.0  0.86354  0.35115  0.69918  1.0000
  S   S236      1.0  0.93916  0.40803  0.49636  1.0000
  S   S237      1.0  0.79949  0.35839  0.51082  1.0000
  C   C675      1.0  0.77156  0.27076  0.67186  1.0000
  C   C676      1.0  0.80651  0.46208  0.93750  1.0000
  H   H666      1.0  0.75678  0.30916  0.64680  1.0000
  N   N56       1.0  0.75480  0.28220  0.63237  1.0000
  C   C677      1.0  0.74350  0.28016  0.59902  1.0000
  H   H667      1.0  0.70841  0.45551  0.63041  1.0000
  C   C678      1.0  0.70278  0.46010  0.68592  1.0000
  S   S238      1.0  0.86889  0.33446  0.54397  1.0000
  H   H668      1.0  0.57102  0.40440  0.97374  1.0000
  C   C679      1.0  0.99578  0.48710  0.96954  1.0000
  S   S239      1.0  0.68161  0.49680  0.58381  1.0000
  C   C680      1.0  0.75582  0.46984  0.51749  1.0000
  C   C681      1.0  0.90477  0.38890  0.52586  1.0000
  H   H669      1.0  0.64752  0.44202  0.76952  1.0000
  C   C682      1.0  0.76228  0.48675  0.49978  1.0000
  H   H670      1.0  0.73585  0.26527  0.58934  1.0000
  S   S240      1.0  0.50365  0.28715  0.50641  1.0000
  C   C683      1.0  0.83242  0.49270  0.94671  1.0000
  H   H671      1.0  0.87495  0.35865  0.61179  1.0000
  C   C684      1.0  0.76034  0.26871  0.64066  1.0000
  C   C685      1.0  0.50844  0.26719  0.50741  1.0000
  C   C686      1.0  0.81162  0.40542  0.98249  1.0000
  H   H672      1.0  0.75273  0.28798  0.57708  1.0000
  C   C687      1.0  0.86578  0.33487  0.70390  1.0000
  C   C688      1.0  0.76517  0.34257  0.99283  1.0000
  C   C689      1.0  0.73825  0.46249  0.53379  1.0000
  H   H673      1.0  0.53563  0.30969  0.55075  1.0000
  S   S241      1.0  0.81157  0.33208  0.99480  1.0000
  C   C690      1.0  0.66535  0.48443  0.73050  1.0000
  H   H674      1.0  0.96373  0.44981  0.50164  1.0000
  H   H675      1.0  0.86105  0.30739  0.93025  1.0000
  C   C691      1.0  0.81640  0.39043  0.98133  1.0000
  N   N57       1.0  0.61104  0.41037  0.87965  1.0000
  C   C692      1.0  0.62832  0.41327  0.89289  1.0000
  C   C693      1.0  0.59524  0.39650  0.89279  1.0000
  C   C694      1.0  0.63013  0.40193  0.91952  1.0000
  C   C695      1.0  0.59656  0.38480  0.91925  1.0000
  C   C696      1.0  0.61414  0.38756  0.93262  1.0000
  C   C697      1.0  0.60962  0.42270  0.85211  1.0000
  H   H676      1.0  0.64083  0.42458  0.88322  1.0000
  H   H677      1.0  0.58150  0.39452  0.88324  1.0000
  H   H678      1.0  0.98601  0.49344  0.58561  1.0000
  C   C698      1.0  0.96784  0.46415  0.51108  1.0000
  C   C699      1.0  0.65397  0.45707  0.76781  1.0000
  H   H679      1.0  0.61402  0.43699  0.86434  1.0000
  H   H680      1.0  0.61902  0.42379  0.82950  1.0000
  H   H681      1.0  0.59522  0.41756  0.84019  1.0000
  H   H682      1.0  0.84134  0.42078  0.56383  1.0000
  H   H683      1.0  0.87174  0.38691  0.68516  1.0000
  C   C700      1.0  0.88669  0.49794  0.58241  1.0000
  H   H684      1.0  0.73298  0.28554  0.60347  1.0000
  S   S242      1.0  0.76556  0.28475  0.97803  1.0000
  C   C701      1.0  0.88777  0.31556  0.98010  1.0000
  C   C702      1.0  0.83112  0.41295  0.54242  1.0000
  C   C703      1.0  0.98008  0.48851  0.55834  1.0000
  S   S243      1.0  0.83567  0.44719  0.52024  1.0000
  N   N58       1.0  0.71402  0.49703  0.66762  1.0000
  H   H685      1.0  0.75637  0.25640  0.62275  1.0000
  C   C704      1.0  0.90435  0.35384  0.51901  1.0000
  H   H686      1.0  0.61534  0.37910  0.95424  1.0000
  C   C705      1.0  0.82545  0.47398  0.93446  1.0000
  H   H687      1.0  0.87504  0.32354  0.89787  1.0000
  H   H688      1.0  0.87710  0.37427  0.54685  1.0000
  C   C706      1.0  0.88902  0.37291  0.53641  1.0000
  H   H689      1.0  0.67142  0.49678  0.82169  1.0000
  H   H690      1.0  0.57231  0.39746  0.55944  1.0000
  H   H691      1.0  0.58403  0.37412  0.93040  1.0000
  C   C707      1.0  0.70857  0.49176  0.70210  1.0000
  C   C708      1.0  0.92098  0.33295  0.99253  1.0000
  N   N59       1.0  0.56154  0.32655  0.52681  1.0000
  H   H692      1.0  0.59464  0.36794  0.56182  1.0000
  H   H693      1.0  0.78014  0.45980  0.95603  1.0000
  H   H694      1.0  0.84921  0.37300  0.66285  1.0000
  H   H695      1.0  0.94805  0.49486  0.98203  1.0000
  H   H696      1.0  0.77604  0.26009  0.67813  1.0000
  C   C709      1.0  0.58173  0.35507  0.55981  1.0000
  H   H697      1.0  0.93565  0.35371  0.95399  1.0000
  H   H698      1.0  0.55838  0.37436  0.50809  1.0000
  H   H699      1.0  0.64382  0.40468  0.93089  1.0000
  H   H700      1.0  0.85868  0.35677  0.72159  1.0000
  C   C710      1.0  0.87461  0.33577  0.64155  1.0000
  C   C711      1.0  0.70862  0.46564  0.65096  1.0000
  Fe  Fe128     1.0  0.65429  0.48804  0.55135  1.0000
  C   C712      1.0  0.75704  0.25740  0.53088  1.0000
  H   H701      1.0  0.79313  0.49287  0.97738  1.0000
  H   H702      1.0  0.59256  0.48938  0.93129  1.0000
  H   H703      1.0  0.58893  0.46678  0.52828  1.0000
  C   C713      1.0  0.79480  0.46901  0.95253  1.0000
  H   H704      1.0  0.83477  0.46866  0.92353  1.0000
  H   H705      1.0  0.87274  0.31432  0.67787  1.0000
  S   S244      1.0  0.83131  0.49163  0.50307  1.0000
  C   C714      1.0  0.77180  0.30063  0.68545  1.0000
  C   C715      1.0  0.87230  0.32176  0.92730  1.0000
  C   C716      1.0  0.71409  0.48424  0.64213  1.0000
  H   H706      1.0  0.90485  0.40248  0.52861  1.0000
  H   H707      1.0  0.57087  0.36131  0.60865  1.0000
  N   N60       1.0  0.86700  0.35964  0.66657  1.0000
  C   C717      1.0  0.59918  0.46089  0.53108  1.0000
  C   C718      1.0  0.52120  0.47947  0.54337  1.0000
  H   H708      1.0  0.75870  0.34196  0.96626  1.0000
  C   C719      1.0  0.51151  0.46386  0.51987  1.0000
  C   C720      1.0  0.59993  0.41291  0.98960  1.0000
  C   C721      1.0  0.66740  0.48784  0.79726  1.0000
  S   S245      1.0  0.81551  0.31979  0.52144  1.0000
  H   H709      1.0  0.92198  0.38350  0.98399  1.0000
  C   C722      1.0  0.82565  0.42252  0.51677  1.0000
  C   C723      1.0  0.57166  0.49673  0.95343  1.0000
  H   H710      1.0  0.71807  0.48827  0.61455  1.0000
  C   C724      1.0  0.67056  0.49577  0.76271  1.0000
  H   H711      1.0  0.71466  0.46171  0.98023  1.0000
  H   H712      1.0  0.75529  0.31289  0.99441  1.0000
  N   N61       1.0  0.53317  0.49623  0.53004  1.0000
  H   H713      1.0  0.61331  0.47283  0.53395  1.0000
  C   C725      1.0  0.91995  0.36978  0.50783  1.0000
  H   H714      1.0  0.50902  0.35848  0.99265  1.0000
  H   H715      1.0  0.85893  0.48808  0.55780  1.0000
  H   H716      1.0  0.73344  0.44936  0.54722  1.0000
  H   H717      1.0  0.88510  0.48388  0.58634  1.0000
  C   C726      1.0  0.50582  0.37007  0.98695  1.0000
  S   S246      1.0  0.67217  0.49700  0.93053  1.0000
  H   H718      1.0  0.56440  0.30371  0.50189  1.0000
  H   H719      1.0  0.72491  0.49641  0.51446  1.0000
  S   S247      1.0  0.62490  0.49545  0.98585  1.0000
  H   H720      1.0  0.50094  0.26918  0.98935  1.0000
  C   C727      1.0  0.75297  0.26178  0.99495  1.0000
  H   H721      1.0  0.73776  0.44957  0.99563  1.0000
  C   C728      1.0  0.75093  0.49622  0.49903  1.0000
  C   C729      1.0  0.55816  0.31338  0.49584  1.0000
  S   S248      1.0  0.87878  0.52979  0.46464  1.0000
  H   H722      1.0  0.53936  0.64617  0.04236  1.0000
  N   N62       1.0  0.58253  0.61896  0.37643  1.0000
  C   C730      1.0  0.56684  0.62361  0.38131  1.0000
  S   S249      1.0  0.53471  0.58479  0.99888  1.0000
  H   H723      1.0  0.92995  0.53506  0.07032  1.0000
  H   H724      1.0  0.87641  0.52257  0.36890  1.0000
  Fe  Fe129     1.0  0.53336  0.53544  0.42555  1.0000
  C   C731      1.0  0.90216  0.52597  0.04636  1.0000
  Fe  Fe130     1.0  0.56754  0.55625  0.38162  1.0000
  S   S250      1.0  0.58441  0.57308  0.43130  1.0000
  S   S251      1.0  0.58061  0.55718  0.32680  1.0000
  Fe  Fe131     1.0  0.57218  0.54589  0.46020  1.0000
  H   H725      1.0  0.55392  0.61061  0.38564  1.0000
  Fe  Fe132     1.0  0.55830  0.57621  0.44483  1.0000
  S   S252      1.0  0.54763  0.55064  0.47784  1.0000
  S   S253      1.0  0.55695  0.52896  0.40998  1.0000
  S   S254      1.0  0.54253  0.56128  0.39304  1.0000
  Fe  Fe133     1.0  0.55006  0.57470  0.04000  1.0000
  S   S255      1.0  0.53518  0.55839  0.08777  1.0000
  H   H726      1.0  0.49891  0.60014  0.05254  1.0000
  Fe  Fe134     1.0  0.58316  0.56429  0.05237  1.0000
  S   S256      1.0  0.57089  0.54808  0.10184  1.0000
  H   H727      1.0  0.56459  0.63056  0.35718  1.0000
  Fe  Fe135     1.0  0.54403  0.53678  0.06839  1.0000
  S   S257      1.0  0.50414  0.51193  0.42219  1.0000
  Fe  Fe136     1.0  0.56330  0.57128  0.11746  1.0000
  S   S258      1.0  0.56442  0.58372  0.17449  1.0000
  H   H728      1.0  0.77490  0.50286  0.04538  1.0000
  S   S259      1.0  0.57799  0.58903  0.07045  1.0000
  H   H729      1.0  0.54627  0.61867  0.04652  1.0000
  C   C732      1.0  0.57277  0.56160  0.28418  1.0000
  C   C733      1.0  0.57871  0.55629  0.25209  1.0000
  C   C734      1.0  0.57480  0.56161  0.21790  1.0000
  C   C735      1.0  0.56577  0.57316  0.21565  1.0000
  C   C736      1.0  0.55942  0.57810  0.24766  1.0000
  C   C737      1.0  0.56244  0.57190  0.28164  1.0000
  H   H730      1.0  0.58653  0.54814  0.25376  1.0000
  H   H731      1.0  0.57941  0.55738  0.19346  1.0000
  H   H732      1.0  0.55223  0.58685  0.24614  1.0000
  H   H733      1.0  0.55733  0.57561  0.30601  1.0000
  S   S260      1.0  0.86662  0.51518  0.01413  1.0000
  S   S261      1.0  0.83167  0.50120  0.18879  1.0000
  C   C738      1.0  0.74879  0.50075  0.02190  1.0000
  S   S262      1.0  0.82675  0.50273  0.42030  1.0000
  S   S263      1.0  0.95617  0.55189  0.01474  1.0000
  H   H734      1.0  0.58969  0.52607  0.04181  1.0000
  H   H735      1.0  0.55679  0.63821  0.48441  1.0000
  H   H736      1.0  0.82741  0.50109  0.32185  1.0000
  C   C739      1.0  0.59814  0.60542  0.33920  1.0000
  C   C740      1.0  0.58397  0.61104  0.34396  1.0000
  C   C741      1.0  0.50850  0.51289  0.00591  1.0000
  S   S264      1.0  0.55961  0.60443  0.46371  1.0000
  H   H737      1.0  0.62137  0.60284  0.36496  1.0000
  C   C742      1.0  0.53784  0.61954  0.02385  1.0000
  H   H738      1.0  0.72078  0.50297  0.07624  1.0000
  H   H739      1.0  0.60922  0.61999  0.15190  1.0000
  H   H740      1.0  0.83051  0.51894  0.00610  1.0000
  C   C743      1.0  0.61133  0.52578  0.47409  1.0000
  H   H741      1.0  0.52158  0.57911  0.48378  1.0000
  H   H742      1.0  0.87660  0.52956  0.24271  1.0000
  C   C744      1.0  0.54098  0.60818  0.48214  1.0000
  H   H743      1.0  0.62412  0.62082  0.09283  1.0000
  H   H744      1.0  0.56924  0.63315  0.40553  1.0000
  H   H745      1.0  0.89524  0.52053  0.07129  1.0000
  C   C745      1.0  0.62508  0.51911  0.47562  1.0000
  H   H746      1.0  0.96992  0.50434  0.44605  1.0000
  H   H747      1.0  0.97658  0.50517  0.04955  1.0000
  C   C746      1.0  0.62207  0.60982  0.11147  1.0000
  H   H748      1.0  0.63314  0.59581  0.07578  1.0000
  S   S265      1.0  0.52557  0.50597  0.06523  1.0000
  C   C747      1.0  0.93124  0.54151  0.01366  1.0000
  C   C748      1.0  0.92188  0.53422  0.04571  1.0000
  S   S266      1.0  0.55666  0.55162  0.01821  1.0000
  H   H749      1.0  0.91452  0.56029  0.48530  1.0000
  H   H750      1.0  0.59892  0.59864  0.31377  1.0000
  C   C749      1.0  0.53384  0.63510  0.02146  1.0000
  C   C750      1.0  0.87432  0.52029  0.29793  1.0000
  C   C751      1.0  0.59500  0.62153  0.40473  1.0000
  C   C752      1.0  0.87043  0.50047  0.24456  1.0000
  C   C753      1.0  0.61484  0.54647  0.01940  1.0000
  N   N63       1.0  0.62379  0.58120  0.12467  1.0000
  C   C754      1.0  0.61573  0.58074  0.15724  1.0000
  C   C755      1.0  0.62704  0.59554  0.10191  1.0000
  C   C756      1.0  0.61084  0.59494  0.16785  1.0000
  H   H751      1.0  0.57393  0.60872  0.32172  1.0000
  H   H752      1.0  0.59361  0.62735  0.43083  1.0000
  C   C757      1.0  0.62791  0.56565  0.11347  1.0000
  H   H753      1.0  0.61277  0.56920  0.17499  1.0000
  S   S267      1.0  0.61004  0.56599  0.02822  1.0000
  H   H754      1.0  0.60423  0.59445  0.19347  1.0000
  Fe  Fe137     1.0  0.85047  0.50406  0.45726  1.0000
  C   C758      1.0  0.60938  0.61613  0.40085  1.0000
  H   H755      1.0  0.61476  0.55343  0.10393  1.0000
  H   H756      1.0  0.63763  0.56937  0.09065  1.0000
  H   H757      1.0  0.63445  0.56155  0.13638  1.0000
  H   H758      1.0  0.83168  0.51528  0.26136  1.0000
  C   C759      1.0  0.61377  0.60939  0.14457  1.0000
  C   C760      1.0  0.89152  0.52514  0.01497  1.0000
  C   C761      1.0  0.96890  0.50808  0.47493  1.0000
  C   C762      1.0  0.61080  0.60784  0.36794  1.0000
  H   H759      1.0  0.54582  0.51103  0.48311  1.0000
  H   H760      1.0  0.60869  0.53132  0.44924  1.0000
  C   C763      1.0  0.60241  0.52838  0.02841  1.0000
  C   C764      1.0  0.53099  0.60522  0.99678  1.0000
  H   H761      1.0  0.50102  0.63083  0.06479  1.0000
  H   H762      1.0  0.87681  0.53385  0.30968  1.0000
  H   H763      1.0  0.75193  0.51508  0.02936  1.0000
  H   H764      1.0  0.61888  0.61769  0.42369  1.0000
  H   H765      1.0  0.63291  0.51960  0.45175  1.0000
  S   S268      1.0  0.82398  0.50356  0.08319  1.0000
  C   C765      1.0  0.52381  0.59335  0.48948  1.0000
  C   C766      1.0  0.87434  0.51802  0.26009  1.0000
  H   H766      1.0  0.51128  0.53008  0.49334  1.0000
  C   C767      1.0  0.60622  0.51312  0.01933  1.0000
  H   H767      1.0  0.51713  0.52758  0.01219  1.0000
  C   C768      1.0  0.89970  0.53019  0.48402  1.0000
  H   H768      1.0  0.75572  0.50934  0.48555  1.0000
  C   C769      1.0  0.62249  0.51566  0.00122  1.0000
  H   H769      1.0  0.95516  0.50815  0.47898  1.0000
  C   C770      1.0  0.54357  0.62661  0.48986  1.0000
  H   H770      1.0  0.98004  0.52252  0.48048  1.0000
  C   C771      1.0  0.63138  0.54914  0.00227  1.0000
  C   C772      1.0  0.82802  0.50055  0.26306  1.0000
  N   N64       1.0  0.87059  0.50548  0.31967  1.0000
  H   H771      1.0  0.85452  0.50170  0.36624  1.0000
  H   H772      1.0  0.55337  0.51034  0.01015  1.0000
  C   C773      1.0  0.98177  0.50001  0.02711  1.0000
  H   H773      1.0  0.95017  0.51207  0.01733  1.0000
  C   C774      1.0  0.91529  0.54749  0.49197  1.0000
  H   H774      1.0  0.88915  0.50036  0.48672  1.0000
  C   C775      1.0  0.90097  0.51378  0.49267  1.0000
  C   C776      1.0  0.86942  0.50767  0.35907  1.0000
  H   H775      1.0  0.87627  0.50025  0.37399  1.0000
  C   C777      1.0  0.94060  0.50192  0.99621  1.0000
  C   C778      1.0  0.51002  0.49936  0.02740  1.0000
  H   H776      1.0  0.78040  0.50059  0.37527  1.0000
  C   C779      1.0  0.98809  0.51072  0.99637  1.0000
  H   H777      1.0  0.62159  0.50637  0.56349  1.0000
  H   H778      1.0  0.53520  0.51184  0.57941  1.0000
  H   H779      1.0  0.96422  0.57395  0.76085  1.0000
  N   N65       1.0  0.56664  0.51079  0.96076  1.0000
  C   C780      1.0  0.58821  0.50038  0.93585  1.0000
  H   H780      1.0  0.64773  0.53606  0.97915  1.0000
  Fe  Fe138     1.0  0.98200  0.55392  0.56205  1.0000
  S   S269      1.0  0.95243  0.53212  0.54319  1.0000
  C   C781      1.0  0.51579  0.62205  0.96544  1.0000
  Fe  Fe139     1.0  0.97711  0.56036  0.96901  1.0000
  S   S270      1.0  0.97245  0.54112  0.92031  1.0000
  H   H781      1.0  0.54267  0.51537  0.97069  1.0000
  H   H782      1.0  0.99011  0.60907  0.86954  1.0000
  C   C782      1.0  0.91745  0.51471  0.50961  1.0000
  S   S271      1.0  0.98987  0.58646  0.93649  1.0000
  C   C783      1.0  0.93175  0.54843  0.50919  1.0000
  H   H783      1.0  0.61302  0.52171  0.91411  1.0000
  H   H784      1.0  0.59747  0.51816  0.56102  1.0000
  S   S272      1.0  0.58412  0.53427  0.50515  1.0000
  C   C784      1.0  0.97780  0.50077  0.53444  1.0000
  C   C785      1.0  0.51210  0.61531  0.51236  1.0000
  H   H785      1.0  0.51999  0.64504  0.59178  1.0000
  H   H786      1.0  0.53147  0.64441  0.51053  1.0000
  S   S273      1.0  0.51750  0.65597  0.99150  1.0000
  H   H787      1.0  0.52063  0.65885  0.68876  1.0000
  H   H788      1.0  0.55706  0.51292  0.56349  1.0000
  H   H789      1.0  0.57443  0.54004  0.95890  1.0000
  H   H790      1.0  0.98530  0.61037  0.82268  1.0000
  C   C786      1.0  0.90520  0.53086  0.58651  1.0000
  H   H791      1.0  0.60389  0.54723  0.92836  1.0000
  H   H792      1.0  0.86265  0.52031  0.54687  1.0000
  H   H793      1.0  0.70778  0.50172  0.72186  1.0000
  N   N66       1.0  0.51118  0.63779  0.64598  1.0000
  C   C787      1.0  0.82841  0.51870  0.97611  1.0000
  C   C788      1.0  0.59976  0.51859  0.92630  1.0000
  S   S274      1.0  0.64668  0.50405  0.50817  1.0000
  S   S275      1.0  0.50090  0.68002  0.66685  1.0000
  H   H794      1.0  0.89247  0.54765  0.56476  1.0000
  C   C789      1.0  0.89058  0.53366  0.57056  1.0000
  C   C790      1.0  0.60501  0.51830  0.53693  1.0000
  C   C791      1.0  0.54971  0.50693  0.98067  1.0000
  S   S276      1.0  0.99747  0.58451  0.58116  1.0000
  C   C792      1.0  0.99620  0.61691  0.84486  1.0000
  H   H795      1.0  0.70571  0.51805  0.65469  1.0000
  H   H796      1.0  0.51792  0.69068  0.73879  1.0000
  C   C793      1.0  0.49922  0.61972  0.63567  1.0000
  C   C794      1.0  0.87382  0.51825  0.56036  1.0000
  C   C795      1.0  0.71873  0.51624  0.65764  1.0000
  H   H797      1.0  0.94345  0.56186  0.51571  1.0000
  C   C796      1.0  0.99560  0.50452  0.96800  1.0000
  C   C797      1.0  0.52472  0.64981  0.62052  1.0000
  C   C798      1.0  0.57798  0.52873  0.95178  1.0000
  C   C799      1.0  0.50343  0.68097  0.74179  1.0000
  C   C800      1.0  0.97749  0.57337  0.75948  1.0000
  H   H798      1.0  0.98163  0.51504  0.54388  1.0000
  C   C801      1.0  0.52015  0.60672  0.96739  1.0000
  S   S277      1.0  0.97536  0.57005  0.83351  1.0000
  H   H799      1.0  0.91811  0.50190  0.51647  1.0000
  S   S278      1.0  0.99329  0.54379  0.60927  1.0000
  H   H800      1.0  0.67700  0.51082  0.76096  1.0000
  H   H801      1.0  0.92753  0.54592  0.95725  1.0000
  C   C802      1.0  0.93286  0.53202  0.51845  1.0000
  C   C803      1.0  0.98642  0.57604  0.72608  1.0000
  H   H802      1.0  0.51485  0.59580  0.94618  1.0000
  H   H803      1.0  0.52779  0.74335  0.89232  1.0000
  C   C804      1.0  0.63522  0.53384  0.99322  1.0000
  H   H804      1.0  0.54610  0.52567  0.54169  1.0000
  N   N67       1.0  0.90312  0.51315  0.59225  1.0000
  H   H805      1.0  0.93716  0.51011  0.97581  1.0000
  C   C805      1.0  0.52264  0.63637  0.99247  1.0000
  H   H806      1.0  0.89286  0.53190  0.95843  1.0000
  H   H807      1.0  0.84725  0.50174  0.94515  1.0000
  H   H808      1.0  0.93115  0.52369  0.61487  1.0000
  H   H809      1.0  0.50729  0.62285  0.94284  1.0000
  C   C806      1.0  0.61870  0.51155  0.53841  1.0000
  H   H810      1.0  0.92302  0.50232  0.58833  1.0000
  C   C807      1.0  0.51101  0.64458  0.68043  1.0000
  C   C808      1.0  0.59466  0.53289  0.93433  1.0000
  C   C809      1.0  0.50760  0.71962  0.86047  1.0000
  H   H811      1.0  0.72803  0.52640  0.67898  1.0000
  H   H812      1.0  0.91842  0.54291  0.59311  1.0000
  H   H813      1.0  0.52641  0.66442  0.62361  1.0000
  H   H814      1.0  0.72597  0.51964  0.63151  1.0000
  C   C810      1.0  0.62894  0.51202  0.50777  1.0000
  H   H815      1.0  0.49959  0.61421  0.60857  1.0000
  C   C811      1.0  0.49952  0.73792  0.90366  1.0000
  C   C812      1.0  0.98593  0.57068  0.79136  1.0000
  S   S279      1.0  0.50425  0.67441  0.56278  1.0000
  H   H816      1.0  0.84220  0.52762  0.96484  1.0000
  H   H817      1.0  0.51798  0.71679  0.84656  1.0000
  C   C813      1.0  0.52922  0.63018  0.50477  1.0000
  H   H818      1.0  0.81880  0.52501  0.96963  1.0000
  Fe  Fe140     1.0  0.98724  0.56701  0.88855  1.0000
  H   H819      1.0  0.53845  0.64972  0.62565  1.0000
  H   H820      1.0  0.50279  0.51755  0.55427  1.0000
  C   C814      1.0  0.92058  0.54034  0.98210  1.0000
  C   C815      1.0  0.50953  0.59691  0.50462  1.0000
  C   C816      1.0  0.51308  0.73451  0.88604  1.0000
  H   H821      1.0  0.98016  0.57896  0.70217  1.0000
  C   C817      1.0  0.54336  0.51240  0.55504  1.0000
  C   C818      1.0  0.60129  0.52556  0.50488  1.0000
  C   C819      1.0  0.91863  0.51024  0.60815  1.0000
  H   H822      1.0  0.50594  0.68179  0.80066  1.0000
  H   H823      1.0  0.50230  0.73147  0.99237  1.0000
  C   C820      1.0  0.90088  0.53239  0.98289  1.0000
  N   N68       1.0  0.82081  0.49937  0.96144  1.0000
  H   H824      1.0  0.91438  0.50242  0.63347  1.0000
  H   H825      1.0  0.98754  0.52397  0.99512  1.0000
  C   C821      1.0  0.87179  0.50023  0.56631  1.0000
  H   H826      1.0  0.90604  0.49949  0.99209  1.0000
  C   C822      1.0  0.49797  0.63353  0.70498  1.0000
  H   H827      1.0  0.64114  0.56307  0.99524  1.0000
  C   C823      1.0  0.50266  0.51536  0.49590  1.0000
  H   H828      1.0  0.53872  0.92819  0.07452  1.0000
  H   H829      1.0  0.51100  0.98806  0.41175  1.0000
  H   H830      1.0  0.51615  0.95974  0.41987  1.0000
  C   C824      1.0  0.53719  0.91667  0.46680  1.0000
  C   C825      1.0  0.51225  0.89742  0.99832  1.0000
  H   H831      1.0  0.53406  0.89120  0.02009  1.0000
  C   C826      1.0  0.54609  0.97552  0.42740  1.0000
  C   C827      1.0  0.53171  0.90395  0.10626  1.0000
  C   C828      1.0  0.51085  0.89029  0.49116  1.0000
  H   H832      1.0  0.53579  0.83027  0.48531  1.0000
  H   H833      1.0  0.54728  0.92219  0.44589  1.0000
  H   H834      1.0  0.54817  0.96310  0.43118  1.0000
  C   C829      1.0  0.52376  0.89775  0.46396  1.0000
  H   H835      1.0  0.51711  0.93726  0.04800  1.0000
  H   H836      1.0  0.52033  0.87900  0.13736  1.0000
  H   H837      1.0  0.52354  0.88893  0.44094  1.0000
  S   S280      1.0  0.50657  0.84034  0.07223  1.0000
  C   C830      1.0  0.52505  0.98940  0.41631  1.0000
  C   C831      1.0  0.52753  0.91672  0.08723  1.0000
  H   H838      1.0  0.55972  0.92223  0.00682  1.0000
  C   C832      1.0  0.54540  0.91922  0.99965  1.0000
  N   N69       1.0  0.50950  0.91443  0.08373  1.0000
  H   H839      1.0  0.58687  0.99488  0.41292  1.0000
  C   C833      1.0  0.52793  0.97351  0.42077  1.0000
  N   N70       1.0  0.56091  0.99290  0.43026  1.0000
  H   H840      1.0  0.54591  0.90547  0.10811  1.0000
  S   S281      1.0  0.50120  0.79096  0.03038  1.0000
  C   C834      1.0  0.51740  0.88910  0.12256  1.0000
  C   C835      1.0  0.50143  0.75740  0.00914  1.0000
  H   H841      1.0  0.57933  0.98321  0.45522  1.0000
  C   C836      1.0  0.57978  0.99483  0.43849  1.0000
  H   H842      1.0  0.53112  0.86387  0.47161  1.0000
  C   C837      1.0  0.53087  0.90155  0.00716  1.0000
  H   H843      1.0  0.51638  0.76487  0.01425  1.0000
  C   C838      1.0  0.50515  0.92786  0.06395  1.0000
  C   C839      1.0  0.49918  0.88718  0.11961  1.0000
  H   H844      1.0  0.55232  0.86540  0.49384  1.0000
  H   H845      1.0  0.50156  0.93662  0.08326  1.0000
  Fe  Fe141     1.0  0.55851  0.97666  0.53724  1.0000
  S   S282      1.0  0.54605  0.97700  0.59149  1.0000
  C   C840      1.0  0.55974  0.98833  0.77040  1.0000
  H   H846      1.0  0.53527  0.93916  0.90058  1.0000
  H   H847      1.0  0.51970  0.93916  0.96140  1.0000
  C   C841      1.0  0.54021  0.92965  0.88696  1.0000
  C   C842      1.0  0.50849  0.91107  0.98117  1.0000
  Fe  Fe142     1.0  0.56059  0.98038  0.94560  1.0000
  S   S283      1.0  0.53618  0.97813  0.91078  1.0000
  H   H848      1.0  0.51457  0.86069  0.55136  1.0000
  H   H849      1.0  0.50666  0.97025  0.52199  1.0000
  C   C843      1.0  0.52461  0.92109  0.52329  1.0000
  H   H850      1.0  0.53552  0.97029  0.73709  1.0000
  H   H851      1.0  0.51481  0.98223  0.97776  1.0000
  C   C844      1.0  0.53813  0.86424  0.49830  1.0000
  H   H852      1.0  0.51534  0.80095  0.51443  1.0000
  C   C845      1.0  0.55003  0.98048  0.73717  1.0000
  H   H853      1.0  0.54079  0.91980  0.90725  1.0000
  H   H854      1.0  0.57786  0.96580  0.79884  1.0000
  C   C846      1.0  0.51557  0.81416  0.52341  1.0000
  S   S284      1.0  0.54949  0.99712  0.51324  1.0000
  S   S285      1.0  0.54753  0.98174  0.81110  1.0000
  Fe  Fe143     1.0  0.55733  0.99326  0.86913  1.0000
  H   H855      1.0  0.52484  0.92993  0.54630  1.0000
  S   S286      1.0  0.58176  0.99428  0.90265  1.0000
  H   H856      1.0  0.55112  0.97993  0.67853  1.0000
  C   C847      1.0  0.51520  0.84772  0.54386  1.0000
  N   N71       1.0  0.55858  0.94072  0.87224  1.0000
  C   C848      1.0  0.55972  0.94830  0.83896  1.0000
  C   C849      1.0  0.57447  0.94439  0.89270  1.0000
  C   C850      1.0  0.57710  0.95962  0.82505  1.0000
  C   C851      1.0  0.59209  0.95571  0.87968  1.0000
  C   C852      1.0  0.59337  0.96335  0.84560  1.0000
  H   H857      1.0  0.52982  0.92121  0.86512  1.0000
  H   H858      1.0  0.54712  0.94591  0.82321  1.0000
  H   H859      1.0  0.57357  0.93881  0.91954  1.0000
  C   C853      1.0  0.50366  0.81449  0.55025  1.0000
  H   H860      1.0  0.60461  0.95882  0.89630  1.0000
  C   C854      1.0  0.55880  0.98597  0.70391  1.0000
  C   C855      1.0  0.52298  0.92876  0.97391  1.0000
  S   S287      1.0  0.55537  0.95208  0.49910  1.0000
  C   C856      1.0  0.50342  0.83134  0.56056  1.0000
  C   C857      1.0  0.54158  0.93301  0.98323  1.0000
  S   S288      1.0  0.56049  0.95516  0.97493  1.0000
  H   H861      1.0  0.60691  0.97242  0.83538  1.0000
  C   C858      1.0  0.52706  0.83077  0.50707  1.0000
  C   C859      1.0  0.50016  0.97831  0.51001  1.0000
  C   C860      1.0  0.50444  0.98649  0.98693  1.0000
  C   C861      1.0  0.53773  0.92848  0.49646  1.0000
  C   C862      1.0  0.51138  0.90210  0.52075  1.0000
  H   H862      1.0  0.53980  0.87709  0.51386  1.0000
  C   C863      1.0  0.50093  0.99417  0.52876  1.0000
  N   N72       1.0  0.52681  0.84727  0.51747  1.0000
  H   H863      1.0  0.50150  0.89654  0.54199  1.0000
  Fe  Fe144     1.0  0.53926  0.99911  0.56809  1.0000
  H   H864      1.0  0.50356  0.74941  0.92371  1.0000
  C   C864      1.0  0.57749  0.99923  0.70360  1.0000
