data_image0
_chemical_formula_structural       FeS2FeS2Fe2HS2FeHSCH2CHSC2HC4HCHCHCHC6H4NHNHSCHSH3C2HNC2H2SH2SCHSH3C2H2C2HC2H6C2H2C3FeS2FeS2Fe2S3FeS3CFeHS2HC2H3CH6NC6H4NC6H5CHC2FeC2HCH4C2HC2H4CH2CSCH2CSFeHSH2C2HSFeS2FeSCFeSFeS3CH4NH2CNC6H4C2HC7H2SCHNC3H2CH2C2H2CH3SHCH2CHCHCHCH2C2HFeCSCH2C2SFeS2FeSHFeSFeS3C3H2SFeCH2C6H4C4HC2H6CHC2HSHCH3FeHCH2N2HSC2H2CNCH2C4HC3HNHCSH3NCSFeCFeS2FeSFe2S2FeSFeS3FeS2FeS2FeHFeSHSC6H4C6H4C6H6NC4H2C2H2CH3CHC2HNCSHC6HC2H2CFeHCNHCHSCH6C2NHCH3C3SCH3NHSHCFeCSC2H2CSC2HSH2FeHC2H4CH2CHCHC2H4SHS2FeS2FeS2FeSFeS3FeSCFeS2FeSFeS3C6H4C6H4C6H4S2C2H2NCHCHC3H3CH2C2H3C6HC2HFeCSHNH2NHCHNFeCNC6H8NC6H8FeHCHC2HCH2C2SHCH2CH2CHC3SH2CH2CNC3FeSCHSCFeSFeSHSFeS2FeS2FeSFeCS3FeSFeSH2NHCH2C2H4C6H4C5H2C2FeCHC7FeH2C6H3SCSHC6H3CFeCHSHFeNH2NC2H2C2H4S2CH2C3H2SHCHCH3CH3C2HCHCHCH3CNC3HCHSH2CHC6SCSCFeSCSHC2HC2HNH2CHCFeSH2SCFeCFeSHSFeS2FeS2FeSFeHS2H2SCSHSC2HC4HCH2C6H4C4H3C2HCHC2NC5H4NC4H2SCHNHCFeCNCHSC2SC3NCHFeHSCH2CHC3HSHCH2C6HCH3SCHC4HC2H6FeHCHCH3SHC2HFeC3HNH2C5HCH6CH4SCHCH2C3S2C3SFeSHN2HFeS2FeSFeHSHC6H4CHC4H5C2H3C2SCH5CH3C4HSHCHC3H3NHCH2CH3CH2CHCSCHSHNHC2HC3S2HSHCFeSHC2SFeSHFeSCHSFeC2HNC2H4C7HCH5CHCH3NC3H2FeC2H2FeSH2CH2CHCHC2H2C2SH2SCH2CHC2HCHC2NCH3CSH2CHC5HCNHC3HSCFe2S2CS2HFeSCSCHSFe2SH3C6H2FeHCHC2HC2NHCHFeNCHCH3C2H5C5H2CH3CH5CHCHCSHNCFeS2HS2Fe2HC2SHSCFeSHC8H4CHC2H2C2SH4CHFeC2SCSNH5CHSHSCH5C2SH2C2H3
_chemical_formula_sum              "Fe96 S192 H576 C576 N48"
_cell_length_a       49.4865
_cell_length_b       49.2097
_cell_length_c       40.2346
_cell_angle_alpha    89.712
_cell_angle_beta     90.2895
_cell_angle_gamma    119.862

_space_group_name_H-M_alt    "P 1"
_space_group_IT_number       1

loop_
  _space_group_symop_operation_xyz
  'x, y, z'

loop_
  _atom_site_type_symbol
  _atom_site_label
  _atom_site_symmetry_multiplicity
  _atom_site_fract_x
  _atom_site_fract_y
  _atom_site_fract_z
  _atom_site_occupancy
  Fe  Fe1       1.0  0.15036  0.42733  0.30442  1.0000
  S   S1        1.0  0.12660  0.43630  0.34702  1.0000
  S   S2        1.0  0.19495  0.42394  0.30691  1.0000
  Fe  Fe2       1.0  0.10539  0.43044  0.25217  1.0000
  S   S3        1.0  0.07938  0.44044  0.29110  1.0000
  S   S4        1.0  0.09300  0.43323  0.19806  1.0000
  Fe  Fe3       1.0  0.12600  0.47277  0.31345  1.0000
  Fe  Fe4       1.0  0.08197  0.40306  0.32066  1.0000
  H   H1        1.0  0.26189  0.50865  0.45844  1.0000
  S   S5        1.0  0.15244  0.46609  0.27236  1.0000
  S   S6        1.0  0.10543  0.39088  0.28018  1.0000
  Fe  Fe5       1.0  0.31758  0.42769  0.44173  1.0000
  H   H2        1.0  0.03761  0.40693  0.01374  1.0000
  S   S7        1.0  0.26782  0.41897  0.43651  1.0000
  C   C1        1.0  0.17477  0.41406  0.22355  1.0000
  H   H3        1.0  0.07744  0.41452  0.01235  1.0000
  H   H4        1.0  0.11759  0.51193  0.26442  1.0000
  C   C2        1.0  0.26000  0.48944  0.44246  1.0000
  H   H5        1.0  0.06578  0.39344  0.45777  1.0000
  S   S8        1.0  0.32795  0.39257  0.46652  1.0000
  C   C3        1.0  0.34466  0.51864  0.39054  1.0000
  C   C4        1.0  0.13448  0.36008  0.21723  1.0000
  H   H6        1.0  0.12610  0.40740  0.16162  1.0000
  C   C5        1.0  0.17645  0.45566  0.18815  1.0000
  C   C6        1.0  0.06331  0.40255  0.17435  1.0000
  C   C7        1.0  0.05320  0.41017  0.14488  1.0000
  C   C8        1.0  0.12192  0.36900  0.19107  1.0000
  H   H7        1.0  0.06317  0.43450  0.13761  1.0000
  C   C9        1.0  0.13620  0.40057  0.18172  1.0000
  H   H8        1.0  0.07033  0.50498  0.32140  1.0000
  C   C10       1.0  0.28902  0.34348  0.35225  1.0000
  H   H9        1.0  0.29334  0.31658  0.42866  1.0000
  C   C11       1.0  0.31637  0.51067  0.44167  1.0000
  H   H10       1.0  0.19535  0.43151  0.23659  1.0000
  C   C12       1.0  0.24817  0.42051  0.40005  1.0000
  C   C13       1.0  0.21849  0.41749  0.40313  1.0000
  C   C14       1.0  0.20213  0.41898  0.37502  1.0000
  C   C15       1.0  0.21501  0.42290  0.34330  1.0000
  C   C16       1.0  0.24461  0.42562  0.34017  1.0000
  C   C17       1.0  0.26121  0.42463  0.36836  1.0000
  H   H11       1.0  0.20801  0.41399  0.42747  1.0000
  H   H12       1.0  0.17930  0.41661  0.37785  1.0000
  H   H13       1.0  0.25480  0.42864  0.31574  1.0000
  H   H14       1.0  0.28404  0.42704  0.36556  1.0000
  N   N1        1.0  0.16190  0.42271  0.19837  1.0000
  H   H15       1.0  0.19175  0.45992  0.16637  1.0000
  N   N2        1.0  0.28913  0.49977  0.42424  1.0000
  H   H16       1.0  0.15838  0.46194  0.18153  1.0000
  S   S9        1.0  0.03587  0.36563  0.34086  1.0000
  C   C18       1.0  0.05301  0.38221  0.40626  1.0000
  H   H17       1.0  0.26173  0.36541  0.34040  1.0000
  S   S10       1.0  0.36051  0.40689  0.04055  1.0000
  H   H18       1.0  0.07628  0.39766  0.39716  1.0000
  H   H19       1.0  0.25501  0.46886  0.45828  1.0000
  H   H20       1.0  0.31364  0.32103  0.37188  1.0000
  C   C19       1.0  0.04703  0.37972  0.44058  1.0000
  C   C20       1.0  0.25682  0.35094  0.39184  1.0000
  H   H21       1.0  0.31648  0.50542  0.34608  1.0000
  N   N3        1.0  0.26578  0.33764  0.41630  1.0000
  C   C21       1.0  0.16120  0.38269  0.23345  1.0000
  C   C22       1.0  0.31674  0.50734  0.37294  1.0000
  H   H22       1.0  0.10098  0.35171  0.17842  1.0000
  H   H23       1.0  0.22827  0.31360  0.44990  1.0000
  S   S11       1.0  0.35212  0.46705  0.47409  1.0000
  H   H24       1.0  0.24066  0.35918  0.39733  1.0000
  H   H25       1.0  0.19048  0.47162  0.20864  1.0000
  S   S12       1.0  0.13854  0.52056  0.33301  1.0000
  C   C23       1.0  0.26852  0.35436  0.35955  1.0000
  H   H26       1.0  0.29851  0.34607  0.32740  1.0000
  S   S13       1.0  0.35109  0.43833  0.39975  1.0000
  H   H27       1.0  0.12336  0.33578  0.22518  1.0000
  H   H28       1.0  0.05795  0.36483  0.20607  1.0000
  H   H29       1.0  0.34220  0.23576  0.14133  1.0000
  C   C24       1.0  0.36023  0.27327  0.08862  1.0000
  C   C25       1.0  0.29753  0.32939  0.37720  1.0000
  H   H30       1.0  0.17101  0.37617  0.25414  1.0000
  H   H31       1.0  0.25222  0.35523  0.45735  1.0000
  C   C26       1.0  0.05044  0.37102  0.18338  1.0000
  C   C27       1.0  0.28585  0.32687  0.40934  1.0000
  H   H32       1.0  0.23979  0.48225  0.42545  1.0000
  C   C28       1.0  0.25249  0.33366  0.44967  1.0000
  C   C29       1.0  0.28904  0.49816  0.39027  1.0000
  H   H33       1.0  0.03257  0.50235  0.32256  1.0000
  H   H34       1.0  0.36165  0.40006  0.35091  1.0000
  H   H35       1.0  0.26643  0.32941  0.46860  1.0000
  H   H36       1.0  0.33610  0.25491  0.08227  1.0000
  H   H37       1.0  0.26740  0.48909  0.37639  1.0000
  H   H38       1.0  0.31639  0.51142  0.46862  1.0000
  C   C30       1.0  0.05753  0.51786  0.31646  1.0000
  C   C31       1.0  0.03021  0.38662  0.12475  1.0000
  H   H39       1.0  0.35954  0.29064  0.10569  1.0000
  H   H40       1.0  0.33523  0.02396  0.48068  1.0000
  C   C32       1.0  0.34455  0.52060  0.42509  1.0000
  C   C33       1.0  0.02913  0.35025  0.02581  1.0000
  C   C34       1.0  0.02901  0.36413  0.38391  1.0000
  Fe  Fe6       1.0  0.14159  0.41411  0.80113  1.0000
  S   S14       1.0  0.11571  0.41686  0.84532  1.0000
  S   S15       1.0  0.19060  0.42076  0.80328  1.0000
  Fe  Fe7       1.0  0.08912  0.40402  0.75221  1.0000
  S   S16       1.0  0.05953  0.40597  0.79283  1.0000
  S   S17       1.0  0.07602  0.40219  0.69762  1.0000
  Fe  Fe8       1.0  0.10338  0.44624  0.81268  1.0000
  Fe  Fe9       1.0  0.07390  0.37642  0.82192  1.0000
  S   S18       1.0  0.03742  0.33731  0.85293  1.0000
  S   S19       1.0  0.13256  0.44702  0.76997  1.0000
  S   S20       1.0  0.10045  0.37089  0.77970  1.0000
  Fe  Fe10      1.0  0.30884  0.42067  0.93714  1.0000
  S   S21       1.0  0.33747  0.42389  0.89284  1.0000
  S   S22       1.0  0.26318  0.42159  0.93503  1.0000
  S   S23       1.0  0.10191  0.48688  0.83622  1.0000
  C   C35       1.0  0.10272  0.51575  0.80966  1.0000
  Fe  Fe11      1.0  0.33921  0.38313  0.91524  1.0000
  H   H41       1.0  0.35948  0.32767  0.56644  1.0000
  S   S24       1.0  0.33103  0.34502  0.87902  1.0000
  S   S25       1.0  0.30749  0.37740  0.95782  1.0000
  H   H42       1.0  0.05032  0.40530  0.63472  1.0000
  C   C36       1.0  0.04742  0.35572  0.97037  1.0000
  C   C37       1.0  0.07620  0.36701  0.59399  1.0000
  H   H43       1.0  0.34398  0.02393  0.62577  1.0000
  H   H44       1.0  0.05861  0.37020  0.94872  1.0000
  H   H45       1.0  0.08948  0.36582  0.64493  1.0000
  C   C38       1.0  0.10889  0.51615  0.77574  1.0000
  H   H46       1.0  0.17730  0.35495  0.83481  1.0000
  H   H47       1.0  0.03691  0.47422  0.76137  1.0000
  H   H48       1.0  0.05572  0.36247  0.54536  1.0000
  H   H49       1.0  0.17688  0.32497  0.80905  1.0000
  H   H50       1.0  0.03122  0.42078  0.91152  1.0000
  H   H51       1.0  0.19247  0.47710  0.84368  1.0000
  N   N4        1.0  0.04300  0.36855  0.99849  1.0000
  C   C39       1.0  0.24435  0.42349  0.89820  1.0000
  C   C40       1.0  0.21453  0.42028  0.90049  1.0000
  C   C41       1.0  0.19792  0.41979  0.87173  1.0000
  C   C42       1.0  0.21116  0.42291  0.84033  1.0000
  C   C43       1.0  0.24116  0.42658  0.83804  1.0000
  C   C44       1.0  0.25762  0.42671  0.86678  1.0000
  H   H52       1.0  0.20406  0.41771  0.92469  1.0000
  H   H53       1.0  0.17480  0.41676  0.87390  1.0000
  H   H54       1.0  0.25163  0.42905  0.81386  1.0000
  H   H55       1.0  0.28053  0.42921  0.86465  1.0000
  N   N5        1.0  0.21439  0.34500  0.84362  1.0000
  C   C45       1.0  0.23555  0.33785  0.83050  1.0000
  C   C46       1.0  0.21373  0.34930  0.87714  1.0000
  C   C47       1.0  0.25669  0.33468  0.85112  1.0000
  C   C48       1.0  0.23475  0.34664  0.89840  1.0000
  C   C49       1.0  0.25615  0.33903  0.88526  1.0000
  C   C50       1.0  0.19229  0.34774  0.82135  1.0000
  H   H56       1.0  0.23617  0.33456  0.80394  1.0000
  H   H57       1.0  0.19741  0.35553  0.88762  1.0000
  H   H58       1.0  0.27355  0.32902  0.84085  1.0000
  H   H59       1.0  0.23484  0.35106  0.92485  1.0000
  H   H60       1.0  0.27244  0.33664  0.90146  1.0000
  C   C51       1.0  0.35471  0.04526  0.52793  1.0000
  H   H61       1.0  0.20506  0.36593  0.80206  1.0000
  C   C52       1.0  0.19301  0.49605  0.82918  1.0000
  C   C53       1.0  0.05230  0.35325  0.57052  1.0000
  Fe  Fe12      1.0  0.35156  0.41013  0.98542  1.0000
  C   C54       1.0  0.03720  0.38252  0.68255  1.0000
  C   C55       1.0  0.05432  0.40229  0.99997  1.0000
  H   H62       1.0  0.34520  0.40922  0.81781  1.0000
  C   C56       1.0  0.07136  0.35481  0.62617  1.0000
  H   H63       1.0  0.05202  0.40016  0.86894  1.0000
  H   H64       1.0  0.09831  0.38727  0.58737  1.0000
  H   H65       1.0  0.35597  0.36927  0.53458  1.0000
  H   H66       1.0  0.05624  0.41236  0.97469  1.0000
  C   C57       1.0  0.03141  0.38792  0.64962  1.0000
  C   C58       1.0  0.03350  0.38406  0.88509  1.0000
  H   H67       1.0  0.03546  0.47237  0.82307  1.0000
  C   C59       1.0  0.20376  0.50104  0.79651  1.0000
  C   C60       1.0  0.35642  0.03980  0.56185  1.0000
  H   H68       1.0  0.03865  0.32036  0.65987  1.0000
  H   H69       1.0  0.11216  0.49784  0.76513  1.0000
  H   H70       1.0  0.35245  0.38451  0.76732  1.0000
  H   H71       1.0  0.03915  0.31336  0.94575  1.0000
  C   C61       1.0  0.03652  0.32352  0.96857  1.0000
  H   H72       1.0  0.34000  0.31539  0.82155  1.0000
  H   H73       1.0  0.21155  0.48597  0.78561  1.0000
  C   C62       1.0  0.04244  0.32912  0.63453  1.0000
  S   S26       1.0  0.35070  0.45341  0.96809  1.0000
  C   C63       1.0  0.18275  0.51543  0.84283  1.0000
  H   H74       1.0  0.17419  0.51128  0.86817  1.0000
  H   H75       1.0  0.34444  0.02105  0.74063  1.0000
  C   C64       1.0  0.36168  0.33665  0.82669  1.0000
  S   S27       1.0  0.35566  0.90376  0.16502  1.0000
  Fe  Fe13      1.0  0.32073  0.88356  0.12363  1.0000
  H   H76       1.0  0.15126  0.62483  0.17273  1.0000
  S   S28       1.0  0.26910  0.84889  0.13236  1.0000
  H   H77       1.0  0.13267  0.64823  0.17165  1.0000
  H   H78       1.0  0.23603  0.74942  0.16339  1.0000
  C   C65       1.0  0.07669  0.59786  0.34457  1.0000
  C   C66       1.0  0.25739  0.87899  0.23974  1.0000
  H   H79       1.0  0.07308  0.61680  0.33632  1.0000
  S   S29       1.0  0.33460  0.93050  0.09997  1.0000
  Fe  Fe14      1.0  0.11677  0.65060  0.25530  1.0000
  S   S30       1.0  0.14737  0.68037  0.29671  1.0000
  S   S31       1.0  0.11377  0.60648  0.23494  1.0000
  Fe  Fe15      1.0  0.08958  0.69274  0.24359  1.0000
  S   S32       1.0  0.11767  0.72604  0.28457  1.0000
  C   C67       1.0  0.05469  0.65204  0.42290  1.0000
  Fe  Fe16      1.0  0.15758  0.72170  0.26384  1.0000
  S   S33       1.0  0.20808  0.76131  0.25939  1.0000
  Fe  Fe17      1.0  0.10488  0.68202  0.31390  1.0000
  S   S34       1.0  0.09422  0.67577  0.36943  1.0000
  S   S35       1.0  0.13021  0.69147  0.22096  1.0000
  S   S36       1.0  0.07362  0.64925  0.27438  1.0000
  C   C68       1.0  0.09261  0.60072  0.37417  1.0000
  H   H80       1.0  0.05369  0.56886  0.30241  1.0000
  H   H81       1.0  0.10753  0.54592  0.22655  1.0000
  H   H82       1.0  0.03353  0.59926  0.16039  1.0000
  H   H83       1.0  0.07536  0.66592  0.43772  1.0000
  N   N6        1.0  0.28449  0.92209  0.20183  1.0000
  H   H84       1.0  0.25268  0.74423  0.22026  1.0000
  H   H85       1.0  0.05988  0.52333  0.28942  1.0000
  C   C69       1.0  0.27359  0.89856  0.26634  1.0000
  N   N7        1.0  0.07031  0.54671  0.33606  1.0000
  C   C70       1.0  0.25285  0.82391  0.16741  1.0000
  C   C71       1.0  0.27103  0.82518  0.19474  1.0000
  C   C72       1.0  0.25688  0.80615  0.22283  1.0000
  C   C73       1.0  0.22451  0.78545  0.22384  1.0000
  C   C74       1.0  0.20637  0.78405  0.19644  1.0000
  C   C75       1.0  0.22048  0.80328  0.16846  1.0000
  H   H86       1.0  0.29593  0.84104  0.19438  1.0000
  H   H87       1.0  0.27115  0.80740  0.24389  1.0000
  H   H88       1.0  0.18143  0.76828  0.19686  1.0000
  H   H89       1.0  0.20616  0.80229  0.14756  1.0000
  C   C76       1.0  0.08573  0.54917  0.36523  1.0000
  C   C77       1.0  0.26297  0.89131  0.20747  1.0000
  H   H90       1.0  0.25014  0.87605  0.18693  1.0000
  C   C78       1.0  0.09729  0.57628  0.38461  1.0000
  C   C79       1.0  0.11750  0.55442  0.25089  1.0000
  C   C80       1.0  0.12365  0.58413  0.26129  1.0000
  C   C81       1.0  0.13680  0.59509  0.29263  1.0000
  C   C82       1.0  0.14293  0.57603  0.31384  1.0000
  C   C83       1.0  0.04157  0.67034  0.17886  1.0000
  C   C84       1.0  0.22361  0.72723  0.17661  1.0000
  H   H91       1.0  0.14183  0.61802  0.30080  1.0000
  H   H92       1.0  0.15265  0.58441  0.33829  1.0000
  S   S37       1.0  0.05652  0.69899  0.21004  1.0000
  C   C85       1.0  0.29982  0.94164  0.22783  1.0000
  H   H93       1.0  0.27637  0.94639  0.16293  1.0000
  N   N8        1.0  0.18156  0.67397  0.17931  1.0000
  C   C86       1.0  0.19033  0.67118  0.21091  1.0000
  C   C87       1.0  0.19742  0.70177  0.16243  1.0000
  C   C88       1.0  0.21610  0.69633  0.22601  1.0000
  H   H94       1.0  0.24071  0.85437  0.24397  1.0000
  H   H95       1.0  0.22248  0.69442  0.25140  1.0000
  C   C89       1.0  0.15396  0.64760  0.16425  1.0000
  H   H96       1.0  0.17719  0.64958  0.22480  1.0000
  H   H97       1.0  0.18976  0.70452  0.13798  1.0000
  C   C90       1.0  0.12327  0.53519  0.27225  1.0000
  C   C91       1.0  0.04612  0.64451  0.18064  1.0000
  H   H98       1.0  0.10139  0.62198  0.38883  1.0000
  H   H99       1.0  0.15549  0.64821  0.13670  1.0000
  C   C92       1.0  0.29016  0.93464  0.16790  1.0000
  H   H100      1.0  0.31531  0.95183  0.16420  1.0000
  H   H101      1.0  0.31633  0.96624  0.22339  1.0000
  H   H102      1.0  0.08999  0.53050  0.37315  1.0000
  S   S38       1.0  0.35206  0.87511  0.08988  1.0000
  H   H103      1.0  0.06080  0.64323  0.19984  1.0000
  C   C93       1.0  0.23303  0.72434  0.20853  1.0000
  H   H104      1.0  0.26963  0.88924  0.29147  1.0000
  H   H105      1.0  0.28366  0.91572  0.14923  1.0000
  C   C94       1.0  0.13546  0.54577  0.30403  1.0000
  H   H106      1.0  0.30748  0.94571  0.28096  1.0000
  C   C95       1.0  0.29479  0.93017  0.26046  1.0000
  H   H107      1.0  0.11004  0.57848  0.40736  1.0000
  C   C96       1.0  0.05702  0.65278  0.38805  1.0000
  H   H108      1.0  0.35284  0.95100  0.46788  1.0000
  C   C97       1.0  0.06562  0.57057  0.32568  1.0000
  H   H109      1.0  0.35630  0.97644  0.02836  1.0000
  H   H110      1.0  0.03144  0.63524  0.34236  1.0000
  C   C98       1.0  0.03060  0.61959  0.15835  1.0000
  C   C99       1.0  0.03008  0.63478  0.36918  1.0000
  H   H111      1.0  0.07243  0.68386  0.69311  1.0000
  Fe  Fe18      1.0  0.30350  0.86886  0.64301  1.0000
  C   C100      1.0  0.20367  0.52492  0.77773  1.0000
  S   S39       1.0  0.26089  0.81969  0.64666  1.0000
  C   C101      1.0  0.34613  0.94297  0.77383  1.0000
  H   H112      1.0  0.19485  0.81107  0.63658  1.0000
  H   H113      1.0  0.09740  0.63236  0.62890  1.0000
  C   C102      1.0  0.11731  0.75871  0.62994  1.0000
  C   C103      1.0  0.04125  0.63025  0.93976  1.0000
  S   S40       1.0  0.30121  0.90972  0.62052  1.0000
  Fe  Fe19      1.0  0.10722  0.63382  0.76975  1.0000
  S   S41       1.0  0.13742  0.66630  0.81019  1.0000
  S   S42       1.0  0.11206  0.59592  0.74372  1.0000
  Fe  Fe20      1.0  0.06700  0.66378  0.76558  1.0000
  S   S43       1.0  0.09336  0.69865  0.80563  1.0000
  H   H114      1.0  0.19340  0.56251  0.77748  1.0000
  Fe  Fe21      1.0  0.13628  0.70437  0.77976  1.0000
  S   S44       1.0  0.17693  0.75429  0.77434  1.0000
  Fe  Fe22      1.0  0.09208  0.65794  0.83255  1.0000
  S   S45       1.0  0.08274  0.64880  0.88796  1.0000
  S   S46       1.0  0.10958  0.67244  0.73758  1.0000
  S   S47       1.0  0.06232  0.62256  0.79435  1.0000
  C   C104      1.0  0.05023  0.67336  0.68055  1.0000
  C   C105      1.0  0.34233  0.96125  0.79786  1.0000
  C   C106      1.0  0.07338  0.61861  0.63694  1.0000
  H   H115      1.0  0.12383  0.74328  0.73010  1.0000
  H   H116      1.0  0.32784  0.92987  0.75577  1.0000
  S   S48       1.0  0.34623  0.93032  0.53563  1.0000
  Fe  Fe23      1.0  0.34371  0.91952  0.59101  1.0000
  C   C107      1.0  0.04910  0.67425  0.64576  1.0000
  H   H117      1.0  0.32073  0.96186  0.79833  1.0000
  H   H118      1.0  0.10193  0.76369  0.72771  1.0000
  C   C108      1.0  0.23969  0.80119  0.68333  1.0000
  C   C109      1.0  0.24431  0.81767  0.71298  1.0000
  C   C110      1.0  0.22537  0.80268  0.74082  1.0000
  C   C111      1.0  0.20167  0.77109  0.73941  1.0000
  C   C112      1.0  0.19735  0.75443  0.70992  1.0000
  C   C113      1.0  0.21627  0.76944  0.68205  1.0000
  H   H119      1.0  0.26215  0.84210  0.71432  1.0000
  H   H120      1.0  0.22891  0.81577  0.76351  1.0000
  H   H121      1.0  0.17927  0.73012  0.70845  1.0000
  H   H122      1.0  0.21252  0.75649  0.65923  1.0000
  C   C114      1.0  0.11141  0.54071  0.75556  1.0000
  C   C115      1.0  0.06647  0.60961  0.67028  1.0000
  C   C116      1.0  0.34286  0.00488  0.61006  1.0000
  C   C117      1.0  0.09846  0.53956  0.82317  1.0000
  H   H123      1.0  0.16586  0.57114  0.82118  1.0000
  C   C118      1.0  0.10777  0.56488  0.76922  1.0000
  C   C119      1.0  0.10107  0.56413  0.80303  1.0000
  H   H124      1.0  0.08616  0.71560  0.88270  1.0000
  H   H125      1.0  0.15410  0.78167  0.59384  1.0000
  H   H126      1.0  0.09366  0.53935  0.84942  1.0000
  H   H127      1.0  0.09818  0.58266  0.81375  1.0000
  H   H128      1.0  0.09722  0.69993  0.93587  1.0000
  H   H129      1.0  0.06001  0.63128  0.95463  1.0000
  C   C120      1.0  0.03093  0.70163  0.93925  1.0000
  H   H130      1.0  0.18058  0.80441  0.69593  1.0000
  C   C121      1.0  0.11003  0.75515  0.66383  1.0000
  C   C122      1.0  0.16258  0.79163  0.67754  1.0000
  H   H131      1.0  0.05393  0.61771  0.58845  1.0000
  S   S49       1.0  0.33070  0.97396  0.69062  1.0000
  H   H132      1.0  0.08623  0.73920  0.67142  1.0000
  C   C123      1.0  0.17466  0.56069  0.83993  1.0000
  H   H133      1.0  0.15563  0.54820  0.85831  1.0000
  H   H134      1.0  0.32282  0.98263  0.61920  1.0000
  H   H135      1.0  0.30883  0.96176  0.56442  1.0000
  Fe  Fe24      1.0  0.33558  0.93832  0.66031  1.0000
  H   H136      1.0  0.09932  0.74558  0.61156  1.0000
  C   C124      1.0  0.02922  0.58464  0.71584  1.0000
  H   H137      1.0  0.08547  0.61637  0.68786  1.0000
  H   H138      1.0  0.19522  0.57985  0.85269  1.0000
  N   N9        1.0  0.05874  0.70705  0.92636  1.0000
  N   N10       1.0  0.13259  0.77141  0.68712  1.0000
  H   H139      1.0  0.07280  0.69358  0.97083  1.0000
  S   S50       1.0  0.33463  0.89700  0.68513  1.0000
  C   C125      1.0  0.14796  0.77896  0.62000  1.0000
  C   C126      1.0  0.17077  0.79560  0.64391  1.0000
  H   H140      1.0  0.07047  0.68483  0.63158  1.0000
  H   H141      1.0  0.30486  0.97025  0.50454  1.0000
  C   C127      1.0  0.12480  0.76551  0.72251  1.0000
  N   N11       1.0  0.03618  0.59274  0.68063  1.0000
  C   C128      1.0  0.19332  0.54392  0.79219  1.0000
  H   H142      1.0  0.11653  0.54118  0.72937  1.0000
  H   H143      1.0  0.04542  0.71303  0.84478  1.0000
  C   C129      1.0  0.04135  0.71039  0.87138  1.0000
  C   C130      1.0  0.04549  0.63610  0.90539  1.0000
  C   C131      1.0  0.04908  0.61021  0.61423  1.0000
  C   C132      1.0  0.36158  0.99866  0.84390  1.0000
  H   H144      1.0  0.14263  0.78448  0.73841  1.0000
  C   C133      1.0  0.08311  0.70870  0.94856  1.0000
  C   C134      1.0  0.06430  0.71183  0.89296  1.0000
  C   C135      1.0  0.32094  0.98548  0.55462  1.0000
  H   H145      1.0  0.35622  0.01879  0.99435  1.0000
  N   N12       1.0  0.18315  0.53909  0.82439  1.0000
  H   H146      1.0  0.09867  0.73326  0.95654  1.0000
  C   C136      1.0  0.31854  0.99013  0.52063  1.0000
  S   S51       1.0  0.34356  0.87627  0.61022  1.0000
  H   H147      1.0  0.04872  0.58376  0.72872  1.0000
  H   H148      1.0  0.33826  0.98565  0.85575  1.0000
  H   H149      1.0  0.21146  0.52858  0.75211  1.0000
  N   N13       1.0  0.33942  0.01024  0.57480  1.0000
  C   C137      1.0  0.33562  0.02023  0.50726  1.0000
  S   S52       1.0  0.40256  0.44434  0.45660  1.0000
  Fe  Fe25      1.0  0.38647  0.47545  0.43369  1.0000
  C   C138      1.0  0.40827  0.35960  0.05350  1.0000
  Fe  Fe26      1.0  0.64795  0.07679  0.38657  1.0000
  S   S53       1.0  0.60187  0.06737  0.40800  1.0000
  S   S54       1.0  0.64959  0.03671  0.36231  1.0000
  Fe  Fe27      1.0  0.40823  0.33625  0.23015  1.0000
  S   S55       1.0  0.39243  0.29758  0.19246  1.0000
  Fe  Fe28      1.0  0.68445  0.07252  0.32766  1.0000
  Fe  Fe29      1.0  0.47615  0.35606  0.22230  1.0000
  S   S56       1.0  0.46626  0.31968  0.18352  1.0000
  S   S57       1.0  0.52292  0.38968  0.24465  1.0000
  Fe  Fe30      1.0  0.43245  0.33329  0.16200  1.0000
  S   S58       1.0  0.42941  0.33929  0.10614  1.0000
  Fe  Fe31      1.0  0.42723  0.28685  0.21735  1.0000
  S   S59       1.0  0.42084  0.23755  0.22205  1.0000
  S   S60       1.0  0.44602  0.37243  0.19800  1.0000
  S   S61       1.0  0.43942  0.32267  0.25764  1.0000
  Fe  Fe32      1.0  0.42546  0.07539  0.41392  1.0000
  S   S62       1.0  0.44235  0.05219  0.37844  1.0000
  S   S63       1.0  0.42218  0.06561  0.46966  1.0000
  Fe  Fe33      1.0  0.42147  0.11744  0.35857  1.0000
  S   S64       1.0  0.43715  0.09625  0.31902  1.0000
  S   S65       1.0  0.41421  0.15968  0.35258  1.0000
  Fe  Fe34      1.0  0.40553  0.05025  0.34410  1.0000
  H   H150      1.0  0.40794  0.21401  0.34247  1.0000
  Fe  Fe35      1.0  0.47245  0.09987  0.35664  1.0000
  S   S66       1.0  0.52145  0.11879  0.33754  1.0000
  H   H151      1.0  0.41296  0.46868  0.05740  1.0000
  S   S67       1.0  0.45902  0.12388  0.39487  1.0000
  C   C139      1.0  0.41453  0.17992  0.31567  1.0000
  C   C140      1.0  0.41893  0.17080  0.28420  1.0000
  C   C141      1.0  0.42068  0.18865  0.25586  1.0000
  C   C142      1.0  0.41847  0.21600  0.25864  1.0000
  C   C143      1.0  0.41411  0.22512  0.29010  1.0000
  C   C144      1.0  0.41177  0.20695  0.31833  1.0000
  H   H152      1.0  0.42097  0.15001  0.28169  1.0000
  H   H153      1.0  0.42382  0.18122  0.23162  1.0000
  H   H154      1.0  0.41201  0.24587  0.29262  1.0000
  H   H155      1.0  0.44302  0.51014  0.47353  1.0000
  C   C145      1.0  0.58050  0.08291  0.38865  1.0000
  C   C146      1.0  0.55141  0.07556  0.40176  1.0000
  C   C147      1.0  0.53340  0.08699  0.38662  1.0000
  C   C148      1.0  0.54448  0.10598  0.35835  1.0000
  C   C149      1.0  0.57372  0.11363  0.34541  1.0000
  C   C150      1.0  0.59164  0.10197  0.36042  1.0000
  H   H156      1.0  0.54273  0.06096  0.42370  1.0000
  H   H157      1.0  0.51097  0.08111  0.39688  1.0000
  H   H158      1.0  0.58243  0.12834  0.32354  1.0000
  H   H159      1.0  0.61407  0.10779  0.35019  1.0000
  C   C151      1.0  0.58443  0.47857  0.18490  1.0000
  C   C152      1.0  0.55697  0.45450  0.17083  1.0000
  C   C153      1.0  0.53821  0.42684  0.18873  1.0000
  C   C154      1.0  0.54705  0.42303  0.22070  1.0000
  C   C155      1.0  0.57474  0.44693  0.23462  1.0000
  C   C156      1.0  0.59334  0.47473  0.21683  1.0000
  H   H160      1.0  0.55001  0.45733  0.14610  1.0000
  H   H161      1.0  0.51691  0.40850  0.17782  1.0000
  H   H162      1.0  0.58162  0.44409  0.25938  1.0000
  H   H163      1.0  0.61444  0.49319  0.22788  1.0000
  H   H164      1.0  0.41863  0.34930  0.03807  1.0000
  H   H165      1.0  0.61394  0.02254  0.43966  1.0000
  N   N14       1.0  0.47561  0.42889  0.26431  1.0000
  C   C157      1.0  0.46419  0.40411  0.28959  1.0000
  C   C158      1.0  0.66939  0.03975  0.07501  1.0000
  C   C159      1.0  0.67990  0.07666  0.02904  1.0000
  C   C160      1.0  0.40598  0.26617  0.09317  1.0000
  H   H166      1.0  0.50574  0.49249  0.19572  1.0000
  H   H167      1.0  0.36251  0.39285  0.29000  1.0000
  C   C161      1.0  0.36463  0.24057  0.13182  1.0000
  C   C162      1.0  0.36879  0.38417  0.34129  1.0000
  H   H168      1.0  0.39145  0.37489  0.01164  1.0000
  H   H169      1.0  0.65524  0.06911  0.02778  1.0000
  C   C163      1.0  0.45477  0.43217  0.24464  1.0000
  H   H170      1.0  0.42992  0.41637  0.24750  1.0000
  H   H171      1.0  0.39253  0.04984  0.26779  1.0000
  H   H172      1.0  0.45839  0.22476  0.37507  1.0000
  C   C164      1.0  0.37805  0.35911  0.29414  1.0000
  H   H173      1.0  0.64546  0.02618  0.06451  1.0000
  C   C165      1.0  0.49716  0.47508  0.21544  1.0000
  C   C166      1.0  0.41030  0.35831  0.08832  1.0000
  H   H174      1.0  0.45769  0.41192  0.31252  1.0000
  N   N15       1.0  0.37723  0.25935  0.10453  1.0000
  C   C167      1.0  0.39680  0.37170  0.10797  1.0000
  S   S68       1.0  0.37285  0.36887  0.40629  1.0000
  H   H175      1.0  0.53676  0.05622  0.31134  1.0000
  C   C168      1.0  0.43929  0.47097  0.01386  1.0000
  C   C169      1.0  0.67032  0.02390  0.21932  1.0000
  C   C170      1.0  0.66448  0.49644  0.13759  1.0000
  C   C171      1.0  0.38668  0.34253  0.31593  1.0000
  C   C172      1.0  0.38572  0.34629  0.35038  1.0000
  C   C173      1.0  0.47949  0.24045  0.36028  1.0000
  H   H176      1.0  0.39321  0.32613  0.30631  1.0000
  C   C174      1.0  0.38838  0.02819  0.25648  1.0000
  C   C175      1.0  0.50691  0.44908  0.26105  1.0000
  H   H177      1.0  0.67595  0.48199  0.13920  1.0000
  H   H178      1.0  0.52347  0.44648  0.27661  1.0000
  C   C176      1.0  0.49975  0.20423  0.36081  1.0000
  Fe  Fe36      1.0  0.36561  0.43286  0.49491  1.0000
  H   H179      1.0  0.48230  0.23419  0.29425  1.0000
  C   C177      1.0  0.50021  0.20250  0.29198  1.0000
  N   N16       1.0  0.69076  0.06303  0.05107  1.0000
  H   H180      1.0  0.39158  0.33277  0.36722  1.0000
  C   C178      1.0  0.51017  0.18492  0.31029  1.0000
  H   H181      1.0  0.44341  0.38264  0.28028  1.0000
  S   S69       1.0  0.68622  0.08677  0.42320  1.0000
  C   C179      1.0  0.49052  0.22104  0.30870  1.0000
  H   H182      1.0  0.47304  0.25391  0.34284  1.0000
  H   H183      1.0  0.51754  0.17018  0.29783  1.0000
  H   H184      1.0  0.48564  0.07978  0.27422  1.0000
  H   H185      1.0  0.49566  0.05671  0.24728  1.0000
  H   H186      1.0  0.39808  0.37078  0.13478  1.0000
  H   H187      1.0  0.48195  0.39724  0.29562  1.0000
  C   C180      1.0  0.51816  0.47242  0.23655  1.0000
  C   C181      1.0  0.51023  0.18600  0.34490  1.0000
  N   N17       1.0  0.49014  0.04370  0.29821  1.0000
  H   H188      1.0  0.66565  0.50695  0.16232  1.0000
  C   C182      1.0  0.39292  0.37416  0.03844  1.0000
  H   H189      1.0  0.49877  0.20400  0.38775  1.0000
  H   H190      1.0  0.51781  0.17231  0.35935  1.0000
  H   H191      1.0  0.41643  0.28179  0.07212  1.0000
  C   C183      1.0  0.49947  0.06765  0.27219  1.0000
  C   C184      1.0  0.46521  0.45500  0.21961  1.0000
  C   C185      1.0  0.40425  0.02723  0.48669  1.0000
  S   S70       1.0  0.37758  0.35386  0.25099  1.0000
  C   C186      1.0  0.37666  0.36700  0.36311  1.0000
  H   H192      1.0  0.44861  0.45666  0.20323  1.0000
  H   H193      1.0  0.63948  0.48054  0.13148  1.0000
  H   H194      1.0  0.49797  0.25731  0.37719  1.0000
  N   N18       1.0  0.49029  0.22161  0.34271  1.0000
  H   H195      1.0  0.49950  0.20145  0.26505  1.0000
  S   S71       1.0  0.68561  0.06421  0.27211  1.0000
  H   H196      1.0  0.52434  0.08611  0.27483  1.0000
  C   C187      1.0  0.42308  0.25449  0.10956  1.0000
  Fe  Fe37      1.0  0.69038  0.04941  0.39578  1.0000
  C   C188      1.0  0.43411  0.48275  0.04323  1.0000
  S   S72       1.0  0.38648  0.07069  0.38101  1.0000
  C   C189      1.0  0.37953  0.38767  0.05811  1.0000
  C   C190      1.0  0.51216  0.04068  0.31597  1.0000
  H   H197      1.0  0.37138  0.21405  0.17083  1.0000
  H   H198      1.0  0.37129  0.39674  0.10835  1.0000
  C   C191      1.0  0.45914  0.02391  0.30396  1.0000
  S   S73       1.0  0.67990  0.11230  0.34933  1.0000
  C   C192      1.0  0.41044  0.23541  0.13745  1.0000
  C   C193      1.0  0.38096  0.22823  0.14860  1.0000
  H   H199      1.0  0.54306  0.48772  0.23331  1.0000
  S   S74       1.0  0.60678  0.51325  0.16212  1.0000
  H   H200      1.0  0.44631  0.26089  0.10119  1.0000
  H   H201      1.0  0.43330  0.03695  0.02784  1.0000
  Fe  Fe38      1.0  0.36417  0.40632  0.42667  1.0000
  H   H202      1.0  0.39550  0.04650  0.20652  1.0000
  C   C194      1.0  0.44851  0.03106  0.01415  1.0000
  C   C195      1.0  0.36919  0.37998  0.30685  1.0000
  H   H203      1.0  0.42371  0.22678  0.15097  1.0000
  H   H204      1.0  0.42197  0.44765  0.00580  1.0000
  H   H205      1.0  0.66868  0.05154  0.09815  1.0000
  H   H206      1.0  0.68762  0.04417  0.20584  1.0000
  C   C196      1.0  0.38162  0.38641  0.09291  1.0000
  H   H207      1.0  0.64002  0.03760  0.47473  1.0000
  H   H208      1.0  0.67680  0.02235  0.08120  1.0000
  C   C197      1.0  0.66399  0.02718  0.25265  1.0000
  H   H209      1.0  0.37181  0.28608  0.06541  1.0000
  C   C198      1.0  0.38999  0.02625  0.22182  1.0000
  H   H210      1.0  0.44175  0.02629  0.28981  1.0000
  C   C199      1.0  0.45612  0.51275  0.05383  1.0000
  C   C200      1.0  0.48766  0.51780  0.00612  1.0000
  H   H211      1.0  0.56798  0.02111  0.45749  1.0000
  H   H212      1.0  0.63730  0.51951  0.09773  1.0000
  H   H213      1.0  0.48810  0.49466  0.94850  1.0000
  H   H214      1.0  0.44413  0.50132  0.83047  1.0000
  S   S75       1.0  0.42227  0.49125  0.90083  1.0000
  H   H215      1.0  0.37206  0.05920  0.57758  1.0000
  S   S76       1.0  0.64907  0.13922  0.83710  1.0000
  S   S77       1.0  0.65766  0.06945  0.86025  1.0000
  Fe  Fe39      1.0  0.44587  0.35836  0.74143  1.0000
  S   S78       1.0  0.40750  0.31196  0.72249  1.0000
  S   S79       1.0  0.44789  0.38691  0.78587  1.0000
  Fe  Fe40      1.0  0.49031  0.36619  0.68666  1.0000
  S   S80       1.0  0.45620  0.32047  0.66364  1.0000
  S   S81       1.0  0.53546  0.39615  0.65972  1.0000
  Fe  Fe41      1.0  0.42075  0.33543  0.67205  1.0000
  S   S82       1.0  0.38836  0.32768  0.62832  1.0000
  Fe  Fe42      1.0  0.44626  0.30087  0.71561  1.0000
  S   S83       1.0  0.44369  0.25338  0.72046  1.0000
  S   S84       1.0  0.45575  0.38256  0.69175  1.0000
  S   S85       1.0  0.48369  0.34581  0.73784  1.0000
  Fe  Fe43      1.0  0.41867  0.07366  0.89181  1.0000
  S   S86       1.0  0.45192  0.05858  0.87450  1.0000
  C   C201      1.0  0.59060  0.03967  0.76993  1.0000
  Fe  Fe44      1.0  0.45268  0.13673  0.85340  1.0000
  S   S87       1.0  0.48875  0.12589  0.83400  1.0000
  S   S88       1.0  0.46063  0.18650  0.84914  1.0000
  Fe  Fe45      1.0  0.44815  0.07769  0.82505  1.0000
  S   S89       1.0  0.44950  0.05037  0.78124  1.0000
  Fe  Fe46      1.0  0.48900  0.10770  0.88503  1.0000
  S   S90       1.0  0.52994  0.11624  0.91680  1.0000
  S   S91       1.0  0.41149  0.08925  0.84113  1.0000
  S   S92       1.0  0.45614  0.12199  0.90565  1.0000
  C   C202      1.0  0.45482  0.20424  0.81325  1.0000
  C   C203      1.0  0.44765  0.18954  0.78223  1.0000
  C   C204      1.0  0.44398  0.20480  0.75424  1.0000
  C   C205      1.0  0.44717  0.23476  0.75692  1.0000
  C   C206      1.0  0.45438  0.24950  0.78793  1.0000
  C   C207      1.0  0.45830  0.23435  0.81588  1.0000
  H   H216      1.0  0.44492  0.16642  0.77977  1.0000
  H   H217      1.0  0.43847  0.19321  0.73036  1.0000
  H   H218      1.0  0.45678  0.27249  0.79041  1.0000
  H   H219      1.0  0.46369  0.24586  0.83980  1.0000
  C   C208      1.0  0.61496  0.12955  0.85925  1.0000
  C   C209      1.0  0.58838  0.12513  0.84207  1.0000
  C   C210      1.0  0.56154  0.11934  0.85957  1.0000
  C   C211      1.0  0.56156  0.11891  0.89434  1.0000
  C   C212      1.0  0.58795  0.12276  0.91148  1.0000
  C   C213      1.0  0.61449  0.12769  0.89395  1.0000
  H   H220      1.0  0.58859  0.12639  0.81521  1.0000
  H   H221      1.0  0.54121  0.11610  0.84613  1.0000
  H   H222      1.0  0.58806  0.12234  0.93837  1.0000
  H   H223      1.0  0.63493  0.13106  0.90734  1.0000
  C   C214      1.0  0.61411  0.47476  0.71967  1.0000
  C   C215      1.0  0.58688  0.45236  0.73569  1.0000
  C   C216      1.0  0.56212  0.42885  0.71729  1.0000
  C   C217      1.0  0.56488  0.42711  0.68290  1.0000
  C   C218      1.0  0.59203  0.44956  0.66686  1.0000
  C   C219      1.0  0.61644  0.47357  0.68514  1.0000
  H   H224      1.0  0.58489  0.45331  0.76237  1.0000
  H   H225      1.0  0.54115  0.41181  0.72983  1.0000
  H   H226      1.0  0.59429  0.44834  0.64025  1.0000
  H   H227      1.0  0.63737  0.49073  0.67261  1.0000
  S   S93       1.0  0.38199  0.04516  0.93043  1.0000
  S   S94       1.0  0.38302  0.41190  0.94460  1.0000
  C   C220      1.0  0.42686  0.44331  0.77902  1.0000
  C   C221      1.0  0.39645  0.41164  0.60201  1.0000
  H   H228      1.0  0.40657  0.43502  0.61217  1.0000
  H   H229      1.0  0.49357  0.05206  0.94599  1.0000
  N   N19       1.0  0.42266  0.45683  0.80671  1.0000
  C   C222      1.0  0.61310  0.06663  0.78620  1.0000
  H   H230      1.0  0.44038  0.34755  0.57138  1.0000
  C   C223      1.0  0.37194  0.40536  0.77784  1.0000
  H   H231      1.0  0.67546  0.08121  0.73869  1.0000
  C   C224      1.0  0.45312  0.44285  0.53649  1.0000
  C   C225      1.0  0.39192  0.38268  0.86043  1.0000
  C   C226      1.0  0.47022  0.47593  0.96454  1.0000
  H   H232      1.0  0.41379  0.51462  0.96389  1.0000
  H   H233      1.0  0.54017  0.21671  0.92326  1.0000
  H   H234      1.0  0.42244  0.04363  0.53584  1.0000
  C   C227      1.0  0.38098  0.40500  0.57117  1.0000
  H   H235      1.0  0.66149  0.10249  0.78748  1.0000
  H   H236      1.0  0.39105  0.05141  0.77657  1.0000
  C   C228      1.0  0.38559  0.35785  0.60712  1.0000
  C   C229      1.0  0.39906  0.38829  0.61976  1.0000
  H   H237      1.0  0.45001  0.45140  0.76918  1.0000
  H   H238      1.0  0.44289  0.07673  0.98976  1.0000
  H   H239      1.0  0.41113  0.39372  0.64338  1.0000
  C   C230      1.0  0.64373  0.08186  0.77470  1.0000
  C   C231      1.0  0.62836  0.04327  0.73125  1.0000
  C   C232      1.0  0.41782  0.39131  0.84006  1.0000
  C   C233      1.0  0.41566  0.37303  0.81255  1.0000
  C   C234      1.0  0.38757  0.34559  0.80586  1.0000
  C   C235      1.0  0.41702  0.03158  0.75481  1.0000
  H   H240      1.0  0.43948  0.41253  0.84532  1.0000
  C   C236      1.0  0.36795  0.37470  0.55827  1.0000
  C   C237      1.0  0.45276  0.37285  0.57424  1.0000
  H   H241      1.0  0.40524  0.40620  0.74287  1.0000
  Fe  Fe47      1.0  0.37918  0.45267  0.92521  1.0000
  C   C238      1.0  0.45952  0.07337  0.97425  1.0000
  S   S95       1.0  0.64775  0.04378  0.95085  1.0000
  H   H242      1.0  0.49314  0.46225  0.58700  1.0000
  N   N20       1.0  0.59836  0.02842  0.74273  1.0000
  H   H243      1.0  0.44989  0.06849  0.94864  1.0000
  H   H244      1.0  0.50646  0.42999  0.62394  1.0000
  N   N21       1.0  0.46339  0.04728  0.98603  1.0000
  H   H245      1.0  0.38572  0.33138  0.78464  1.0000
  C   C239      1.0  0.44593  0.39158  0.55354  1.0000
  H   H246      1.0  0.47047  0.49351  0.80736  1.0000
  N   N22       1.0  0.46023  0.42328  0.55836  1.0000
  Fe  Fe48      1.0  0.67828  0.12145  0.86161  1.0000
  C   C240      1.0  0.47471  0.38681  0.59956  1.0000
  N   N23       1.0  0.53540  0.32250  0.71056  1.0000
  C   C241      1.0  0.55730  0.35331  0.71527  1.0000
  C   C242      1.0  0.52399  0.30244  0.73707  1.0000
  C   C243      1.0  0.56695  0.36514  0.74736  1.0000
  C   C244      1.0  0.53291  0.31348  0.76951  1.0000
  C   C245      1.0  0.55434  0.34513  0.77464  1.0000
  C   C246      1.0  0.52493  0.31065  0.67685  1.0000
  H   H247      1.0  0.56701  0.36907  0.69421  1.0000
  H   H248      1.0  0.50742  0.27782  0.73325  1.0000
  H   H249      1.0  0.58372  0.38980  0.75096  1.0000
  H   H250      1.0  0.52282  0.29760  0.79046  1.0000
  H   H251      1.0  0.56108  0.35415  0.79968  1.0000
  H   H252      1.0  0.53992  0.30205  0.66621  1.0000
  H   H253      1.0  0.50029  0.29113  0.67699  1.0000
  H   H254      1.0  0.52563  0.32927  0.66044  1.0000
  N   N24       1.0  0.55056  0.19603  0.88282  1.0000
  C   C247      1.0  0.57595  0.19359  0.89191  1.0000
  C   C248      1.0  0.54560  0.20025  0.85017  1.0000
  C   C249      1.0  0.59695  0.19485  0.86797  1.0000
  C   C250      1.0  0.56584  0.20104  0.82550  1.0000
  C   C251      1.0  0.59161  0.19822  0.83454  1.0000
  C   C252      1.0  0.52909  0.19477  0.90854  1.0000
  H   H255      1.0  0.57953  0.18959  0.91770  1.0000
  H   H256      1.0  0.52546  0.20220  0.84290  1.0000
  H   H257      1.0  0.61651  0.19186  0.87517  1.0000
  H   H258      1.0  0.56120  0.20329  0.79955  1.0000
  H   H259      1.0  0.60716  0.19805  0.81570  1.0000
  H   H260      1.0  0.50705  0.19180  0.89768  1.0000
  H   H261      1.0  0.52267  0.17445  0.92536  1.0000
  H   H262      1.0  0.48236  0.09544  0.97405  1.0000
  Fe  Fe49      1.0  0.67911  0.07576  0.91088  1.0000
  H   H263      1.0  0.39378  0.39740  0.88101  1.0000
  C   C253      1.0  0.48182  0.43715  0.58317  1.0000
  H   H264      1.0  0.48016  0.37257  0.61584  1.0000
  C   C254      1.0  0.39366  0.44513  0.82029  1.0000
  C   C255      1.0  0.65148  0.07013  0.74711  1.0000
  H   H265      1.0  0.56694  0.02767  0.77933  1.0000
  C   C256      1.0  0.48942  0.41913  0.60412  1.0000
  H   H266      1.0  0.39054  0.45535  0.84275  1.0000
  H   H267      1.0  0.69110  0.10928  0.98839  1.0000
  C   C257      1.0  0.40153  0.41763  0.76397  1.0000
  C   C258      1.0  0.39095  0.03535  0.75829  1.0000
  S   S96       1.0  0.64525  0.50327  0.74342  1.0000
  H   H268      1.0  0.44835  0.46467  0.94970  1.0000
  C   C259      1.0  0.48171  0.03907  0.96825  1.0000
  H   H269      1.0  0.42843  0.38042  0.53427  1.0000
  H   H270      1.0  0.63478  0.03389  0.71029  1.0000
  C   C260      1.0  0.36995  0.35117  0.57638  1.0000
  H   H271      1.0  0.44801  0.45871  0.55146  1.0000
  H   H272      1.0  0.43202  0.42853  0.52104  1.0000
  C   C261      1.0  0.40750  0.02337  0.52088  1.0000
  H   H273      1.0  0.60703  0.07552  0.80790  1.0000
  C   C262      1.0  0.36789  0.41919  0.80615  1.0000
  C   C263      1.0  0.44948  0.48266  0.82343  1.0000
  C   C264      1.0  0.68007  0.02542  0.77405  1.0000
  S   S97       1.0  0.37912  0.43542  0.54939  1.0000
  H   H274      1.0  0.47303  0.45700  0.51969  1.0000
  H   H275      1.0  0.45497  0.47383  0.84650  1.0000
  C   C265      1.0  0.36380  0.35532  0.85392  1.0000
  H   H276      1.0  0.47740  0.45833  0.97026  1.0000
  H   H277      1.0  0.36923  0.06844  0.51737  1.0000
  C   C266      1.0  0.69075  0.02856  0.97538  1.0000
  N   N25       1.0  0.46555  0.48869  0.99544  1.0000
  C   C267      1.0  0.69228  0.03240  0.51418  1.0000
  C   C268      1.0  0.65966  0.02159  0.97463  1.0000
  C   C269      1.0  0.66433  0.84118  0.49002  1.0000
  Fe  Fe50      1.0  0.57725  0.65311  0.48257  1.0000
  S   S98       1.0  0.57642  0.68293  0.44070  1.0000
  C   C270      1.0  0.63148  0.80648  0.00367  1.0000
  H   H278      1.0  0.46992  0.95013  0.16736  1.0000
  S   S99       1.0  0.64957  0.73245  0.45931  1.0000
  C   C271      1.0  0.48549  0.55253  0.48565  1.0000
  Fe  Fe51      1.0  0.60252  0.72368  0.47581  1.0000
  S   S100      1.0  0.59227  0.76397  0.47818  1.0000
  Fe  Fe52      1.0  0.62344  0.68929  0.42752  1.0000
  S   S101      1.0  0.63339  0.68682  0.37272  1.0000
  H   H279      1.0  0.63115  0.65383  0.04979  1.0000
  S   S102      1.0  0.62234  0.65655  0.46701  1.0000
  Fe  Fe53      1.0  0.60862  0.86951  0.09688  1.0000
  S   S103      1.0  0.60899  0.89903  0.05397  1.0000
  S   S104      1.0  0.59793  0.81879  0.09166  1.0000
  Fe  Fe54      1.0  0.61820  0.92036  0.14844  1.0000
  S   S105      1.0  0.62030  0.95354  0.10891  1.0000
  S   S106      1.0  0.61519  0.93006  0.20334  1.0000
  Fe  Fe55      1.0  0.57972  0.91142  0.08616  1.0000
  S   S107      1.0  0.54121  0.91828  0.06516  1.0000
  Fe  Fe56      1.0  0.64934  0.93841  0.08057  1.0000
  C   C272      1.0  0.67037  0.97706  0.47791  1.0000
  S   S108      1.0  0.57563  0.87870  0.12706  1.0000
  S   S109      1.0  0.65114  0.90838  0.12210  1.0000
  S   S110      1.0  0.40743  0.94686  0.10795  1.0000
  Fe  Fe57      1.0  0.38816  0.89877  0.12974  1.0000
  S   S111      1.0  0.41906  0.88025  0.14858  1.0000
  Fe  Fe58      1.0  0.64797  0.55367  0.18726  1.0000
  S   S112      1.0  0.64560  0.59360  0.21086  1.0000
  H   H280      1.0  0.63632  0.00302  0.29539  1.0000
  H   H281      1.0  0.36617  0.52928  0.43898  1.0000
  N   N26       1.0  0.67968  0.52141  0.11274  1.0000
  H   H282      1.0  0.36638  0.52566  0.37759  1.0000
  C   C273      1.0  0.48597  0.94331  0.17778  1.0000
  H   H283      1.0  0.43863  0.99197  0.04641  1.0000
  H   H284      1.0  0.64946  0.64124  0.40011  1.0000
  C   C274      1.0  0.63296  0.96805  0.22092  1.0000
  C   C275      1.0  0.62593  0.97149  0.25391  1.0000
  H   H285      1.0  0.60892  0.95118  0.26757  1.0000
  H   H286      1.0  0.52046  0.96672  0.14002  1.0000
  H   H287      1.0  0.42476  0.98581  0.33367  1.0000
  H   H288      1.0  0.63020  0.96541  0.03473  1.0000
  C   C276      1.0  0.45155  0.88856  0.12372  1.0000
  C   C277      1.0  0.45821  0.90695  0.09505  1.0000
  C   C278      1.0  0.48556  0.91547  0.07707  1.0000
  C   C279      1.0  0.50651  0.90581  0.08767  1.0000
  C   C280      1.0  0.49969  0.88707  0.11611  1.0000
  C   C281      1.0  0.47219  0.87835  0.13399  1.0000
  H   H289      1.0  0.44229  0.91463  0.08670  1.0000
  H   H290      1.0  0.49056  0.92970  0.05490  1.0000
  H   H291      1.0  0.51550  0.87923  0.12430  1.0000
  H   H292      1.0  0.46708  0.86401  0.15608  1.0000
  C   C282      1.0  0.64497  0.66150  0.35434  1.0000
  C   C283      1.0  0.64773  0.66155  0.31958  1.0000
  C   C284      1.0  0.65667  0.64174  0.30384  1.0000
  C   C285      1.0  0.66293  0.62160  0.32278  1.0000
  C   C286      1.0  0.65119  0.64132  0.37332  1.0000
  H   H293      1.0  0.64300  0.67710  0.30468  1.0000
  H   H294      1.0  0.65874  0.64212  0.27706  1.0000
  C   C287      1.0  0.66919  0.64537  0.04097  1.0000
  C   C288      1.0  0.64992  0.65175  0.06083  1.0000
  Fe  Fe59      1.0  0.67980  0.59424  0.24806  1.0000
  C   C289      1.0  0.36832  0.97113  0.48274  1.0000
  H   H295      1.0  0.38226  0.00347  0.44123  1.0000
  C   C290      1.0  0.67584  0.75267  0.10741  1.0000
  C   C291      1.0  0.66316  0.94416  0.31276  1.0000
  C   C292      1.0  0.51821  0.56239  0.39420  1.0000
  C   C293      1.0  0.62509  0.82062  0.03062  1.0000
  C   C294      1.0  0.60758  0.80242  0.05757  1.0000
  C   C295      1.0  0.59666  0.76997  0.05724  1.0000
  C   C296      1.0  0.60283  0.75579  0.03016  1.0000
  Fe  Fe60      1.0  0.64439  0.69877  0.50011  1.0000
  H   H296      1.0  0.66061  0.99214  0.17813  1.0000
  H   H297      1.0  0.58308  0.75567  0.07798  1.0000
  C   C297      1.0  0.56843  0.00945  0.48027  1.0000
  C   C298      1.0  0.45101  0.54768  0.44011  1.0000
  C   C299      1.0  0.47071  0.57946  0.43247  1.0000
  C   C300      1.0  0.49812  0.59758  0.45097  1.0000
  C   C301      1.0  0.50567  0.58402  0.47745  1.0000
  C   C302      1.0  0.64150  0.00085  0.26980  1.0000
  H   H298      1.0  0.64083  0.66179  0.11035  1.0000
  H   H299      1.0  0.46507  0.58998  0.41187  1.0000
  H   H300      1.0  0.51342  0.62193  0.44465  1.0000
  S   S113      1.0  0.37699  0.00313  0.31948  1.0000
  C   C303      1.0  0.48317  0.53037  0.03529  1.0000
  S   S114      1.0  0.38397  0.99593  0.16330  1.0000
  H   H301      1.0  0.57591  0.59092  0.44920  1.0000
  C   C304      1.0  0.50599  0.57217  0.36835  1.0000
  C   C305      1.0  0.37669  0.97197  0.22672  1.0000
  C   C306      1.0  0.69403  0.73571  0.00890  1.0000
  C   C307      1.0  0.66015  0.62149  0.35757  1.0000
  C   C308      1.0  0.53804  0.78790  0.03101  1.0000
  C   C309      1.0  0.68638  0.00610  0.46162  1.0000
  H   H302      1.0  0.54122  0.91506  0.21084  1.0000
  H   H303      1.0  0.58046  0.81458  0.49013  1.0000
  H   H304      1.0  0.58260  0.97148  0.17020  1.0000
  C   C310      1.0  0.65495  0.99447  0.20352  1.0000
  Fe  Fe61      1.0  0.37178  0.94987  0.13938  1.0000
  C   C311      1.0  0.38501  0.00085  0.46755  1.0000
  H   H305      1.0  0.51503  0.60993  0.33452  1.0000
  S   S115      1.0  0.69070  0.00760  0.41826  1.0000
  H   H306      1.0  0.67235  0.80250  0.49841  1.0000
  Fe  Fe62      1.0  0.36912  0.92403  0.07006  1.0000
  N   N27       1.0  0.54766  0.58178  0.40601  1.0000
  H   H307      1.0  0.48217  0.55713  0.36000  1.0000
  H   H308      1.0  0.45211  0.52243  0.07619  1.0000
  N   N28       1.0  0.59324  0.00533  0.48746  1.0000
  C   C312      1.0  0.38385  0.99808  0.20685  1.0000
  C   C313      1.0  0.64718  0.98278  0.01816  1.0000
  H   H309      1.0  0.50356  0.53961  0.40550  1.0000
  H   H310      1.0  0.66247  0.93148  0.26133  1.0000
  C   C314      1.0  0.56323  0.95115  0.15731  1.0000
  C   C315      1.0  0.44945  0.00089  0.32870  1.0000
  H   H311      1.0  0.54142  0.55376  0.44912  1.0000
  H   H312      1.0  0.65871  0.78103  0.08458  1.0000
  H   H313      1.0  0.36871  0.95340  0.27660  1.0000
  H   H314      1.0  0.52098  0.01688  0.35617  1.0000
  S   S116      1.0  0.69073  0.97446  0.05172  1.0000
  S   S117      1.0  0.38313  0.93608  0.01573  1.0000
  C   C316      1.0  0.56029  0.57108  0.43282  1.0000
  H   H315      1.0  0.62577  0.99798  0.46033  1.0000
  H   H316      1.0  0.65687  0.83469  0.46445  1.0000
  C   C317      1.0  0.66907  0.76635  0.08053  1.0000
  C   C318      1.0  0.67553  0.76081  0.04825  1.0000
  C   C319      1.0  0.55450  0.62114  0.36603  1.0000
  H   H317      1.0  0.66505  0.60607  0.37245  1.0000
  H   H318      1.0  0.64448  0.92121  0.32009  1.0000
  S   S118      1.0  0.67480  0.59666  0.30409  1.0000
  H   H319      1.0  0.67068  0.75648  0.13258  1.0000
  C   C320      1.0  0.56593  0.61063  0.39196  1.0000
  H   H320      1.0  0.56906  0.64425  0.35529  1.0000
  C   C321      1.0  0.67977  0.65368  0.10984  1.0000
  H   H321      1.0  0.50016  0.55407  0.04274  1.0000
  H   H322      1.0  0.56245  0.95704  0.13071  1.0000
  H   H323      1.0  0.37218  0.95026  0.21546  1.0000
  C   C322      1.0  0.65532  0.65609  0.09519  1.0000
  H   H324      1.0  0.56817  0.93146  0.15759  1.0000
  H   H325      1.0  0.63371  0.84561  0.03053  1.0000
  H   H326      1.0  0.45425  0.91463  0.21610  1.0000
  C   C323      1.0  0.38025  0.00180  0.27621  1.0000
  C   C324      1.0  0.67843  0.99059  0.02004  1.0000
  H   H327      1.0  0.49034  0.89733  0.23841  1.0000
  C   C325      1.0  0.52427  0.60182  0.35431  1.0000
  H   H328      1.0  0.66170  0.95564  0.46382  1.0000
  C   C326      1.0  0.47713  0.92324  0.20518  1.0000
  H   H329      1.0  0.58943  0.62584  0.40090  1.0000
  C   C327      1.0  0.45826  0.53441  0.46707  1.0000
  H   H330      1.0  0.52341  0.00157  0.49630  1.0000
  H   H331      1.0  0.59414  0.73079  0.03025  1.0000
  H   H332      1.0  0.57361  0.56053  0.42222  1.0000
  C   C328      1.0  0.37469  0.97379  0.26134  1.0000
  N   N29       1.0  0.53366  0.94188  0.17397  1.0000
  C   C329      1.0  0.52572  0.92310  0.20154  1.0000
  C   C330      1.0  0.51446  0.95238  0.16229  1.0000
  C   C331      1.0  0.49719  0.91324  0.21738  1.0000
  H   H333      1.0  0.66916  0.96422  0.36174  1.0000
  C   C332      1.0  0.45150  0.00561  0.02489  1.0000
  H   H334      1.0  0.47094  0.97607  0.01398  1.0000
  S   S119      1.0  0.67878  0.55141  0.22677  1.0000
  H   H335      1.0  0.46449  0.98125  0.36770  1.0000
  H   H336      1.0  0.52679  0.77802  0.05460  1.0000
  C   C333      1.0  0.47174  0.99836  0.34775  1.0000
  H   H337      1.0  0.54875  0.83475  0.04352  1.0000
  C   C334      1.0  0.50333  0.01826  0.34128  1.0000
  C   C335      1.0  0.36782  0.98263  0.00447  1.0000
  C   C336      1.0  0.67687  0.55611  0.07229  1.0000
  C   C337      1.0  0.46952  0.99657  0.00652  1.0000
  C   C338      1.0  0.67685  0.96826  0.33604  1.0000
  C   C339      1.0  0.67344  0.94982  0.27989  1.0000
  S   S120      1.0  0.54067  0.60503  0.49998  1.0000
  C   C340      1.0  0.55058  0.81985  0.02488  1.0000
  S   S121      1.0  0.41852  0.52453  0.41458  1.0000
  C   C341      1.0  0.69298  0.64191  0.05581  1.0000
  Fe  Fe63      1.0  0.68808  0.62385  0.18038  1.0000
  S   S122      1.0  0.68915  0.66364  0.15181  1.0000
  C   C342      1.0  0.54318  0.99853  0.50215  1.0000
  S   S123      1.0  0.68775  0.58408  0.15361  1.0000
  H   H338      1.0  0.66319  0.56413  0.05854  1.0000
  C   C343      1.0  0.66236  0.53081  0.09441  1.0000
  C   C344      1.0  0.69539  0.72897  0.06910  1.0000
  H   H339      1.0  0.67052  0.77175  0.02751  1.0000
  C   C345      1.0  0.68934  0.73406  0.10175  1.0000
  C   C346      1.0  0.61950  0.01647  0.46442  1.0000
  H   H340      1.0  0.53205  0.74442  0.01249  1.0000
  N   N30       1.0  0.68782  0.74172  0.04286  1.0000
  H   H341      1.0  0.69465  0.72318  0.12245  1.0000
  H   H342      1.0  0.68688  0.71055  0.00582  1.0000
  C   C347      1.0  0.54137  0.76913  0.00722  1.0000
  H   H343      1.0  0.65615  0.88014  0.48984  1.0000
  C   C348      1.0  0.44096  0.83776  0.58862  1.0000
  Fe  Fe64      1.0  0.56270  0.63786  0.96826  1.0000
  S   S124      1.0  0.57297  0.67327  0.92780  1.0000
  H   H344      1.0  0.46869  0.84147  0.63131  1.0000
  H   H345      1.0  0.54080  0.75375  0.93498  1.0000
  S   S125      1.0  0.64628  0.69227  0.93568  1.0000
  C   C349      1.0  0.54364  0.98366  0.53161  1.0000
  Fe  Fe65      1.0  0.61360  0.70582  0.96019  1.0000
  C   C350      1.0  0.39838  0.83632  0.63415  1.0000
  Fe  Fe66      1.0  0.60464  0.65663  0.90711  1.0000
  S   S126      1.0  0.60147  0.64014  0.85365  1.0000
  H   H346      1.0  0.63216  0.61136  0.66728  1.0000
  S   S127      1.0  0.59104  0.61882  0.94555  1.0000
  Fe  Fe67      1.0  0.60390  0.88883  0.61109  1.0000
  S   S128      1.0  0.59719  0.91480  0.56866  1.0000
  S   S129      1.0  0.61201  0.84727  0.60631  1.0000
  Fe  Fe68      1.0  0.60168  0.93283  0.66384  1.0000
  S   S130      1.0  0.59450  0.96174  0.62545  1.0000
  S   S131      1.0  0.59932  0.94386  0.71824  1.0000
  Fe  Fe69      1.0  0.56121  0.91623  0.60138  1.0000
  S   S132      1.0  0.51703  0.90990  0.57760  1.0000
  Fe  Fe70      1.0  0.63099  0.95809  0.59621  1.0000
  H   H347      1.0  0.40901  0.00505  0.91857  1.0000
  S   S133      1.0  0.56501  0.88685  0.64194  1.0000
  S   S134      1.0  0.64101  0.93255  0.63647  1.0000
  H   H348      1.0  0.49105  0.54201  0.50632  1.0000
  H   H349      1.0  0.64734  0.01283  0.81420  1.0000
  S   S135      1.0  0.41598  0.90749  0.67377  1.0000
  C   C351      1.0  0.44692  0.52438  0.92473  1.0000
  S   S136      1.0  0.66346  0.58085  0.70408  1.0000
  H   H350      1.0  0.60327  0.59105  0.61471  1.0000
  S   S137      1.0  0.37781  0.95137  0.62909  1.0000
  C   C352      1.0  0.63210  0.58995  0.87875  1.0000
  C   C353      1.0  0.37070  0.96744  0.51713  1.0000
  H   H351      1.0  0.52411  0.97460  0.54874  1.0000
  C   C354      1.0  0.67561  0.00346  0.53038  1.0000
  C   C355      1.0  0.39695  0.97460  0.96138  1.0000
  C   C356      1.0  0.63112  0.97474  0.73949  1.0000
  C   C357      1.0  0.62679  0.98203  0.77207  1.0000
  H   H352      1.0  0.60449  0.96805  0.78409  1.0000
  C   C358      1.0  0.39085  0.99364  0.53606  1.0000
  H   H353      1.0  0.48481  0.54060  0.88983  1.0000
  H   H354      1.0  0.57010  0.96907  0.56192  1.0000
  C   C359      1.0  0.44635  0.91383  0.64670  1.0000
  C   C360      1.0  0.44250  0.91375  0.61225  1.0000
  C   C361      1.0  0.46516  0.91411  0.59107  1.0000
  C   C362      1.0  0.49169  0.91463  0.60428  1.0000
  C   C363      1.0  0.49634  0.91640  0.63868  1.0000
  C   C364      1.0  0.47366  0.91600  0.65984  1.0000
  H   H355      1.0  0.42154  0.91220  0.60195  1.0000
  H   H356      1.0  0.46152  0.91281  0.56445  1.0000
  H   H357      1.0  0.51683  0.91694  0.64903  1.0000
  H   H358      1.0  0.47681  0.91631  0.68650  1.0000
  C   C365      1.0  0.63311  0.64479  0.82900  1.0000
  C   C366      1.0  0.62682  0.62724  0.79963  1.0000
  C   C367      1.0  0.65122  0.62917  0.78000  1.0000
  C   C368      1.0  0.68825  0.61687  0.87789  1.0000
  H   H359      1.0  0.39044  0.97717  0.69330  1.0000
  H   H360      1.0  0.60289  0.61179  0.79223  1.0000
  H   H361      1.0  0.64602  0.61531  0.75767  1.0000
  C   C369      1.0  0.58798  0.80941  0.51343  1.0000
  C   C370      1.0  0.65821  0.56588  0.80254  1.0000
  H   H362      1.0  0.55962  0.74117  0.96513  1.0000
  C   C371      1.0  0.67698  0.62282  0.58686  1.0000
  H   H363      1.0  0.58289  0.99467  0.70322  1.0000
  C   C372      1.0  0.57445  0.99962  0.72677  1.0000
  C   C373      1.0  0.66061  0.61088  0.89332  1.0000
  N   N31       1.0  0.55711  0.78196  0.97828  1.0000
  C   C374      1.0  0.59208  0.82814  0.54150  1.0000
  C   C375      1.0  0.60256  0.82213  0.57150  1.0000
  C   C376      1.0  0.60790  0.79664  0.57340  1.0000
  C   C377      1.0  0.60377  0.77789  0.54536  1.0000
  C   C378      1.0  0.39054  0.99370  0.71085  1.0000
  H   H364      1.0  0.58767  0.84753  0.53974  1.0000
  H   H365      1.0  0.61590  0.79175  0.59654  1.0000
  H   H366      1.0  0.60862  0.75880  0.54699  1.0000
  H   H367      1.0  0.62166  0.68257  0.58797  1.0000
  N   N32       1.0  0.36584  0.97887  0.81975  1.0000
  C   C379      1.0  0.49792  0.57067  0.93270  1.0000
  C   C380      1.0  0.48829  0.57633  0.96323  1.0000
  C   C381      1.0  0.45771  0.55634  0.97410  1.0000
  C   C382      1.0  0.66471  0.97572  0.51225  1.0000
  H   H368      1.0  0.42242  0.85309  0.69404  1.0000
  H   H369      1.0  0.52137  0.58613  0.92399  1.0000
  S   S138      1.0  0.59921  0.69301  0.51878  1.0000
  C   C383      1.0  0.39372  0.97945  0.81787  1.0000
  H   H370      1.0  0.65086  0.70379  0.64036  1.0000
  N   N33       1.0  0.65886  0.58143  0.83379  1.0000
  H   H371      1.0  0.58279  0.77474  0.94023  1.0000
  C   C384      1.0  0.56941  0.98038  0.53904  1.0000
  Fe  Fe71      1.0  0.37442  0.90770  0.65079  1.0000
  C   C385      1.0  0.44674  0.83905  0.62281  1.0000
  N   N34       1.0  0.67109  0.87352  0.53747  1.0000
  C   C386      1.0  0.63790  0.99842  0.99572  1.0000
  H   H372      1.0  0.59072  0.60062  0.56041  1.0000
  S   S139      1.0  0.60112  0.67152  0.00209  1.0000
  C   C387      1.0  0.66411  0.66489  0.83820  1.0000
  C   C388      1.0  0.36434  0.99713  0.71438  1.0000
  S   S140      1.0  0.51465  0.60664  0.98937  1.0000
  C   C389      1.0  0.41333  0.83575  0.57728  1.0000
  C   C390      1.0  0.68089  0.83046  0.54252  1.0000
  C   C391      1.0  0.47719  0.54486  0.91341  1.0000
  N   N35       1.0  0.61039  0.63554  0.59851  1.0000
  C   C392      1.0  0.41690  0.01111  0.73074  1.0000
  H   H373      1.0  0.66375  0.98740  0.69925  1.0000
  Fe  Fe72      1.0  0.67951  0.54652  0.71531  1.0000
  H   H374      1.0  0.56790  0.97924  0.74353  1.0000
  S   S141      1.0  0.66764  0.00298  0.57291  1.0000
  C   C393      1.0  0.39761  0.99907  0.94245  1.0000
  H   H375      1.0  0.37044  0.83378  0.59159  1.0000
  H   H376      1.0  0.65622  0.66804  0.68056  1.0000
  C   C394      1.0  0.48498  0.01353  0.97814  1.0000
  H   H377      1.0  0.68689  0.92232  0.54087  1.0000
  C   C395      1.0  0.63997  0.67891  0.63524  1.0000
  C   C396      1.0  0.63163  0.57518  0.84892  1.0000
  C   C397      1.0  0.43716  0.53017  0.95510  1.0000
  H   H378      1.0  0.61381  0.99292  0.99518  1.0000
  S   S142      1.0  0.62910  0.75751  0.96857  1.0000
  H   H379      1.0  0.60936  0.55949  0.83746  1.0000
  C   C398      1.0  0.68224  0.64914  0.78930  1.0000
  H   H380      1.0  0.45758  0.85271  0.68591  1.0000
  H   H381      1.0  0.67556  0.58302  0.78485  1.0000
  C   C399      1.0  0.43210  0.84001  0.68081  1.0000
  C   C400      1.0  0.38282  0.01508  0.95414  1.0000
  C   C401      1.0  0.65105  0.00741  0.78920  1.0000
  C   C402      1.0  0.66581  0.64732  0.54031  1.0000
  C   C403      1.0  0.59266  0.62329  0.56760  1.0000
  C   C404      1.0  0.62336  0.66674  0.60564  1.0000
  H   H382      1.0  0.65072  0.59812  0.54348  1.0000
  C   C405      1.0  0.66350  0.62064  0.55563  1.0000
  H   H383      1.0  0.68064  0.74111  0.99027  1.0000
  H   H384      1.0  0.66926  0.67871  0.86059  1.0000
  H   H385      1.0  0.42076  0.96269  0.79212  1.0000
  S   S143      1.0  0.67065  0.58818  0.60629  1.0000
  C   C406      1.0  0.68853  0.66726  0.81824  1.0000
  H   H386      1.0  0.60444  0.63973  0.54665  1.0000
  C   C407      1.0  0.38214  0.96628  0.99249  1.0000
  C   C408      1.0  0.61303  0.61569  0.62052  1.0000
  C   C409      1.0  0.36787  0.00667  0.98517  1.0000
  C   C410      1.0  0.68160  0.67637  0.55608  1.0000
  H   H387      1.0  0.66372  0.54687  0.80714  1.0000
  C   C411      1.0  0.66012  0.99280  0.72431  1.0000
  C   C412      1.0  0.62943  0.62706  0.65036  1.0000
  H   H388      1.0  0.56887  0.62000  0.57029  1.0000
  H   H389      1.0  0.65194  0.95334  0.52465  1.0000
  H   H390      1.0  0.65513  0.64527  0.51639  1.0000
  H   H391      1.0  0.45840  0.83952  0.57111  1.0000
  H   H392      1.0  0.41299  0.99467  0.83396  1.0000
  H   H393      1.0  0.40812  0.96210  0.95197  1.0000
  Fe  Fe73      1.0  0.63046  0.65542  0.97555  1.0000
  H   H394      1.0  0.61051  0.58607  0.88985  1.0000
  C   C413      1.0  0.56911  0.81322  0.97184  1.0000
  H   H395      1.0  0.39310  0.99113  0.56247  1.0000
  C   C414      1.0  0.68694  0.60186  0.84793  1.0000
  H   H396      1.0  0.67310  0.90116  0.57957  1.0000
  H   H397      1.0  0.66125  0.62296  0.91613  1.0000
  H   H398      1.0  0.40892  0.83553  0.55081  1.0000
  S   S144      1.0  0.68141  0.70922  0.53895  1.0000
  H   H399      1.0  0.64563  0.89656  0.54822  1.0000
  C   C415      1.0  0.64301  0.65888  0.65771  1.0000
  C   C416      1.0  0.66928  0.89978  0.55220  1.0000
  H   H400      1.0  0.63516  0.55557  0.78996  1.0000
  Fe  Fe74      1.0  0.69066  0.58951  0.65694  1.0000
  C   C417      1.0  0.39830  0.96138  0.79421  1.0000
  C   C418      1.0  0.59416  0.99145  0.51664  1.0000
  C   C419      1.0  0.68455  0.01789  0.74164  1.0000
  H   H401      1.0  0.55341  0.00136  0.72086  1.0000
  N   N36       1.0  0.42575  0.83875  0.64504  1.0000
  H   H402      1.0  0.68670  0.81587  0.55782  1.0000
  H   H403      1.0  0.68450  0.86063  0.58274  1.0000
  C   C420      1.0  0.67968  0.85587  0.55642  1.0000
  C   C421      1.0  0.56006  0.76192  0.95338  1.0000
  C   C422      1.0  0.39179  0.83485  0.60014  1.0000
  C   C423      1.0  0.36465  0.01824  0.73790  1.0000
  C   C424      1.0  0.69378  0.65202  0.60231  1.0000
  H   H404      1.0  0.37906  0.00642  0.86434  1.0000
  C   C425      1.0  0.59426  0.78451  0.51506  1.0000
  H   H405      1.0  0.58153  0.82340  0.94888  1.0000
  H   H406      1.0  0.45010  0.56074  0.99761  1.0000
  H   H407      1.0  0.49906  0.00670  0.96365  1.0000
  H   H408      1.0  0.42156  0.81593  0.69113  1.0000
  H   H409      1.0  0.61405  0.98873  0.52274  1.0000
  H   H410      1.0  0.57621  0.85757  0.99027  1.0000
  C   C426      1.0  0.56613  0.83265  0.99507  1.0000
  H   H411      1.0  0.38194  0.83658  0.65175  1.0000
  H   H412      1.0  0.43697  0.00805  0.72803  1.0000
  H   H413      1.0  0.36450  0.00374  0.61396  1.0000
  H   H414      1.0  0.50838  0.53210  0.99147  1.0000
  S   S145      1.0  0.66527  0.64343  0.99746  1.0000
  C   C427      1.0  0.66367  0.86661  0.50462  1.0000
  H   H415      1.0  0.64518  0.82084  0.98302  1.0000
  C   C428      1.0  0.37429  0.94297  0.77213  1.0000
  H   H416      1.0  0.37793  0.92975  0.75286  1.0000
  H   H417      1.0  0.36382  0.01979  0.83124  1.0000
  C   C429      1.0  0.67297  0.82302  0.50915  1.0000
  C   C430      1.0  0.62028  0.77401  0.00318  1.0000
  C   C431      1.0  0.73171  0.10856  0.00698  1.0000
  S   S146      1.0  0.91636  0.32097  0.48504  1.0000
  S   S147      1.0  0.72600  0.08271  0.35954  1.0000
  C   C432      1.0  0.77743  0.24920  0.47697  1.0000
  C   C433      1.0  0.98825  0.37050  0.21623  1.0000
  C   C434      1.0  0.75264  0.22102  0.46514  1.0000
  S   S148      1.0  0.01030  0.35676  0.49577  1.0000
  Fe  Fe75      1.0  0.71889  0.11963  0.38441  1.0000
  S   S149      1.0  0.75705  0.17030  0.39416  1.0000
  H   H418      1.0  0.99081  0.42594  0.12779  1.0000
  N   N37       1.0  0.97539  0.42459  0.47363  1.0000
  N   N38       1.0  0.74320  0.19360  0.48217  1.0000
  H   H419      1.0  0.95877  0.32027  0.21527  1.0000
  Fe  Fe76      1.0  0.92664  0.37106  0.06413  1.0000
  S   S150      1.0  0.91201  0.32336  0.08483  1.0000
  S   S151      1.0  0.92828  0.41041  0.09411  1.0000
  Fe  Fe77      1.0  0.95975  0.33306  0.07063  1.0000
  S   S152      1.0  0.98971  0.32466  0.10779  1.0000
  Fe  Fe78      1.0  0.89766  0.30591  0.03219  1.0000
  H   H420      1.0  0.78563  0.27069  0.46281  1.0000
  S   S153      1.0  0.97500  0.38147  0.05303  1.0000
  H   H421      1.0  0.88290  0.39427  0.04089  1.0000
  C   C435      1.0  0.78723  0.18556  0.42460  1.0000
  C   C436      1.0  0.78886  0.16696  0.45006  1.0000
  C   C437      1.0  0.81115  0.18079  0.47570  1.0000
  C   C438      1.0  0.83214  0.21330  0.47618  1.0000
  C   C439      1.0  0.83124  0.23171  0.45008  1.0000
  C   C440      1.0  0.80889  0.21790  0.42449  1.0000
  H   H422      1.0  0.77260  0.14202  0.45035  1.0000
  H   H423      1.0  0.01841  0.32301  0.16964  1.0000
  H   H424      1.0  0.84731  0.25670  0.44998  1.0000
  H   H425      1.0  0.80798  0.23248  0.40480  1.0000
  C   C441      1.0  0.88532  0.46468  0.04624  1.0000
  H   H426      1.0  0.76715  0.10164  0.03023  1.0000
  C   C442      1.0  0.88944  0.41742  0.04987  1.0000
  C   C443      1.0  0.91052  0.43036  0.07626  1.0000
  C   C444      1.0  0.91841  0.46017  0.08811  1.0000
  C   C445      1.0  0.90599  0.47738  0.07300  1.0000
  H   H427      1.0  0.02273  0.39295  0.10223  1.0000
  H   H428      1.0  0.00579  0.41376  0.50125  1.0000
  H   H429      1.0  0.93452  0.47022  0.10868  1.0000
  H   H430      1.0  0.86047  0.42444  0.01457  1.0000
  H   H431      1.0  0.93886  0.38544  0.44872  1.0000
  C   C446      1.0  0.02801  0.34738  0.16272  1.0000
  C   C447      1.0  0.96452  0.34233  0.20337  1.0000
  H   H432      1.0  0.96922  0.43377  0.15844  1.0000
  H   H433      1.0  0.93028  0.32088  0.16434  1.0000
  H   H434      1.0  0.96535  0.48688  0.48672  1.0000
  C   C448      1.0  0.94851  0.34266  0.17485  1.0000
  C   C449      1.0  0.74267  0.09484  0.02982  1.0000
  S   S154      1.0  0.87181  0.48697  0.02498  1.0000
  C   C450      1.0  0.87663  0.43444  0.03511  1.0000
  H   H435      1.0  0.98032  0.32985  0.37883  1.0000
  H   H436      1.0  0.94386  0.37144  0.13753  1.0000
  H   H437      1.0  0.97074  0.38025  0.46111  1.0000
  H   H438      1.0  0.73564  0.05311  0.29925  1.0000
  H   H439      1.0  0.96967  0.32587  0.43938  1.0000
  C   C451      1.0  0.95652  0.37127  0.15955  1.0000
  H   H440      1.0  0.98814  0.46837  0.04177  1.0000
  H   H441      1.0  0.75799  0.03533  0.28542  1.0000
  H   H442      1.0  0.00112  0.37048  0.23819  1.0000
  C   C452      1.0  0.99285  0.34179  0.43029  1.0000
  C   C453      1.0  0.96442  0.44496  0.46924  1.0000
  C   C454      1.0  0.96468  0.39768  0.45132  1.0000
  C   C455      1.0  0.99676  0.42970  0.49803  1.0000
  H   H443      1.0  0.78672  0.21583  0.00974  1.0000
  S   S155      1.0  0.84942  0.26285  0.02550  1.0000
  H   H444      1.0  0.74181  0.22101  0.44162  1.0000
  C   C456      1.0  0.01812  0.31799  0.02497  1.0000
  H   H445      1.0  0.72368  0.14544  0.47005  1.0000
  C   C457      1.0  0.99892  0.34401  0.39602  1.0000
  C   C458      1.0  0.01697  0.35948  0.45264  1.0000
  C   C459      1.0  0.98821  0.42818  0.15492  1.0000
  H   H446      1.0  0.73154  0.03999  0.25761  1.0000
  H   H447      1.0  0.91256  0.50056  0.08192  1.0000
  H   H448      1.0  0.73030  0.06098  0.06915  1.0000
  N   N39       1.0  0.98024  0.39870  0.17189  1.0000
  H   H449      1.0  0.97565  0.40548  0.42651  1.0000
  C   C460      1.0  0.01759  0.35504  0.13343  1.0000
  H   H450      1.0  0.00653  0.30351  0.04653  1.0000
  H   H451      1.0  0.71047  0.05619  0.46759  1.0000
  C   C461      1.0  0.71727  0.16412  0.46963  1.0000
  H   H452      1.0  0.71155  0.16628  0.44331  1.0000
  H   H453      1.0  0.94711  0.44062  0.45023  1.0000
  H   H454      1.0  0.01501  0.42033  0.20970  1.0000
  C   C462      1.0  0.97451  0.47106  0.48990  1.0000
  H   H455      1.0  0.96063  0.42210  0.00553  1.0000
  H   H456      1.0  0.01046  0.44803  0.16419  1.0000
  C   C463      1.0  0.99595  0.39866  0.20000  1.0000
  H   H457      1.0  0.69619  0.15678  0.48501  1.0000
  C   C464      1.0  0.72175  0.07199  0.05186  1.0000
  S   S156      1.0  0.94465  0.31157  0.01953  1.0000
  C   C465      1.0  0.69751  0.03374  0.47986  1.0000
  H   H458      1.0  0.02612  0.36043  0.04838  1.0000
  S   S157      1.0  0.90852  0.35349  0.01287  1.0000
  H   H459      1.0  0.81181  0.16628  0.49564  1.0000
  N   N40       1.0  0.96722  0.49291  0.01946  1.0000
  H   H460      1.0  0.88892  0.43773  0.49242  1.0000
  C   C466      1.0  0.97230  0.46812  0.02294  1.0000
  C   C467      1.0  0.73518  0.03439  0.28349  1.0000
  H   H461      1.0  0.00266  0.52017  0.05545  1.0000
  C   C468      1.0  0.70013  0.09945  0.00658  1.0000
  C   C469      1.0  0.98397  0.52068  0.04058  1.0000
  C   C470      1.0  0.02164  0.39573  0.90917  1.0000
  S   S158      1.0  0.89383  0.38307  0.50559  1.0000
  S   S159      1.0  0.72408  0.08104  0.89187  1.0000
  H   H462      1.0  0.77972  0.09568  0.77480  1.0000
  S   S160      1.0  0.72354  0.13128  0.83896  1.0000
  H   H463      1.0  0.70693  0.03165  0.72972  1.0000
  C   C471      1.0  0.86865  0.50090  0.59131  1.0000
  Fe  Fe79      1.0  0.74013  0.13277  0.89153  1.0000
  S   S161      1.0  0.79103  0.16776  0.90358  1.0000
  H   H464      1.0  0.94100  0.51073  0.99464  1.0000
  C   C472      1.0  0.00671  0.45509  0.51972  1.0000
  C   C473      1.0  0.02170  0.35180  0.88227  1.0000
  S   S162      1.0  0.98556  0.39122  0.96183  1.0000
  Fe  Fe80      1.0  0.90908  0.34937  0.52398  1.0000
  S   S163      1.0  0.88281  0.30879  0.55893  1.0000
  H   H465      1.0  0.70768  0.04658  0.95929  1.0000
  Fe  Fe81      1.0  0.93006  0.32299  0.58111  1.0000
  S   S164      1.0  0.93970  0.32298  0.63659  1.0000
  C   C474      1.0  0.99753  0.33117  0.90325  1.0000
  H   H466      1.0  0.76484  0.05272  0.81061  1.0000
  S   S165      1.0  0.95495  0.36575  0.54928  1.0000
  Fe  Fe82      1.0  0.89309  0.28116  0.52154  1.0000
  C   C475      1.0  0.80647  0.19480  0.93709  1.0000
  C   C476      1.0  0.78778  0.19495  0.96297  1.0000
  H   H467      1.0  0.70094  0.05389  0.52819  1.0000
  N   N41       1.0  0.84257  0.50089  0.57988  1.0000
  C   C477      1.0  0.85216  0.23766  0.96451  1.0000
  C   C478      1.0  0.83870  0.21626  0.93804  1.0000
  H   H468      1.0  0.76294  0.17889  0.96243  1.0000
  H   H469      1.0  0.81643  0.12411  0.90513  1.0000
  H   H470      1.0  0.87696  0.25396  0.96493  1.0000
  H   H471      1.0  0.85338  0.21637  0.91817  1.0000
  C   C479      1.0  0.93082  0.47580  0.56127  1.0000
  C   C480      1.0  0.93551  0.45200  0.57434  1.0000
  C   C481      1.0  0.92383  0.42326  0.55771  1.0000
  C   C482      1.0  0.90711  0.41807  0.52808  1.0000
  C   C483      1.0  0.90183  0.44164  0.51537  1.0000
  C   C484      1.0  0.91386  0.47055  0.53178  1.0000
  C   C485      1.0  0.98258  0.34261  0.68749  1.0000
  H   H472      1.0  0.00527  0.31718  0.56125  1.0000
  C   C486      1.0  0.00485  0.42220  0.82503  1.0000
  H   H473      1.0  0.91024  0.48877  0.52139  1.0000
  H   H474      1.0  0.83925  0.51424  0.53062  1.0000
  H   H475      1.0  0.92220  0.41961  0.96413  1.0000
  H   H476      1.0  0.81042  0.13355  0.78784  1.0000
  H   H477      1.0  0.94840  0.45583  0.59729  1.0000
  C   C487      1.0  0.79271  0.07596  0.88868  1.0000
  H   H478      1.0  0.91213  0.46438  0.95916  1.0000
  C   C488      1.0  0.97705  0.34727  0.65418  1.0000
  H   H479      1.0  0.00230  0.49526  0.53266  1.0000
  H   H480      1.0  0.96374  0.32481  0.70214  1.0000
  H   H481      1.0  0.77010  0.12125  0.79689  1.0000
  N   N42       1.0  0.78987  0.10026  0.82702  1.0000
  C   C489      1.0  0.99802  0.37524  0.93068  1.0000
  C   C490      1.0  0.98574  0.34289  0.92759  1.0000
  C   C491      1.0  0.83253  0.49256  0.54526  1.0000
  H   H482      1.0  0.96732  0.32695  0.94400  1.0000
  H   H483      1.0  0.92765  0.40510  0.56795  1.0000
  Fe  Fe83      1.0  0.96055  0.33439  0.51326  1.0000
  C   C492      1.0  0.80401  0.12003  0.85319  1.0000
  C   C493      1.0  0.01255  0.36008  0.70163  1.0000
  H   H484      1.0  0.81343  0.14510  0.85030  1.0000
  H   H485      1.0  0.99762  0.37416  0.60981  1.0000
  Fe  Fe84      1.0  0.70388  0.07923  0.84104  1.0000
  S   S166      1.0  0.94650  0.51180  0.58235  1.0000
  H   H486      1.0  0.97690  0.37436  0.75893  1.0000
  H   H487      1.0  0.81272  0.27053  0.51503  1.0000
  C   C494      1.0  0.82652  0.51015  0.60011  1.0000
  H   H488      1.0  0.80643  0.51112  0.59070  1.0000
  H   H489      1.0  0.96942  0.28970  0.60740  1.0000
  C   C495      1.0  0.92964  0.46550  0.97633  1.0000
  H   H490      1.0  0.80686  0.47713  0.54380  1.0000
  C   C496      1.0  0.97265  0.36476  0.82435  1.0000
  H   H491      1.0  0.84344  0.47995  0.53357  1.0000
  C   C497      1.0  0.80580  0.10824  0.88433  1.0000
  C   C498      1.0  0.99538  0.47581  0.51564  1.0000
  H   H492      1.0  0.96882  0.36736  0.85110  1.0000
  H   H493      1.0  0.98813  0.30615  0.90091  1.0000
  C   C499      1.0  0.78754  0.11336  0.79502  1.0000
  C   C500      1.0  0.77688  0.06854  0.83107  1.0000
  S   S167      1.0  0.85706  0.22991  0.51123  1.0000
  H   H494      1.0  0.98697  0.35311  0.82281  1.0000
  H   H495      1.0  0.79327  0.06648  0.91291  1.0000
  S   S168      1.0  0.71115  0.05781  0.79441  1.0000
  C   C501      1.0  0.00155  0.37025  0.63541  1.0000
  H   H496      1.0  0.94947  0.34927  0.81295  1.0000
  H   H497      1.0  0.88164  0.49396  0.57523  1.0000
  C   C502      1.0  0.77808  0.05592  0.86192  1.0000
  H   H498      1.0  0.00523  0.42161  0.85197  1.0000
  C   C503      1.0  0.98906  0.39590  0.77314  1.0000
  C   C504      1.0  0.87926  0.51029  0.62381  1.0000
  H   H499      1.0  0.74756  0.12597  0.98940  1.0000
  C   C505      1.0  0.98885  0.28912  0.62069  1.0000
  H   H500      1.0  0.75065  0.17162  0.52429  1.0000
  C   C506      1.0  0.94604  0.49174  0.99666  1.0000
  C   C507      1.0  0.80132  0.21602  0.98970  1.0000
  N   N43       1.0  0.98863  0.39511  0.80717  1.0000
  C   C508      1.0  0.93509  0.44037  0.97933  1.0000
  H   H501      1.0  0.76711  0.03073  0.86515  1.0000
  H   H502      1.0  0.98397  0.28933  0.64761  1.0000
  H   H503      1.0  0.90022  0.51058  0.63248  1.0000
  C   C509      1.0  0.02368  0.32760  0.57972  1.0000
  S   S169      1.0  0.93840  0.29223  0.54662  1.0000
  H   H504      1.0  0.02281  0.45842  0.53975  1.0000
  H   H505      1.0  0.98854  0.26701  0.61450  1.0000
  C   C510      1.0  0.83355  0.23755  0.99064  1.0000
  H   H506      1.0  0.79511  0.22072  0.54569  1.0000
  C   C511      1.0  0.75763  0.19344  0.51121  1.0000
  C   C512      1.0  0.02286  0.45205  0.77414  1.0000
  C   C513      1.0  0.02205  0.45104  0.80880  1.0000
  C   C514      1.0  0.78257  0.22116  0.52365  1.0000
  C   C515      1.0  0.83650  0.51977  0.63274  1.0000
  H   H507      1.0  0.01678  0.35553  0.72691  1.0000
  C   C516      1.0  0.86313  0.51995  0.64456  1.0000
  N   N44       1.0  0.01891  0.31617  0.61155  1.0000
  H   H508      1.0  0.01258  0.27945  0.99483  1.0000
  C   C517      1.0  0.00619  0.42434  0.75610  1.0000
  C   C518      1.0  0.79256  0.24916  0.50632  1.0000
  C   C519      1.0  0.02159  0.30454  0.99601  1.0000
  H   H509      1.0  0.00723  0.42470  0.72913  1.0000
  S   S170      1.0  0.69621  0.12747  0.91406  1.0000
  C   C520      1.0  0.95660  0.44170  0.00270  1.0000
  Fe  Fe85      1.0  0.95604  0.36003  0.00341  1.0000
  Fe  Fe86      1.0  0.89576  0.59565  0.06500  1.0000
  S   S171      1.0  0.90150  0.55754  0.08947  1.0000
  S   S172      1.0  0.86917  0.61916  0.08503  1.0000
  C   C521      1.0  0.97301  0.61657  0.21745  1.0000
  S   S173      1.0  0.94779  0.56523  0.02652  1.0000
  S   S174      1.0  0.96190  0.59205  0.43894  1.0000
  H   H510      1.0  0.71721  0.64420  0.10144  1.0000
  Fe  Fe87      1.0  0.95204  0.58727  0.07616  1.0000
  S   S175      1.0  0.98847  0.58710  0.10965  1.0000
  C   C522      1.0  0.96511  0.65965  0.19842  1.0000
  S   S176      1.0  0.94733  0.62720  0.05546  1.0000
  C   C523      1.0  0.01038  0.62032  0.13434  1.0000
  H   H511      1.0  0.01951  0.69204  0.15196  1.0000
  S   S177      1.0  0.72275  0.62749  0.21914  1.0000
  Fe  Fe88      1.0  0.93887  0.60232  0.00637  1.0000
  Fe  Fe89      1.0  0.71889  0.58457  0.19437  1.0000
  S   S178      1.0  0.75465  0.56879  0.18589  1.0000
  H   H512      1.0  0.78983  0.65938  0.26409  1.0000
  H   H513      1.0  0.76853  0.56387  0.25602  1.0000
  H   H514      1.0  0.73846  0.64332  0.33771  1.0000
  C   C524      1.0  0.83643  0.60388  0.11200  1.0000
  C   C525      1.0  0.82098  0.62107  0.11674  1.0000
  C   C526      1.0  0.79560  0.61048  0.13881  1.0000
  C   C527      1.0  0.78564  0.58271  0.15674  1.0000
  C   C528      1.0  0.80101  0.56547  0.15196  1.0000
  C   C529      1.0  0.82614  0.57585  0.12958  1.0000
  H   H515      1.0  0.82881  0.64282  0.10330  1.0000
  H   H516      1.0  0.78407  0.62405  0.14222  1.0000
  Fe  Fe90      1.0  0.95396  0.59131  0.49477  1.0000
  H   H517      1.0  0.83773  0.56234  0.12621  1.0000
  C   C530      1.0  0.99881  0.61576  0.41998  1.0000
  H   H518      1.0  0.79758  0.61889  0.23635  1.0000
  C   C531      1.0  0.00117  0.61629  0.38511  1.0000
  C   C532      1.0  0.74138  0.59719  0.31052  1.0000
  H   H519      1.0  0.98045  0.60252  0.37034  1.0000
  C   C533      1.0  0.02267  0.67185  0.15371  1.0000
  C   C534      1.0  0.00685  0.64673  0.13160  1.0000
  N   N45       1.0  0.95831  0.62919  0.19525  1.0000
  H   H520      1.0  0.99154  0.64758  0.11291  1.0000
  C   C535      1.0  0.72668  0.56200  0.08781  1.0000
  H   H521      1.0  0.93180  0.58595  0.16939  1.0000
  Fe  Fe91      1.0  0.89694  0.53832  0.03800  1.0000
  N   N46       1.0  0.75744  0.62754  0.29947  1.0000
  C   C536      1.0  0.74527  0.57389  0.29527  1.0000
  H   H522      1.0  0.96761  0.52224  0.05825  1.0000
  C   C537      1.0  0.92898  0.65232  0.15413  1.0000
  H   H523      1.0  0.90483  0.60604  0.13336  1.0000
  H   H524      1.0  0.73177  0.54971  0.30343  1.0000
  H   H525      1.0  0.95685  0.69612  0.17966  1.0000
  C   C538      1.0  0.95080  0.67176  0.17768  1.0000
  C   C539      1.0  0.69709  0.97975  0.27068  1.0000
  H   H526      1.0  0.99512  0.63557  0.22824  1.0000
  H   H527      1.0  0.02433  0.63366  0.46563  1.0000
  H   H528      1.0  0.70437  0.98415  0.24489  1.0000
  H   H529      1.0  0.77369  0.67337  0.31890  1.0000
  H   H530      1.0  0.97915  0.60093  0.20353  1.0000
  C   C540      1.0  0.92186  0.62123  0.15152  1.0000
  C   C541      1.0  0.76588  0.58183  0.26872  1.0000
  C   C542      1.0  0.93695  0.60999  0.17222  1.0000
  C   C543      1.0  0.78231  0.61283  0.25774  1.0000
  C   C544      1.0  0.75151  0.65139  0.31392  1.0000
  H   H531      1.0  0.72470  0.59061  0.33061  1.0000
  H   H532      1.0  0.99494  0.54232  0.02514  1.0000
  C   C545      1.0  0.77777  0.63553  0.27349  1.0000
  H   H533      1.0  0.79350  0.54392  0.16568  1.0000
  H   H534      1.0  0.71107  0.01636  0.34438  1.0000
  H   H535      1.0  0.98250  0.67506  0.21628  1.0000
  C   C546      1.0  0.71145  0.53679  0.10986  1.0000
  H   H536      1.0  0.91763  0.66122  0.13770  1.0000
  H   H537      1.0  0.75192  0.57427  0.08589  1.0000
  H   H538      1.0  0.72082  0.59170  0.05239  1.0000
  H   H539      1.0  0.73695  0.65637  0.29653  1.0000
  H   H540      1.0  0.70801  0.63710  0.04051  1.0000
  C   C547      1.0  0.69817  0.64588  0.09024  1.0000
  H   H541      1.0  0.95694  0.60322  0.23804  1.0000
  C   C548      1.0  0.70924  0.57173  0.06902  1.0000
  H   H542      1.0  0.72529  0.53007  0.12520  1.0000
  C   C549      1.0  0.02577  0.63375  0.43881  1.0000
  S   S179      1.0  0.88697  0.57381  0.01409  1.0000
  H   H543      1.0  0.70563  0.71425  0.06487  1.0000
  N   N47       1.0  0.71002  0.00339  0.29356  1.0000
  C   C550      1.0  0.70053  0.99785  0.32601  1.0000
  Fe  Fe92      1.0  0.90699  0.58567  0.54871  1.0000
  S   S180      1.0  0.93668  0.58394  0.59016  1.0000
  S   S181      1.0  0.85751  0.57761  0.55456  1.0000
  H   H544      1.0  0.71245  0.68294  0.82549  1.0000
  S   S182      1.0  0.98660  0.58955  0.53231  1.0000
  S   S183      1.0  0.95745  0.62462  0.95576  1.0000
  Fe  Fe93      1.0  0.94410  0.55162  0.55717  1.0000
  Fe  Fe94      1.0  0.97683  0.62210  0.56200  1.0000
  H   H545      1.0  0.87143  0.52791  0.66961  1.0000
  C   C551      1.0  0.85071  0.65759  0.58847  1.0000
  C   C552      1.0  0.01224  0.58475  0.65860  1.0000
  S   S184      1.0  0.72381  0.58160  0.74050  1.0000
  H   H546      1.0  0.74897  0.64355  0.60366  1.0000
  S   S185      1.0  0.73501  0.62861  0.67806  1.0000
  C   C553      1.0  0.01343  0.62454  0.95531  1.0000
  Fe  Fe95      1.0  0.74604  0.59037  0.68983  1.0000
  S   S186      1.0  0.79568  0.59927  0.68313  1.0000
  H   H547      1.0  0.79516  0.65423  0.64000  1.0000
  C   C554      1.0  0.83740  0.66205  0.61692  1.0000
  C   C555      1.0  0.01831  0.59295  0.62504  1.0000
  C   C556      1.0  0.84056  0.58242  0.59124  1.0000
  C   C557      1.0  0.80849  0.57235  0.59135  1.0000
  C   C558      1.0  0.79417  0.57652  0.61956  1.0000
  C   C559      1.0  0.81184  0.59091  0.64799  1.0000
  C   C560      1.0  0.84375  0.60027  0.64815  1.0000
  C   C561      1.0  0.85808  0.59607  0.61995  1.0000
  H   H548      1.0  0.79470  0.56160  0.56931  1.0000
  H   H549      1.0  0.76957  0.56902  0.61917  1.0000
  H   H550      1.0  0.85761  0.61140  0.67006  1.0000
  H   H551      1.0  0.88274  0.60381  0.62029  1.0000
  C   C562      1.0  0.98964  0.62472  0.93654  1.0000
  H   H552      1.0  0.74284  0.62171  0.56641  1.0000
  C   C563      1.0  0.99329  0.62897  0.90194  1.0000
  C   C564      1.0  0.83205  0.64310  0.56076  1.0000
  H   H553      1.0  0.97497  0.62907  0.88723  1.0000
  H   H554      1.0  0.99930  0.58681  0.60769  1.0000
  C   C565      1.0  0.02102  0.63450  0.88637  1.0000
  C   C566      1.0  0.80020  0.63323  0.56193  1.0000
  S   S187      1.0  0.70290  0.55180  0.66604  1.0000
  H   H555      1.0  0.70411  0.65384  0.62652  1.0000
  H   H556      1.0  0.97055  0.63730  0.63496  1.0000
  H   H557      1.0  0.70861  0.70133  0.59904  1.0000
  H   H558      1.0  0.82412  0.52790  0.64837  1.0000
  C   C567      1.0  0.80548  0.65183  0.61727  1.0000
  H   H559      1.0  0.02391  0.63879  0.85988  1.0000
  Fe  Fe96      1.0  0.70884  0.61638  0.72668  1.0000
  C   C568      1.0  0.99276  0.64703  0.64755  1.0000
  C   C569      1.0  0.99392  0.64671  0.68240  1.0000
  S   S188      1.0  0.01970  0.66153  0.58568  1.0000
  C   C570      1.0  0.00748  0.70003  0.91841  1.0000
  S   S189      1.0  0.71375  0.65160  0.76606  1.0000
  N   N48       1.0  0.78737  0.63787  0.58989  1.0000
  H   H560      1.0  0.98825  0.57229  0.66695  1.0000
  H   H561      1.0  0.87520  0.66433  0.58829  1.0000
  H   H562      1.0  0.97254  0.63644  0.69658  1.0000
  H   H563      1.0  0.78572  0.62122  0.54062  1.0000
  H   H564      1.0  0.85137  0.67209  0.63912  1.0000
  C   C571      1.0  0.75375  0.62617  0.59147  1.0000
  H   H565      1.0  0.74208  0.60392  0.60590  1.0000
  S   S190      1.0  0.91156  0.55019  0.51747  1.0000
  H   H566      1.0  0.98488  0.69402  0.92861  1.0000
  S   S191      1.0  0.94684  0.62684  0.52268  1.0000
  C   C572      1.0  0.02037  0.66092  0.62922  1.0000
  H   H567      1.0  0.01097  0.62144  0.98198  1.0000
  H   H568      1.0  0.84203  0.63845  0.53902  1.0000
  H   H569      1.0  0.99434  0.70212  0.86774  1.0000
  H   H570      1.0  0.71055  0.63366  0.88858  1.0000
  H   H571      1.0  0.70850  0.60735  0.83549  1.0000
  C   C573      1.0  0.02265  0.65977  0.69893  1.0000
  C   C574      1.0  0.01273  0.70432  0.88425  1.0000
  S   S192      1.0  0.02353  0.65919  0.74250  1.0000
  H   H572      1.0  0.02518  0.60241  0.72827  1.0000
  H   H573      1.0  0.02614  0.69712  0.96560  1.0000
  C   C575      1.0  0.70016  0.01313  0.99824  1.0000
  C   C576      1.0  0.69626  0.67884  0.58677  1.0000
  H   H574      1.0  0.72435  0.01916  0.99962  1.0000
  H   H575      1.0  0.00814  0.56124  0.71885  1.0000
  H   H576      1.0  0.71924  0.75025  0.00330  1.0000
