data_image0
_chemical_formula_structural       NSH2SHFeSFeSCSFeS2FeS2FeSFeS3H2SC7H4CH3CH4C6H4C2H3C3H2CH2CHC5H6C2HNC2HC7H3C2H3C2HCHCHCN2C2HCHCHFeHC3HCH3SHCHCNH2CH4CH2CH3C3FeS2HSHFeSFeS3FeCFeS2FeS2HSFeS2FeS2FeSFeS3FeS2FeS2FeSFeS3C6H4C6H4C6H5CHC3FeH3C6H4C6H4C4H4C6H4C3SH2CH2SC5HNC6H9SHC2H4CNC4H3CHCNH2CH3FeCNC2HC3H2CH5C2SCFeHC3SC2S2HCHC2HC2HCHCSCNCSFeH2NC2HCSHCHC2HCHSH2CH3CHC2H2CH2C2H2NHSNC2HC3HCH2SC2NHSCHNH3NHCH2CH2CH4C2H2FeH2C2FeCH2C3SH6NC2H3CHCH2C3FeC4HC2HSCHSCNC2H2FeCHCSH4SH2C2FeH2SCNH3CHC2FeS2FeS2FeSFeS3HSCH3FeSH2SH2SCH2C3H3C2FeH2FeS2FeS2FeSCSCFeS2FeS2FeCFeS3C7H2SHC6H4CH2C6H5CHSFe2HC3HC6H4C6H5C5H3CSCHCHCSCHCHNFeHCFeC7H5CH2C2SNCSHCNCHCH2SFeCNC6H6CHCSCH2SNCH2CH2CHCHFeC2SNH3CH4C3HC2SH3C2SHFeNC6H3SH4NC6H8CHSH2NH4CSC3SHCHCH2C3HCSHS2HCSH2C2FeC2HFeS2HSCFeHFeS3HSFeS2FeSFeSFeS3HC6H5C2H2C6H4C4H3CNSCHNSH3CFeHC2H2CHC6H4CNC2H2SHCSC2H4SCHCHCH3C2NC5H4C2NH2CHC2HCHCHCHC2SC2HCH3NCH2C2SH3FeC4NC3SHC3HCHC2HCH3SFeH3CH3CH2FeCNC3H3C2H6NHCHSHFeSCH2N2CFeHC2H3FeS2FeSFeSFeHS2H3SNCHSCSC5H2FeHCH2CHC2HCH2SCH3CSCH2C3H2C2H2C2HCH2C9H3C3H2CSHCHCNCNHFeH2CHCHCSHCHNH2CHC3HC2HC3HCHSH2CHC2HNH2CHC5SHCFeS2FeS2FeSFeS2H2S2HFeSFeS2FeSFeS3HC2H3CSHCHNCH2CH2S2HC2HSCFeS2FeS2FeSFeS3C6H4C6H5C2HNSHC2SHCHC2H2C6H4C6H7C7H4C2HC7H4C4HCH2SHC2HC4NH4FeCNC5H6FeHNSH3CNH3CFeC3HC2HC2HC4HC2H2CSCHSH3CFeC2H5NC6H3CH2FeCNC6H8C2SHC3HCNHCHCH2CH2C3SH2CHC2HNC3H2C2H2SHC2SHCHFeCHC2FeH2S3HCHCHC2HCNCHC2HNHC2H2FeCHCSHSH2CH3CH5CSNCHNCHCHFeCS2HSFeCHCH4CH5C2H2CHSCHFeHCHCH3C2FeHFeH3FeCH2SCSH2CFeS2H3FeSFeHS2C3FeSHCFeHFeC2FeHSC3H2SH2SC2HCH4SHNSH2SCSHC6H4C2HC3H4C6H4C5H3CSNFeHCH2CSC2HSHC4SFeSNCHC2H2SCHCH2CHNH3C2SHC3HCNC2HNC2HC2HC2HFeNC2HC3H3CH4Fe2HCHCHSH2SHC2FeC3HCSCHCHSCHSCHC2SH3C2SH4NC3SHSHCSH2CH2C4H5CNSCHCH2CHSH3FeS2FeHCFeSFeHS2CSFeHCH4CFeSHCHFeH2CH2CFeCSC6H4C6NH4C5H3CSCHCH2SC2HSNSCS2H2C2H3C3FeHC4SCH2SHCH3C2HCH2FeS2FeS2FeHCHS2HSFeC3HFe2SCSCH2C3SH4C2SHSH2C2H2FeS2C2FeSFeS4C7H5NCNC4H2C6H6CS2CH2CH3CFeSH3CFeSC9H4C2FeH2SHCS2HCFe2HCHFeCHCH4CSHNC2HCHC3SC2HFeNC5H2C5HSC2SH2C2NH5C2H2SH2FeHC3H2CHC2HCNSHC2HC2HCH5SFeC2H3SCHNHCHC2HSC2S2CS2C2FeC2H4FeHNFeCH3CHC2H4FeHCFeS2HC2HSHSFeSCFeSFeS2CHSH3C3H2FeC6H4C2H2SC3SCHFeC2H4FeH2SC2H2CSHCFeC2FeCNSHSNSCSH3S3C2SCH3CFeH4NH5CH2CHC3HSHFeSCFeSFeSHSFeS2FeHSFeHFeS3H2CSHC2FeHCH2CH2FeCHC6NCH4NH3CSH2CHCHCHSHSC2FeHC2H3C8H2C3H2CSNC2HCHC4SH3C6H4C3NFeH2CH2CS2CNCHCSH2CFeHCH2CHSCH2SNH2SH3CHCFeS2C2FeCFeSHFeCHFeS2H2FeSFeSFeSFeSHFeHFeS3HC2FeH2CH2FeS2FeS2FeS2FeSFeS3FeS2FeS2FeSFeS3NS3C6H4C6H4C6SCH2C3HC6H4C2SC4HCH2SC6H6NCH3C2H2C6H4C6H4NHCHC2HSC7H5SCH3CH2CHC2H2FeNC3HCH5C4HNHNC6H8CFeH4C2HCH4CSC2H3CNC6H8NC5H3SHC2HCH3CHCH2C5FeH2C2HCH2SH2SC2HSCFeC2HSCSC2H3NFeH2CH2C3HC2HCSCSHCH2C4HC2H2NHC2HNC5SCSH4CNH3SC2FeC2NSNSFeCFeHCSC2HCHSFeH3SFe2C4SC2SH3SCSC2H3S2H4FeC2H3C2H4S2H5C2H2CSH2CH3CH2NH3C3H2SCFeHCFeS2HCFeS3FeS4FeSFeS3HSCHSHFeSHSHFeSCHS2FeSFeSHSH3CSHSFeS2FeSFeSFeS3H2C4HCH2CHCFeHC7H4C2HSHC6H2C4SH3CHCFeC9H4C8H3C6H4C3HC2H2SHC4H4FeH3CHSCHC3NHCH4C2H3CH2CHCHCH2NHFeSH2SCHCSC2H2CH2SCFeSH2NCHCNC6H5C2H3CHC2NHSFeHCNH2CSHCFeSNHC2HC2HCNC2NCFeCH2FeCH6CHNFeCSCHSCHCHNHCSFeHCHC2HC4HCHSHCFeHC2FeCH2SH2CHSH5C4HC2H3SHCHC2HC4H4SHSHCSFeCH2CH2C3HSFeCHCFeS2H2CFeS2C2HCS2FeS2FeHSHCFeS3HC2HCFeC2SNCSC6H4C6H4CH2C2HCH2CH5FeHC2HC2H5C2S2CFeH4SC3H2CHC4H5CFeCHCNC3S3NC6H8NCH4SH2C4HC4H2CSH3CHFeC2NCH3CNHC4FeS2FeS2FeSFeS3FeS2FeSHFeSFeCS2C2SHFeS2HCFeHFeSHCH2SHCSNCHC2H3C2H3CNHC6H4C6H4C6H7SNC5H4CH4NHSCSCH3CHC5H3CH2C2HCHCH4C2H2C2HCH2CHSC2HSC3H3C2NC2HNHC3H3C2SC2HC3FeHC2HCNHSH2CH4CHSCHCHCH2SH3FeCH2CHFeS2FeHSHSHCSCHFeSCSFeS2FeS2FeSFeS3FeSHFeS2FeSFeS4FeS2FeS2Fe2S3CFeS2FeS2FeSFeS3FeS2HFeCS2CSH2CH3FeHC6H4C5HC6H4C6H4CHC4H2C5H3C6H4C6H4C6H4C6H4C4HCH4CHC2HC3HNC6H8C2NCHSC3H2CH2CSH2C4HC3S2HC4NH3CSH3SH3NC2NC6H10C3SFeNC5H6NC6H8NC5H8C2SNCHC2H2CHNC6HSH3CFeHFeNHCSH2CHSH2CNCSFeCH2SH2C2HCNCHCH2CH3FeCHCHC2H3CH7CSHCHFeCH2N2HNHCSH3CH5SHCH2CHFeC3H2C2H4C2HCFeS2FeSFeSHCH2FeS2FeS2CNFeS3HC2H5CH4FeCHFeS2CH2FeSFeS2HC2HNCH2CH2NH3CHCHCHC4H3CFeHC6H5C2SC2HCHC3HC2SCHCHSHC2HC9HCHC6H4FeHC2HCH2CNC2HCHCHCSCH2CFeSHC4HFeCHS4FeSHFe2H2CNSCSFeHSFeS2FeNFeHS2C3H4SFeS2FeS2FeSFeHS2CSH3SH2C8H5C6H6NCHCNH3CHC5H3C6H4C3SCFeH4CHC3H2SCHCHCHCHCHC3HCHCHNC2HC3HCH2FeH3CSC2NCHCSCH2SH2C2HC2SC2H3SHFeC2H5C2SH4C2HCHCSC2NC6H8C3H3FeNH4CHCHC2HSHCHSH3Fe2SCFeCSHSHFeCSFeH2C2HSC2HSHC2SCHSC2H2C5HFeHC2HFeHCFeCH2SCSNHFeCH2CHC2H2C6H4SCHSC2H3C2HCHNSHCHCHSC3H4CHFeCNCSHC2FeH4C4HCH2CSHC2HSFeSNC2FeS2FeS2FeSFeS3HCFeS2FeS2FeSFeS3H2CHNC2H4C2HSH3CHSH2CHCHSH2CSC2HCHC7H2CH6FeNC7H2C8H4C6H4SC5H3CNH2C4H4SH2NC5HCHCHC2HC2H2C2H2SC2SCNCHC3H2NH3C2NH2CNH2CHSHC3HC3H3CHC2H2SH8C2NFeCH4C3H2S3CHCH2C2H3C6FeHCH2C3H2C2HCFeSNCFeS2FeCSH2FeCSH2CHCH2CH4CH4CHFe2S2FeCSCSFeHS2CS2C4NH2CHC3SHCHCH3C3SC2HCSCHCFeHC2FeH4NCH6CSHCH2NC3NHCSCSC2NHC3H2C2FeSFeHC2HC3SC2H3C2H2FeS2FeS2FeSFeS5FeS2FeSCFeSFeS3C6H4C6H4C6H5C6H3NH2C2HC2FeHC2SH2C2HCH4SCNH2SHCHCHCHC4HCHCHC2HC2HNC2SHCHCH3CHCHC3H2CHC2H2CH2CH4SHFeNH2FeSCSC3H3NC6H2CHNH3SHCFeCH3CSHCHNHNC6H8C2HCHFeHSH2C2H2FeCHSHCHSH2SCHCHC5FeCSHSCH3NHSHS2H4NCH3S2HC2HSHCHCHCSH2FeHCHSHFe2S2HCSH2S2C3SCSFe3HSFe2SHS3C2HNH2C2H3CHC2HCNCHCH2C6H4CH2C2HSH3SCHCHC2HC2HC2HCNH2CHC2NSHC2H3CH2CHFeC2HCSC9SC5FeCSHC2FeCH3SHCHFeSH2CS2NHC3HCFeHCHSH4Fe2CH2C4Fe2SC2SFeS2FeSFeSFeS4FeS2FeS2Fe2S3C6H4C6H4C6H4C6H5C5H3SHSHCH5C3H3C2NC3FeCH4CH2CHSFeC3H2C3H2CHC2H2CHCHCNH3CHNFeHC2NCHCH2SHSCH4NSH2CHSHFeHCH4
_chemical_formula_sum              "N192 S768 H2304 Fe384 C2304"
_cell_length_a       82.193
_cell_length_b       82.0686
_cell_length_c       82.0416
_cell_angle_alpha    73.5677
_cell_angle_beta     74.0843
_cell_angle_gamma    73.5314

_space_group_name_H-M_alt    "P 1"
_space_group_IT_number       1

loop_
  _space_group_symop_operation_xyz
  'x, y, z'

loop_
  _atom_site_type_symbol
  _atom_site_label
  _atom_site_symmetry_multiplicity
  _atom_site_fract_x
  _atom_site_fract_y
  _atom_site_fract_z
  _atom_site_occupancy
  N   N1        1.0  0.09900  0.37894  0.22362  1.0000
  S   S1        1.0  0.22577  0.40061  0.00327  1.0000
  H   H1        1.0  0.27475  0.43688  0.01024  1.0000
  H   H2        1.0  0.07082  0.35298  0.11063  1.0000
  S   S2        1.0  0.24074  0.42842  0.01404  1.0000
  H   H3        1.0  0.04722  0.41998  0.06647  1.0000
  Fe  Fe1       1.0  0.25034  0.40123  0.00995  1.0000
  S   S3        1.0  0.26157  0.37997  0.03059  1.0000
  Fe  Fe2       1.0  0.21730  0.42869  0.00503  1.0000
  S   S4        1.0  0.19123  0.44253  0.01842  1.0000
  C   C1        1.0  0.10935  0.38086  0.20731  1.0000
  S   S5        1.0  0.01289  0.41387  0.07381  1.0000
  Fe  Fe3       1.0  0.12587  0.41102  0.10361  1.0000
  S   S6        1.0  0.11853  0.43248  0.11820  1.0000
  S   S7        1.0  0.15293  0.40048  0.08920  1.0000
  Fe  Fe4       1.0  0.08997  0.40314  0.11487  1.0000
  S   S8        1.0  0.07966  0.42384  0.13001  1.0000
  S   S9        1.0  0.07135  0.38641  0.11770  1.0000
  Fe  Fe5       1.0  0.09435  0.44022  0.10758  1.0000
  S   S10       1.0  0.08192  0.46851  0.09961  1.0000
  Fe  Fe6       1.0  0.10430  0.41457  0.13981  1.0000
  S   S11       1.0  0.09764  0.41296  0.16875  1.0000
  S   S12       1.0  0.10266  0.42037  0.09111  1.0000
  S   S13       1.0  0.11364  0.39222  0.12642  1.0000
  H   H4        1.0  0.25517  0.39610  0.05912  1.0000
  H   H5        1.0  0.04072  0.38323  0.05481  1.0000
  S   S14       1.0  0.13744  0.43045  0.21532  1.0000
  C   C2        1.0  0.31269  0.38183  0.02060  1.0000
  C   C3        1.0  0.10856  0.42014  0.18011  1.0000
  C   C4        1.0  0.12594  0.42130  0.17399  1.0000
  C   C5        1.0  0.13471  0.42478  0.18475  1.0000
  C   C6        1.0  0.12607  0.42726  0.20151  1.0000
  C   C7        1.0  0.10847  0.42704  0.20710  1.0000
  C   C8        1.0  0.09981  0.42333  0.19653  1.0000
  H   H6        1.0  0.13280  0.41879  0.16134  1.0000
  H   H7        1.0  0.14830  0.42515  0.18025  1.0000
  H   H8        1.0  0.10147  0.42972  0.21959  1.0000
  H   H9        1.0  0.08632  0.42262  0.20126  1.0000
  C   C9        1.0  0.05499  0.39502  0.10566  1.0000
  H   H10       1.0  0.07028  0.40956  0.08371  1.0000
  H   H11       1.0  0.03664  0.38193  0.12540  1.0000
  H   H12       1.0  0.06788  0.37490  0.06570  1.0000
  C   C10       1.0  0.03894  0.39035  0.11259  1.0000
  H   H13       1.0  0.24226  0.45131  0.05555  1.0000
  H   H14       1.0  0.01980  0.48068  0.16048  1.0000
  H   H15       1.0  0.12156  0.47087  0.11381  1.0000
  H   H16       1.0  0.07704  0.45504  0.13686  1.0000
  C   C11       1.0  0.17987  0.43058  0.03743  1.0000
  C   C12       1.0  0.18581  0.41262  0.04299  1.0000
  C   C13       1.0  0.17722  0.40354  0.05874  1.0000
  C   C14       1.0  0.16251  0.41228  0.06895  1.0000
  C   C15       1.0  0.15629  0.43018  0.06319  1.0000
  C   C16       1.0  0.16500  0.43931  0.04749  1.0000
  H   H17       1.0  0.19706  0.40573  0.03520  1.0000
  H   H18       1.0  0.18193  0.38965  0.06303  1.0000
  H   H19       1.0  0.14494  0.43702  0.07096  1.0000
  H   H20       1.0  0.16026  0.45320  0.04323  1.0000
  C   C17       1.0  0.28387  0.37538  0.03063  1.0000
  C   C18       1.0  0.29050  0.36049  0.04229  1.0000
  H   H21       1.0  0.99422  0.44187  0.12229  1.0000
  H   H22       1.0  0.01600  0.44284  0.09316  1.0000
  H   H23       1.0  0.31033  0.43852  0.00644  1.0000
  C   C19       1.0  0.29497  0.38615  0.01975  1.0000
  C   C20       1.0  0.30806  0.35613  0.04301  1.0000
  C   C21       1.0  0.31429  0.43271  0.99484  1.0000
  H   H24       1.0  0.04892  0.42647  0.11792  1.0000
  H   H25       1.0  0.28989  0.39772  0.01075  1.0000
  C   C22       1.0  0.19685  0.48104  0.98754  1.0000
  H   H26       1.0  0.99492  0.36985  0.17884  1.0000
  H   H27       1.0  0.18719  0.47727  0.02178  1.0000
  C   C23       1.0  0.02878  0.40717  0.08639  1.0000
  H   H28       1.0  0.14704  0.38011  0.21740  1.0000
  C   C24       1.0  0.02779  0.35763  0.09421  1.0000
  C   C25       1.0  0.05788  0.40597  0.08915  1.0000
  C   C26       1.0  0.11584  0.46877  0.14157  1.0000
  C   C27       1.0  0.04327  0.35321  0.10010  1.0000
  C   C28       1.0  0.04151  0.37438  0.06736  1.0000
  H   H29       1.0  0.32128  0.39005  0.01221  1.0000
  H   H30       1.0  0.20273  0.42429  0.06084  1.0000
  H   H31       1.0  0.08171  0.34225  0.09276  1.0000
  H   H32       1.0  0.07325  0.39408  0.22583  1.0000
  H   H33       1.0  0.22351  0.39152  0.04816  1.0000
  H   H34       1.0  0.01343  0.39292  0.10856  1.0000
  C   C29       1.0  0.22328  0.39253  0.06145  1.0000
  C   C30       1.0  0.23834  0.43929  0.05702  1.0000
  H   H35       1.0  0.23235  0.38078  0.06720  1.0000
  N   N2        1.0  0.22839  0.40857  0.06047  1.0000
  C   C31       1.0  0.10873  0.46833  0.17282  1.0000
  C   C32       1.0  0.21623  0.42396  0.05995  1.0000
  H   H36       1.0  0.28203  0.35212  0.05072  1.0000
  C   C33       1.0  0.22101  0.43954  0.05820  1.0000
  C   C34       1.0  0.24544  0.40823  0.05914  1.0000
  C   C35       1.0  0.02576  0.39664  0.10310  1.0000
  C   C36       1.0  0.04485  0.41184  0.07942  1.0000
  C   C37       1.0  0.25064  0.42352  0.05756  1.0000
  C   C38       1.0  0.07848  0.47848  0.11690  1.0000
  C   C39       1.0  0.26709  0.48064  0.99389  1.0000
  H   H37       1.0  0.01515  0.40670  0.16508  1.0000
  H   H38       1.0  0.03786  0.44245  0.09322  1.0000
  H   H39       1.0  0.10192  0.45802  0.17391  1.0000
  C   C40       1.0  0.02420  0.44552  0.10045  1.0000
  C   C41       1.0  0.26971  0.46295  0.99448  1.0000
  H   H40       1.0  0.27479  0.44661  0.03627  1.0000
  H   H41       1.0  0.07756  0.37649  0.21509  1.0000
  H   H42       1.0  0.08105  0.36498  0.09073  1.0000
  C   C42       1.0  0.26861  0.47386  0.02424  1.0000
  C   C43       1.0  0.27258  0.45061  0.00975  1.0000
  H   H43       1.0  0.04375  0.34512  0.11302  1.0000
  C   C44       1.0  0.08039  0.38037  0.22578  1.0000
  H   H44       1.0  0.21006  0.39233  0.06964  1.0000
  C   C45       1.0  0.00276  0.42447  0.14481  1.0000
  H   H45       1.0  0.04505  0.40809  0.14765  1.0000
  C   C46       1.0  0.07356  0.35458  0.09627  1.0000
  N   N3        1.0  0.05741  0.35946  0.08994  1.0000
  N   N4        1.0  0.02182  0.43506  0.11831  1.0000
  C   C47       1.0  0.05676  0.36975  0.07367  1.0000
  C   C48       1.0  0.12141  0.47676  0.12416  1.0000
  H   H46       1.0  0.21134  0.45173  0.05764  1.0000
  C   C49       1.0  0.01705  0.41484  0.15203  1.0000
  H   H47       1.0  0.26417  0.42309  0.05658  1.0000
  C   C50       1.0  0.07655  0.46875  0.13406  1.0000
  H   H48       1.0  0.07256  0.46910  0.16104  1.0000
  Fe  Fe7       1.0  0.25268  0.43605  0.98581  1.0000
  H   H49       1.0  0.30155  0.48334  0.04264  1.0000
  C   C51       1.0  0.00540  0.43458  0.12785  1.0000
  C   C52       1.0  0.07398  0.47675  0.14782  1.0000
  C   C53       1.0  0.27252  0.45608  0.02449  1.0000
  H   H50       1.0  0.10399  0.38279  0.19602  1.0000
  C   C54       1.0  0.02693  0.36835  0.07775  1.0000
  H   H51       1.0  0.05456  0.48559  0.20209  1.0000
  H   H52       1.0  0.11185  0.45653  0.14452  1.0000
  H   H53       1.0  0.01640  0.35316  0.10250  1.0000
  S   S15       1.0  0.26500  0.48083  0.04346  1.0000
  H   H54       1.0  0.02056  0.45957  0.10054  1.0000
  C   C55       1.0  0.12681  0.38111  0.20484  1.0000
  H   H55       1.0  0.01486  0.37241  0.07321  1.0000
  C   C56       1.0  0.03376  0.41569  0.14233  1.0000
  N   N5        1.0  0.11492  0.47653  0.15463  1.0000
  H   H56       1.0  0.18588  0.47470  0.98983  1.0000
  H   H57       1.0  0.32008  0.46435  0.98996  1.0000
  C   C57       1.0  0.03590  0.42610  0.12546  1.0000
  H   H58       1.0  0.09925  0.47814  0.17971  1.0000
  H   H59       1.0  0.13477  0.38328  0.19180  1.0000
  H   H60       1.0  0.02582  0.47919  0.12957  1.0000
  H   H61       1.0  0.20794  0.47099  0.99206  1.0000
  C   C58       1.0  0.05345  0.48174  0.22951  1.0000
  H   H62       1.0  0.31299  0.34444  0.05200  1.0000
  H   H63       1.0  0.05296  0.46809  0.23265  1.0000
  C   C59       1.0  0.13368  0.37934  0.21918  1.0000
  H   H64       1.0  0.30472  0.42504  0.99594  1.0000
  H   H65       1.0  0.99201  0.47032  0.08672  1.0000
  H   H66       1.0  0.11983  0.46241  0.17944  1.0000
  C   C60       1.0  0.31925  0.36670  0.03223  1.0000
  C   C61       1.0  0.26620  0.48612  0.00884  1.0000
  C   C62       1.0  0.12765  0.47319  0.29100  1.0000
  Fe  Fe8       1.0  0.21905  0.03742  0.35715  1.0000
  S   S16       1.0  0.23667  0.05286  0.35922  1.0000
  S   S17       1.0  0.20064  0.04934  0.33890  1.0000
  H   H67       1.0  0.17849  0.09533  0.41913  1.0000
  S   S18       1.0  0.25019  0.01896  0.38895  1.0000
  H   H68       1.0  0.23142  0.06112  0.43637  1.0000
  Fe  Fe9       1.0  0.22820  0.04249  0.38772  1.0000
  S   S19       1.0  0.22147  0.06076  0.40547  1.0000
  Fe  Fe10      1.0  0.25708  0.02800  0.36008  1.0000
  S   S20       1.0  0.28536  0.02449  0.34675  1.0000
  S   S21       1.0  0.20937  0.02839  0.38572  1.0000
  S   S22       1.0  0.24045  0.01337  0.35480  1.0000
  Fe  Fe11      1.0  0.12217  0.43139  0.28013  1.0000
  C   C63       1.0  0.07672  0.14601  0.44319  1.0000
  Fe  Fe12      1.0  0.08976  0.43264  0.26885  1.0000
  S   S23       1.0  0.10318  0.41212  0.25360  1.0000
  S   S24       1.0  0.06144  0.44433  0.26947  1.0000
  Fe  Fe13      1.0  0.11572  0.39812  0.27625  1.0000
  S   S25       1.0  0.11970  0.36878  0.28497  1.0000
  S   S26       1.0  0.10038  0.41744  0.29242  1.0000
  H   H69       1.0  0.03306  0.44808  0.25325  1.0000
  S   S27       1.0  0.04702  0.22357  0.37439  1.0000
  Fe  Fe14      1.0  0.08861  0.28035  0.39691  1.0000
  S   S28       1.0  0.09689  0.29963  0.40541  1.0000
  S   S29       1.0  0.06156  0.27678  0.40732  1.0000
  Fe  Fe15      1.0  0.12367  0.26831  0.37555  1.0000
  S   S30       1.0  0.13552  0.28654  0.38224  1.0000
  S   S31       1.0  0.13955  0.25072  0.35756  1.0000
  Fe  Fe16      1.0  0.12047  0.27840  0.40942  1.0000
  S   S32       1.0  0.13069  0.26932  0.43416  1.0000
  Fe  Fe17      1.0  0.11097  0.30631  0.37757  1.0000
  S   S33       1.0  0.10921  0.33511  0.36585  1.0000
  S   S34       1.0  0.11094  0.25842  0.40301  1.0000
  S   S35       1.0  0.10029  0.28876  0.36868  1.0000
  Fe  Fe18      1.0  0.09096  0.13851  0.39683  1.0000
  S   S36       1.0  0.10621  0.15543  0.40058  1.0000
  S   S37       1.0  0.06225  0.14298  0.40795  1.0000
  Fe  Fe19      1.0  0.12164  0.12038  0.37276  1.0000
  S   S38       1.0  0.13948  0.13607  0.37387  1.0000
  S   S39       1.0  0.12791  0.10162  0.35536  1.0000
  Fe  Fe20      1.0  0.12741  0.13107  0.40235  1.0000
  S   S40       1.0  0.14383  0.12218  0.42232  1.0000
  Fe  Fe21      1.0  0.11679  0.15902  0.37192  1.0000
  S   S41       1.0  0.11784  0.18481  0.35297  1.0000
  S   S42       1.0  0.11105  0.11368  0.40149  1.0000
  S   S43       1.0  0.09997  0.14382  0.36798  1.0000
  C   C64       1.0  0.03304  0.10562  0.40288  1.0000
  C   C65       1.0  0.02879  0.12339  0.39530  1.0000
  C   C66       1.0  0.03818  0.13468  0.39645  1.0000
  C   C67       1.0  0.05213  0.12826  0.40486  1.0000
  C   C68       1.0  0.05692  0.11039  0.41184  1.0000
  C   C69       1.0  0.04729  0.09909  0.41095  1.0000
  H   H70       1.0  0.01835  0.12847  0.38843  1.0000
  H   H71       1.0  0.03477  0.14837  0.39060  1.0000
  H   H72       1.0  0.06768  0.10535  0.41841  1.0000
  H   H73       1.0  0.05072  0.08533  0.41677  1.0000
  C   C70       1.0  0.13467  0.23077  0.35886  1.0000
  C   C71       1.0  0.12108  0.22451  0.37145  1.0000
  C   C72       1.0  0.11670  0.20929  0.37078  1.0000
  C   C73       1.0  0.12581  0.20051  0.35740  1.0000
  C   C74       1.0  0.13955  0.20665  0.34516  1.0000
  C   C75       1.0  0.14408  0.22155  0.34601  1.0000
  H   H74       1.0  0.11366  0.23166  0.38131  1.0000
  H   H75       1.0  0.10574  0.20489  0.37999  1.0000
  H   H76       1.0  0.14639  0.20020  0.33459  1.0000
  H   H77       1.0  0.15454  0.22633  0.33623  1.0000
  C   C76       1.0  0.05240  0.23563  0.38582  1.0000
  C   C77       1.0  0.06920  0.23834  0.38231  1.0000
  C   C78       1.0  0.07223  0.25101  0.38889  1.0000
  C   C79       1.0  0.05854  0.26044  0.39943  1.0000
  C   C80       1.0  0.04210  0.25696  0.40367  1.0000
  C   C81       1.0  0.03905  0.24454  0.39692  1.0000
  H   H78       1.0  0.07963  0.23128  0.37391  1.0000
  H   H79       1.0  0.08502  0.25368  0.38554  1.0000
  H   H80       1.0  0.03159  0.26426  0.41178  1.0000
  H   H81       1.0  0.02620  0.24223  0.39980  1.0000
  H   H82       1.0  0.12811  0.26087  0.47118  1.0000
  C   C82       1.0  0.05763  0.29745  0.47480  1.0000
  H   H83       1.0  0.10181  0.20006  0.46172  1.0000
  C   C83       1.0  0.11929  0.28124  0.45022  1.0000
  C   C84       1.0  0.10903  0.29797  0.44589  1.0000
  C   C85       1.0  0.09982  0.30718  0.45887  1.0000
  Fe  Fe22      1.0  0.99647  0.10397  0.39166  1.0000
  H   H84       1.0  0.02920  0.46580  0.29072  1.0000
  H   H85       1.0  0.10845  0.30401  0.43250  1.0000
  H   H86       1.0  0.09183  0.32009  0.45544  1.0000
  C   C86       1.0  0.14554  0.16882  0.44069  1.0000
  C   C87       1.0  0.14982  0.15192  0.45066  1.0000
  C   C88       1.0  0.15013  0.13757  0.44453  1.0000
  C   C89       1.0  0.14605  0.14006  0.42844  1.0000
  C   C90       1.0  0.14268  0.15687  0.41799  1.0000
  C   C91       1.0  0.14265  0.17127  0.42404  1.0000
  H   H87       1.0  0.14764  0.47367  0.32856  1.0000
  H   H88       1.0  0.15266  0.12463  0.45270  1.0000
  H   H89       1.0  0.13994  0.15882  0.40533  1.0000
  H   H90       1.0  0.13982  0.18427  0.41603  1.0000
  C   C92       1.0  0.11536  0.35948  0.30751  1.0000
  C   C93       1.0  0.10970  0.36991  0.31970  1.0000
  C   C94       1.0  0.10742  0.36222  0.33755  1.0000
  C   C95       1.0  0.11068  0.34405  0.34340  1.0000
  C   C96       1.0  0.11611  0.33354  0.33126  1.0000
  C   C97       1.0  0.11846  0.34126  0.31335  1.0000
  H   H91       1.0  0.10737  0.38390  0.31541  1.0000
  H   H92       1.0  0.10328  0.37041  0.34688  1.0000
  H   H93       1.0  0.11879  0.31950  0.33565  1.0000
  H   H94       1.0  0.12289  0.33310  0.30399  1.0000
  C   C98       1.0  0.05621  0.39920  0.26318  1.0000
  C   C99       1.0  0.06138  0.41134  0.26854  1.0000
  C   C100      1.0  0.05348  0.42904  0.26446  1.0000
  C   C101      1.0  0.03944  0.43444  0.25617  1.0000
  H   H95       1.0  0.18136  0.05177  0.46291  1.0000
  H   H96       1.0  0.06263  0.38556  0.26608  1.0000
  H   H97       1.0  0.07151  0.40695  0.27588  1.0000
  H   H98       1.0  0.00044  0.42252  0.28560  1.0000
  C   C102      1.0  0.17991  0.06240  0.34538  1.0000
  C   C103      1.0  0.16859  0.06779  0.33393  1.0000
  C   C104      1.0  0.15262  0.07943  0.33751  1.0000
  C   C105      1.0  0.14782  0.08617  0.35243  1.0000
  C   C106      1.0  0.15895  0.08065  0.36419  1.0000
  C   C107      1.0  0.17496  0.06861  0.36074  1.0000
  H   H99       1.0  0.17227  0.06304  0.32210  1.0000
  H   H100      1.0  0.14407  0.08348  0.32845  1.0000
  H   H101      1.0  0.15522  0.08562  0.37588  1.0000
  H   H102      1.0  0.18357  0.06438  0.36973  1.0000
  C   C108      1.0  0.30152  0.04858  0.37437  1.0000
  C   C109      1.0  0.29088  0.04260  0.36761  1.0000
  C   C110      1.0  0.29830  0.03284  0.35485  1.0000
  S   S44       1.0  0.13341  0.43685  0.29976  1.0000
  H   H103      1.0  0.29570  0.05617  0.38421  1.0000
  H   H104      1.0  0.27695  0.04557  0.37226  1.0000
  C   C111      1.0  0.21408  0.02628  0.45988  1.0000
  H   H105      1.0  0.21626  0.08161  0.33687  1.0000
  H   H106      1.0  0.14739  0.33145  0.34560  1.0000
  S   S45       1.0  0.99428  0.13779  0.46731  1.0000
  C   C112      1.0  0.20964  0.03441  0.43039  1.0000
  C   C113      1.0  0.21837  0.04783  0.42650  1.0000
  C   C114      1.0  0.22465  0.05073  0.43939  1.0000
  C   C115      1.0  0.08254  0.46457  0.29842  1.0000
  C   C116      1.0  0.15469  0.22649  0.44336  1.0000
  H   H107      1.0  0.20444  0.03236  0.42058  1.0000
  N   N6        1.0  0.08298  0.23794  0.33804  1.0000
  C   C117      1.0  0.06728  0.24960  0.33925  1.0000
  C   C118      1.0  0.09757  0.24275  0.33816  1.0000
  C   C119      1.0  0.06590  0.26656  0.34065  1.0000
  C   C120      1.0  0.09668  0.25954  0.33970  1.0000
  C   C121      1.0  0.08072  0.27150  0.34096  1.0000
  C   C122      1.0  0.08402  0.21981  0.33805  1.0000
  H   H108      1.0  0.05562  0.24570  0.33956  1.0000
  H   H109      1.0  0.10997  0.23348  0.33734  1.0000
  H   H110      1.0  0.05335  0.27564  0.34175  1.0000
  H   H111      1.0  0.10830  0.26310  0.34015  1.0000
  H   H112      1.0  0.07986  0.28451  0.34230  1.0000
  H   H113      1.0  0.08306  0.21183  0.35159  1.0000
  H   H114      1.0  0.07339  0.21869  0.33280  1.0000
  H   H115      1.0  0.09657  0.21417  0.33007  1.0000
  H   H116      1.0  0.19997  0.01388  0.45021  1.0000
  S   S46       1.0  0.99643  0.38042  0.23714  1.0000
  H   H117      1.0  0.11297  0.14773  0.45406  1.0000
  C   C123      1.0  0.31638  0.02902  0.34896  1.0000
  C   C124      1.0  0.14143  0.45780  0.31527  1.0000
  H   H118      1.0  0.11976  0.21806  0.42854  1.0000
  H   H119      1.0  0.05222  0.23462  0.47368  1.0000
  H   H120      1.0  0.07243  0.28195  0.45605  1.0000
  H   H121      1.0  0.05011  0.30283  0.37746  1.0000
  C   C125      1.0  0.17953  0.07236  0.43991  1.0000
  N   N7        1.0  0.15924  0.22560  0.45971  1.0000
  C   C126      1.0  0.03451  0.31120  0.35801  1.0000
  C   C127      1.0  0.09163  0.21092  0.45744  1.0000
  C   C128      1.0  0.00725  0.32337  0.30204  1.0000
  C   C129      1.0  0.01788  0.31374  0.35507  1.0000
  H   H122      1.0  0.04305  0.18183  0.40511  1.0000
  H   H123      1.0  0.07517  0.37186  0.23818  1.0000
  H   H124      1.0  0.02363  0.42649  0.24412  1.0000
  C   C130      1.0  0.01628  0.44485  0.29556  1.0000
  H   H125      1.0  0.14251  0.37446  0.35346  1.0000
  C   C131      1.0  0.03401  0.42220  0.25111  1.0000
  N   N8        1.0  0.10366  0.12468  0.45891  1.0000
  H   H126      1.0  0.09468  0.44332  0.31674  1.0000
  H   H127      1.0  0.32161  0.00467  0.38317  1.0000
  C   C132      1.0  0.13426  0.45744  0.30179  1.0000
  H   H128      1.0  0.15910  0.19859  0.46931  1.0000
  H   H129      1.0  0.09839  0.46259  0.33317  1.0000
  H   H130      1.0  0.08884  0.16696  0.44056  1.0000
  Fe  Fe23      1.0  0.02049  0.23862  0.37024  1.0000
  C   C133      1.0  0.19576  0.09635  0.32364  1.0000
  N   N9        1.0  0.06054  0.10491  0.36423  1.0000
  C   C134      1.0  0.06749  0.11918  0.36053  1.0000
  C   C135      1.0  0.04529  0.10637  0.35964  1.0000
  H   H131      1.0  0.00733  0.18405  0.33079  1.0000
  C   C136      1.0  0.03637  0.12254  0.35152  1.0000
  C   C137      1.0  0.04310  0.13724  0.34811  1.0000
  C   C138      1.0  0.06987  0.08780  0.37242  1.0000
  H   H132      1.0  0.07977  0.11794  0.36387  1.0000
  H   H133      1.0  0.03975  0.09506  0.36257  1.0000
  C   C139      1.0  0.14770  0.38846  0.30971  1.0000
  H   H134      1.0  0.02421  0.12374  0.34800  1.0000
  H   H135      1.0  0.16058  0.12517  0.33990  1.0000
  H   H136      1.0  0.07854  0.08091  0.36227  1.0000
  H   H137      1.0  0.07786  0.08910  0.38076  1.0000
  H   H138      1.0  0.06061  0.07973  0.38098  1.0000
  C   C140      1.0  0.10301  0.14215  0.45288  1.0000
  C   C141      1.0  0.09005  0.45732  0.31294  1.0000
  S   S47       1.0  0.03727  0.38936  0.24663  1.0000
  C   C142      1.0  0.31960  0.04459  0.36864  1.0000
  Fe  Fe24      1.0  0.23233  0.00571  0.38375  1.0000
  H   H139      1.0  0.32218  0.02135  0.33919  1.0000
  C   C143      1.0  0.02952  0.30148  0.46045  1.0000
  C   C144      1.0  0.03728  0.30496  0.37494  1.0000
  C   C145      1.0  0.30229  0.99164  0.38283  1.0000
  S   S48       1.0  0.99550  0.23426  0.38846  1.0000
  C   C146      1.0  0.16459  0.23985  0.47898  1.0000
  C   C147      1.0  0.00292  0.17658  0.39304  1.0000
  S   S49       1.0  0.01415  0.26708  0.36972  1.0000
  S   S50       1.0  0.01338  0.29259  0.32584  1.0000
  H   H140      1.0  0.09743  0.37575  0.25073  1.0000
  C   C148      1.0  0.00363  0.09048  0.45658  1.0000
  H   H141      1.0  0.03061  0.17270  0.43525  1.0000
  C   C149      1.0  0.00042  0.42248  0.29917  1.0000
  C   C150      1.0  0.14524  0.37377  0.33994  1.0000
  H   H142      1.0  0.14081  0.40184  0.33052  1.0000
  C   C151      1.0  0.01684  0.46195  0.29467  1.0000
  C   C152      1.0  0.06565  0.23885  0.44680  1.0000
  H   H143      1.0  0.06799  0.12256  0.44719  1.0000
  C   C153      1.0  0.00051  0.30902  0.31253  1.0000
  H   H144      1.0  0.01582  0.31856  0.34186  1.0000
  C   C154      1.0  0.99759  0.33663  0.29104  1.0000
  S   S51       1.0  0.21135  0.01239  0.48051  1.0000
  C   C155      1.0  0.00883  0.25103  0.43921  1.0000
  N   N10       1.0  0.09317  0.21916  0.44025  1.0000
  C   C156      1.0  0.10873  0.21327  0.42764  1.0000
  S   S52       1.0  0.01148  0.24235  0.34577  1.0000
  Fe  Fe25      1.0  0.00319  0.27085  0.34647  1.0000
  H   H145      1.0  0.12831  0.37566  0.24706  1.0000
  H   H146      1.0  0.19649  0.11273  0.46037  1.0000
  N   N11       1.0  0.04193  0.30752  0.48086  1.0000
  C   C157      1.0  0.20721  0.02387  0.44714  1.0000
  C   C158      1.0  0.08055  0.23310  0.43491  1.0000
  H   H147      1.0  0.10671  0.21800  0.41408  1.0000
  C   C159      1.0  0.14204  0.47366  0.31807  1.0000
  S   S53       1.0  0.13830  0.41096  0.26524  1.0000
  H   H148      1.0  0.05563  0.24981  0.44237  1.0000
  C   C160      1.0  0.15286  0.35711  0.31846  1.0000
  H   H149      1.0  0.02009  0.32420  0.30228  1.0000
  C   C161      1.0  0.06379  0.23035  0.46432  1.0000
  C   C162      1.0  0.03155  0.18057  0.40193  1.0000
  H   H150      1.0  0.17531  0.11139  0.47411  1.0000
  C   C163      1.0  0.99841  0.25486  0.42704  1.0000
  H   H151      1.0  0.16088  0.21423  0.43873  1.0000
  S   S54       1.0  0.11009  0.44850  0.25778  1.0000
  H   H152      1.0  0.99575  0.16456  0.42009  1.0000
  H   H153      1.0  0.11231  0.19882  0.43029  1.0000
  C   C164      1.0  0.18220  0.11122  0.35232  1.0000
  H   H154      1.0  0.01189  0.41263  0.30313  1.0000
  H   H155      1.0  0.00929  0.16848  0.44184  1.0000
  H   H156      1.0  0.03609  0.14984  0.34198  1.0000
  C   C165      1.0  0.05881  0.13558  0.35258  1.0000
  H   H157      1.0  0.02832  0.43555  0.29244  1.0000
  C   C166      1.0  0.04267  0.40462  0.25427  1.0000
  C   C167      1.0  0.11155  0.28322  0.48056  1.0000
  H   H158      1.0  0.20080  0.08974  0.31294  1.0000
  H   H159      1.0  0.14661  0.44572  0.32363  1.0000
  C   C168      1.0  0.12050  0.27388  0.46761  1.0000
  H   H160      1.0  0.06426  0.14689  0.34994  1.0000
  H   H161      1.0  0.02549  0.29667  0.40190  1.0000
  C   C169      1.0  0.20445  0.09174  0.33731  1.0000
  C   C170      1.0  0.17998  0.10856  0.32450  1.0000
  H   H162      1.0  0.17272  0.11167  0.31437  1.0000
  H   H163      1.0  0.22075  0.09115  0.36145  1.0000
  N   N12       1.0  0.01934  0.17303  0.41447  1.0000
  H   H164      1.0  0.20326  0.08081  0.37432  1.0000
  S   S55       1.0  0.99419  0.15265  0.34243  1.0000
  N   N13       1.0  0.19767  0.09920  0.35139  1.0000
  C   C171      1.0  0.02343  0.30152  0.38869  1.0000
  C   C172      1.0  0.14426  0.38925  0.32711  1.0000
  H   H165      1.0  0.00301  0.34752  0.28289  1.0000
  C   C173      1.0  0.31879  0.99230  0.38391  1.0000
  C   C174      1.0  0.17316  0.11612  0.33887  1.0000
  C   C175      1.0  0.20643  0.09329  0.36608  1.0000
  H   H166      1.0  0.20247  0.10298  0.37434  1.0000
  C   C176      1.0  0.22269  0.03979  0.45604  1.0000
  H   H167      1.0  0.17651  0.11672  0.36371  1.0000
  H   H168      1.0  0.08189  0.23987  0.42138  1.0000
  S   S56       1.0  0.14142  0.18656  0.45026  1.0000
  C   C177      1.0  0.08944  0.15310  0.44512  1.0000
  C   C178      1.0  0.00675  0.26277  0.44952  1.0000
  N   N14       1.0  0.00446  0.30996  0.36859  1.0000
  H   H169      1.0  0.15587  0.34463  0.31494  1.0000
  S   S57       1.0  0.02059  0.09145  0.40267  1.0000
  C   C179      1.0  0.15111  0.34186  0.34906  1.0000
  H   H170      1.0  0.01897  0.23924  0.44017  1.0000
  N   N15       1.0  0.00077  0.43994  0.30015  1.0000
  H   H171      1.0  0.14223  0.34387  0.36163  1.0000
  H   H172      1.0  0.16467  0.33726  0.35093  1.0000
  H   H173      1.0  0.17743  0.06436  0.43249  1.0000
  N   N16       1.0  0.14942  0.35798  0.33552  1.0000
  H   H174      1.0  0.22790  0.04184  0.46580  1.0000
  C   C180      1.0  0.07787  0.12810  0.44872  1.0000
  H   H175      1.0  0.18372  0.11326  0.43598  1.0000
  H   H176      1.0  0.12219  0.47304  0.28047  1.0000
  C   C181      1.0  0.15197  0.37233  0.30531  1.0000
  H   H177      1.0  0.01364  0.18892  0.36690  1.0000
  H   H178      1.0  0.04704  0.28539  0.44332  1.0000
  C   C182      1.0  0.04564  0.29164  0.45383  1.0000
  H   H179      1.0  0.15243  0.14986  0.46337  1.0000
  H   H180      1.0  0.15414  0.37164  0.29183  1.0000
  H   H181      1.0  0.14038  0.22875  0.44527  1.0000
  H   H182      1.0  0.01832  0.30269  0.45527  1.0000
  C   C183      1.0  0.02185  0.16623  0.43239  1.0000
  C   C184      1.0  0.01519  0.18448  0.38025  1.0000
  H   H183      1.0  0.06601  0.15431  0.43736  1.0000
  H   H184      1.0  0.14695  0.40038  0.29968  1.0000
  Fe  Fe26      1.0  0.00863  0.39448  0.24881  1.0000
  H   H185      1.0  0.03948  0.19214  0.37474  1.0000
  H   H186      1.0  0.01220  0.08167  0.46485  1.0000
  C   C185      1.0  0.02966  0.18638  0.38466  1.0000
  C   C186      1.0  0.07687  0.21633  0.46972  1.0000
  Fe  Fe27      1.0  0.12428  0.42677  0.24386  1.0000
  C   C187      1.0  0.09208  0.46830  0.32221  1.0000
  H   H187      1.0  0.16558  0.25164  0.48185  1.0000
  H   H188      1.0  0.99631  0.30147  0.39606  1.0000
  C   C188      1.0  0.18339  0.09972  0.44192  1.0000
  C   C189      1.0  0.09155  0.11754  0.45655  1.0000
  C   C190      1.0  0.07751  0.48262  0.29316  1.0000
  S   S58       1.0  0.02175  0.25892  0.46260  1.0000
  H   H189      1.0  0.04513  0.31408  0.34722  1.0000
  H   H190      1.0  0.09227  0.10365  0.46096  1.0000
  H   H191      1.0  0.07556  0.20970  0.48333  1.0000
  H   H192      1.0  0.02160  0.10697  0.44287  1.0000
  H   H193      1.0  0.00021  0.24585  0.41900  1.0000
  H   H194      1.0  0.08079  0.45625  0.29113  1.0000
  N   N17       1.0  0.18576  0.09264  0.45857  1.0000
  C   C191      1.0  0.11772  0.11341  0.46743  1.0000
  C   C192      1.0  0.18499  0.07565  0.46611  1.0000
  H   H195      1.0  0.12815  0.10698  0.45791  1.0000
  H   H196      1.0  0.15907  0.23733  0.43289  1.0000
  H   H197      1.0  0.29238  0.00361  0.38132  1.0000
  C   C193      1.0  0.18814  0.10366  0.46865  1.0000
  H   H198      1.0  0.12340  0.12093  0.47291  1.0000
  C   C194      1.0  0.18176  0.06529  0.45695  1.0000
  H   H199      1.0  0.05194  0.48229  0.25601  1.0000
  H   H200      1.0  0.99686  0.21235  0.33996  1.0000
  C   C195      1.0  0.16084  0.21019  0.47186  1.0000
  C   C196      1.0  0.00139  0.47408  0.29857  1.0000
  C   C197      1.0  0.18035  0.08967  0.43233  1.0000
  Fe  Fe28      1.0  0.00802  0.14474  0.48363  1.0000
  C   C198      1.0  0.00524  0.17085  0.41021  1.0000
  C   C199      1.0  0.10567  0.37696  0.23780  1.0000
  C   C200      1.0  0.00698  0.30422  0.38528  1.0000
  C   C201      1.0  0.10111  0.29985  0.47622  1.0000
  H   H201      1.0  0.02775  0.15201  0.43450  1.0000
  C   C202      1.0  0.00880  0.10477  0.44439  1.0000
  C   C203      1.0  0.02789  0.30944  0.47401  1.0000
  H   H202      1.0  0.00123  0.12748  0.42481  1.0000
  S   S59       1.0  0.99656  0.10368  0.36449  1.0000
  C   C204      1.0  0.05982  0.28961  0.46102  1.0000
  H   H203      1.0  0.01527  0.31686  0.47929  1.0000
  S   S60       1.0  0.99248  0.38834  0.27566  1.0000
  C   C205      1.0  0.99585  0.18603  0.34095  1.0000
  N   N18       1.0  0.08652  0.48599  0.31730  1.0000
  C   C206      1.0  0.12314  0.37696  0.23580  1.0000
  C   C207      1.0  0.99737  0.11632  0.43430  1.0000
  H   H204      1.0  0.19448  0.09575  0.47963  1.0000
  H   H205      1.0  0.18701  0.06992  0.47923  1.0000
  Fe  Fe29      1.0  0.13326  0.17532  0.47863  1.0000
  C   C208      1.0  0.99361  0.27797  0.44823  1.0000
  H   H206      1.0  0.15899  0.25273  0.45376  1.0000
  C   C209      1.0  0.16087  0.24037  0.46316  1.0000
  S   S61       1.0  0.03719  0.14009  0.47647  1.0000
  H   H207      1.0  0.06852  0.29535  0.48071  1.0000
  H   H208      1.0  0.99180  0.17479  0.38958  1.0000
  H   H209      1.0  0.11285  0.10332  0.47852  1.0000
  H   H210      1.0  0.99191  0.28708  0.45618  1.0000
  S   S62       1.0  0.99192  0.42094  0.24071  1.0000
  H   H211      1.0  0.00163  0.48747  0.29763  1.0000
  H   H212      1.0  0.08178  0.31101  0.58440  1.0000
  C   C210      1.0  0.02885  0.44960  0.58865  1.0000
  C   C211      1.0  0.00325  0.37962  0.68508  1.0000
  Fe  Fe30      1.0  0.99920  0.28730  0.51523  1.0000
  H   H213      1.0  0.12248  0.40348  0.71446  1.0000
  H   H214      1.0  0.18785  0.99683  0.57019  1.0000
  S   S63       1.0  0.00662  0.23998  0.51016  1.0000
  C   C212      1.0  0.02637  0.17605  0.54001  1.0000
  N   N19       1.0  0.01328  0.44713  0.68735  1.0000
  H   H215      1.0  0.28193  0.99756  0.53749  1.0000
  H   H216      1.0  0.14592  0.35537  0.56156  1.0000
  H   H217      1.0  0.09125  0.37533  0.53504  1.0000
  C   C213      1.0  0.10764  0.39240  0.54851  1.0000
  H   H218      1.0  0.03242  0.42444  0.58368  1.0000
  C   C214      1.0  0.01102  0.43141  0.56187  1.0000
  C   C215      1.0  0.01588  0.16491  0.54111  1.0000
  Fe  Fe31      1.0  0.08515  0.40360  0.65045  1.0000
  S   S64       1.0  0.09405  0.42603  0.63037  1.0000
  S   S65       1.0  0.06906  0.40535  0.67713  1.0000
  Fe  Fe32      1.0  0.10228  0.37754  0.62719  1.0000
  S   S66       1.0  0.11337  0.39762  0.60556  1.0000
  S   S67       1.0  0.10693  0.34951  0.62528  1.0000
  Fe  Fe33      1.0  0.11932  0.40670  0.62614  1.0000
  S   S68       1.0  0.14521  0.41313  0.62157  1.0000
  Fe  Fe34      1.0  0.08724  0.41511  0.61159  1.0000
  S   S69       1.0  0.07709  0.43198  0.58807  1.0000
  S   S70       1.0  0.11097  0.38476  0.64743  1.0000
  S   S71       1.0  0.07557  0.39452  0.63221  1.0000
  H   H219      1.0  0.00863  0.45303  0.66172  1.0000
  S   S72       1.0  0.01703  0.39252  0.60000  1.0000
  C   C216      1.0  0.00817  0.36703  0.67497  1.0000
  H   H220      1.0  0.08390  0.14618  0.49897  1.0000
  H   H221      1.0  0.20927  0.00878  0.57650  1.0000
  H   H222      1.0  0.15653  0.43015  0.65866  1.0000
  Fe  Fe35      1.0  0.02615  0.37922  0.57780  1.0000
  S   S73       1.0  0.04794  0.38743  0.55628  1.0000
  H   H223      1.0  0.07002  0.47518  0.72176  1.0000
  H   H224      1.0  0.02176  0.47597  0.59206  1.0000
  S   S74       1.0  0.02478  0.35282  0.59510  1.0000
  H   H225      1.0  0.07998  0.46810  0.62015  1.0000
  H   H226      1.0  0.07016  0.13119  0.48596  1.0000
  S   S75       1.0  0.20935  0.06577  0.53016  1.0000
  C   C217      1.0  0.12834  0.47927  0.59703  1.0000
  H   H227      1.0  0.11128  0.38957  0.70007  1.0000
  H   H228      1.0  0.04009  0.38882  0.69709  1.0000
  C   C218      1.0  0.16469  0.20918  0.48777  1.0000
  C   C219      1.0  0.13012  0.40909  0.70220  1.0000
  C   C220      1.0  0.06327  0.14362  0.48904  1.0000
  H   H229      1.0  0.11001  0.40383  0.56819  1.0000
  H   H230      1.0  0.07829  0.46441  0.60002  1.0000
  H   H231      1.0  0.01870  0.41795  0.56567  1.0000
  C   C221      1.0  0.01973  0.46694  0.58576  1.0000
  C   C222      1.0  0.03730  0.16664  0.49087  1.0000
  Fe  Fe36      1.0  0.22415  0.01670  0.49931  1.0000
  H   H232      1.0  0.99992  0.37576  0.69911  1.0000
  H   H233      1.0  0.02919  0.32711  0.49551  1.0000
  Fe  Fe37      1.0  0.10083  0.17008  0.50605  1.0000
  S   S76       1.0  0.11637  0.19064  0.49816  1.0000
  S   S77       1.0  0.07176  0.17900  0.50992  1.0000
  Fe  Fe38      1.0  0.13315  0.14014  0.50373  1.0000
  S   S78       1.0  0.15134  0.15819  0.49577  1.0000
  S   S79       1.0  0.14159  0.11152  0.50294  1.0000
  Fe  Fe39      1.0  0.13281  0.17179  0.51615  1.0000
  S   S80       1.0  0.14344  0.17894  0.53499  1.0000
  C   C223      1.0  0.00230  0.39722  0.67689  1.0000
  S   S81       1.0  0.11594  0.15221  0.52579  1.0000
  C   C224      1.0  0.01134  0.38958  0.64873  1.0000
  Fe  Fe40      1.0  0.10604  0.31110  0.54644  1.0000
  S   S82       1.0  0.08091  0.30980  0.54166  1.0000
  S   S83       1.0  0.10391  0.33655  0.55349  1.0000
  Fe  Fe41      1.0  0.12402  0.27589  0.53678  1.0000
  S   S84       1.0  0.10006  0.27206  0.53190  1.0000
  S   S85       1.0  0.14840  0.25496  0.53354  1.0000
  Fe  Fe42      1.0  0.09680  0.30014  0.51801  1.0000
  C   C225      1.0  0.99338  0.30892  0.55141  1.0000
  Fe  Fe43      1.0  0.08702  0.28213  0.55603  1.0000
  S   S86       1.0  0.06836  0.26932  0.57768  1.0000
  S   S87       1.0  0.12166  0.30359  0.52134  1.0000
  S   S88       1.0  0.11123  0.28374  0.56230  1.0000
  C   C226      1.0  0.14002  0.41192  0.67172  1.0000
  C   C227      1.0  0.05739  0.25972  0.56885  1.0000
  C   C228      1.0  0.05413  0.26724  0.55217  1.0000
  C   C229      1.0  0.04670  0.25871  0.54449  1.0000
  C   C230      1.0  0.04303  0.24245  0.55330  1.0000
  C   C231      1.0  0.04631  0.23494  0.56997  1.0000
  C   C232      1.0  0.05322  0.24373  0.57788  1.0000
  H   H234      1.0  0.05742  0.27959  0.54515  1.0000
  H   H235      1.0  0.04433  0.26449  0.53157  1.0000
  S   S89       1.0  0.28558  0.01448  0.50050  1.0000
  H   H236      1.0  0.05587  0.23788  0.59074  1.0000
  C   C233      1.0  0.14437  0.20046  0.53366  1.0000
  C   C234      1.0  0.15579  0.20283  0.54221  1.0000
  C   C235      1.0  0.15676  0.21960  0.54211  1.0000
  C   C236      1.0  0.14595  0.23423  0.53391  1.0000
  C   C237      1.0  0.13433  0.23198  0.52539  1.0000
  C   C238      1.0  0.13365  0.21506  0.52512  1.0000
  H   H237      1.0  0.16406  0.19162  0.54888  1.0000
  H   H238      1.0  0.16587  0.22124  0.54856  1.0000
  H   H239      1.0  0.12625  0.24325  0.51861  1.0000
  H   H240      1.0  0.12474  0.21334  0.51853  1.0000
  C   C239      1.0  0.06217  0.16812  0.50067  1.0000
  H   H241      1.0  0.02767  0.42599  0.67534  1.0000
  H   H242      1.0  0.11349  0.39679  0.67712  1.0000
  C   C240      1.0  0.19058  0.07835  0.52241  1.0000
  C   C241      1.0  0.18120  0.07107  0.51555  1.0000
  C   C242      1.0  0.16600  0.08130  0.50992  1.0000
  C   C243      1.0  0.16022  0.09889  0.51091  1.0000
  C   C244      1.0  0.16960  0.10614  0.51778  1.0000
  C   C245      1.0  0.18466  0.09585  0.52362  1.0000
  H   H243      1.0  0.18558  0.05756  0.51469  1.0000
  H   H244      1.0  0.15872  0.07560  0.50471  1.0000
  H   H245      1.0  0.16524  0.11967  0.51864  1.0000
  H   H246      1.0  0.19181  0.10154  0.52900  1.0000
  H   H247      1.0  0.00703  0.43605  0.62811  1.0000
  C   C246      1.0  0.12918  0.37986  0.56615  1.0000
  H   H248      1.0  0.03817  0.44512  0.59701  1.0000
  S   S90       1.0  0.15341  0.48225  0.63530  1.0000
  Fe  Fe44      1.0  0.01115  0.26365  0.48952  1.0000
  Fe  Fe45      1.0  0.22856  0.00008  0.53600  1.0000
  H   H249      1.0  0.07749  0.41429  0.73040  1.0000
  C   C247      1.0  0.01196  0.37206  0.65674  1.0000
  C   C248      1.0  0.04524  0.17533  0.49793  1.0000
  C   C249      1.0  0.99303  0.46405  0.70702  1.0000
  H   H250      1.0  0.15239  0.46218  0.58800  1.0000
  C   C250      1.0  0.10511  0.34549  0.60585  1.0000
  C   C251      1.0  0.09708  0.35880  0.59378  1.0000
  C   C252      1.0  0.09599  0.35551  0.57826  1.0000
  C   C253      1.0  0.10339  0.33905  0.57436  1.0000
  C   C254      1.0  0.11107  0.32555  0.58660  1.0000
  C   C255      1.0  0.11181  0.32876  0.60237  1.0000
  H   H251      1.0  0.09172  0.37163  0.59644  1.0000
  H   H252      1.0  0.08952  0.36586  0.56913  1.0000
  H   H253      1.0  0.11683  0.31279  0.58377  1.0000
  H   H254      1.0  0.11797  0.31835  0.61172  1.0000
  C   C256      1.0  0.07006  0.41927  0.57855  1.0000
  C   C257      1.0  0.06731  0.42535  0.56154  1.0000
  C   C258      1.0  0.06114  0.41525  0.55430  1.0000
  C   C259      1.0  0.05747  0.39925  0.56423  1.0000
  C   C260      1.0  0.06027  0.39323  0.58112  1.0000
  C   C261      1.0  0.06671  0.40314  0.58816  1.0000
  H   H255      1.0  0.06979  0.43790  0.55404  1.0000
  H   H256      1.0  0.05874  0.42004  0.54127  1.0000
  H   H257      1.0  0.05745  0.38088  0.58885  1.0000
  H   H258      1.0  0.06865  0.39836  0.60121  1.0000
  H   H259      1.0  0.15497  0.43920  0.68554  1.0000
  C   C262      1.0  0.13388  0.45928  0.63627  1.0000
  C   C263      1.0  0.13203  0.44385  0.63331  1.0000
  C   C264      1.0  0.14658  0.43253  0.62574  1.0000
  C   C265      1.0  0.16288  0.43657  0.62137  1.0000
  C   C266      1.0  0.16473  0.45182  0.62443  1.0000
  H   H260      1.0  0.01503  0.43574  0.54756  1.0000
  H   H261      1.0  0.11942  0.44077  0.63693  1.0000
  H   H262      1.0  0.17418  0.42784  0.61562  1.0000
  C   C267      1.0  0.14911  0.42430  0.67094  1.0000
  S   S91       1.0  0.20695  0.01992  0.52510  1.0000
  C   C268      1.0  0.01883  0.19185  0.54515  1.0000
  H   H263      1.0  0.11113  0.36646  0.52164  1.0000
  C   C269      1.0  0.99635  0.44109  0.62148  1.0000
  H   H264      1.0  0.04346  0.22238  0.57681  1.0000
  C   C270      1.0  0.18597  0.01084  0.56832  1.0000
  S   S92       1.0  0.01777  0.35636  0.64412  1.0000
  C   C271      1.0  0.14836  0.42927  0.68608  1.0000
  H   H265      1.0  0.10301  0.38975  0.51780  1.0000
  C   C272      1.0  0.99167  0.33101  0.56690  1.0000
  H   H266      1.0  0.13490  0.37996  0.57657  1.0000
  N   N20       1.0  0.11368  0.37872  0.54044  1.0000
  Fe  Fe46      1.0  0.99790  0.35911  0.59009  1.0000
  H   H267      1.0  0.00874  0.35343  0.68126  1.0000
  C   C273      1.0  0.20900  0.04219  0.57278  1.0000
  Fe  Fe47      1.0  0.01267  0.36680  0.61688  1.0000
  C   C274      1.0  0.17190  0.02216  0.56168  1.0000
  C   C275      1.0  0.08948  0.43106  0.70771  1.0000
  C   C276      1.0  0.09267  0.43606  0.68952  1.0000
  C   C277      1.0  0.08655  0.42813  0.68001  1.0000
  C   C278      1.0  0.07687  0.41548  0.68870  1.0000
  C   C279      1.0  0.07342  0.41071  0.70690  1.0000
  C   C280      1.0  0.07996  0.41828  0.71638  1.0000
  H   H268      1.0  0.10010  0.44589  0.68275  1.0000
  H   H269      1.0  0.08917  0.43198  0.66598  1.0000
  H   H270      1.0  0.06595  0.40092  0.71371  1.0000
  H   H271      1.0  0.13009  0.37936  0.68591  1.0000
  H   H272      1.0  0.01509  0.44410  0.71355  1.0000
  C   C281      1.0  0.18220  0.04651  0.56276  1.0000
  H   H273      1.0  0.99712  0.43082  0.56531  1.0000
  H   H274      1.0  0.09785  0.47642  0.72706  1.0000
  C   C282      1.0  0.29962  0.00850  0.51509  1.0000
  C   C283      1.0  0.15028  0.46327  0.63180  1.0000
  S   S93       1.0  0.24203  0.02001  0.53690  1.0000
  N   N21       1.0  0.19593  0.03532  0.56935  1.0000
  C   C284      1.0  0.10438  0.37757  0.52804  1.0000
  S   S94       1.0  0.01358  0.40175  0.72892  1.0000
  H   H275      1.0  0.22021  0.04244  0.56153  1.0000
  C   C285      1.0  0.99350  0.21308  0.55659  1.0000
  N   N22       1.0  0.13047  0.40470  0.68719  1.0000
  C   C286      1.0  0.12757  0.36576  0.54469  1.0000
  H   H276      1.0  0.32001  0.01828  0.49539  1.0000
  C   C287      1.0  0.00463  0.46041  0.56780  1.0000
  H   H277      1.0  0.03826  0.18770  0.50121  1.0000
  H   H278      1.0  0.03254  0.42466  0.69562  1.0000
  S   S95       1.0  0.03518  0.23103  0.54321  1.0000
  Fe  Fe48      1.0  0.25673  0.01653  0.51031  1.0000
  C   C288      1.0  0.13895  0.42151  0.70186  1.0000
  N   N23       1.0  0.05739  0.32369  0.57798  1.0000
  C   C289      1.0  0.05811  0.33898  0.56581  1.0000
  C   C290      1.0  0.04681  0.31348  0.57794  1.0000
  C   C291      1.0  0.04786  0.34450  0.55333  1.0000
  C   C292      1.0  0.03646  0.31858  0.56560  1.0000
  C   C293      1.0  0.03704  0.33418  0.55322  1.0000
  C   C294      1.0  0.06874  0.31780  0.59049  1.0000
  H   H279      1.0  0.06655  0.34705  0.56574  1.0000
  H   H280      1.0  0.04639  0.30123  0.58740  1.0000
  H   H281      1.0  0.04840  0.35668  0.54380  1.0000
  H   H282      1.0  0.02808  0.31044  0.56566  1.0000
  H   H283      1.0  0.02921  0.33820  0.54350  1.0000
  H   H284      1.0  0.06345  0.30872  0.60237  1.0000
  C   C295      1.0  0.16672  0.22410  0.49124  1.0000
  H   H285      1.0  0.07011  0.32903  0.59466  1.0000
  C   C296      1.0  0.07112  0.15217  0.49632  1.0000
  S   S96       1.0  0.99992  0.38491  0.57159  1.0000
  C   C297      1.0  0.02921  0.43391  0.68356  1.0000
  H   H286      1.0  0.02709  0.20054  0.54382  1.0000
  H   H287      1.0  0.13209  0.35463  0.53868  1.0000
  S   S97       1.0  0.02542  0.27191  0.50440  1.0000
  N   N24       1.0  0.01377  0.44347  0.57055  1.0000
  C   C298      1.0  0.11206  0.45524  0.59406  1.0000
  H   H288      1.0  0.02153  0.15281  0.53672  1.0000
  H   H289      1.0  0.13803  0.42542  0.71372  1.0000
  C   C299      1.0  0.13545  0.36608  0.55767  1.0000
  H   H290      1.0  0.13788  0.44048  0.58546  1.0000
  H   H291      1.0  0.09654  0.40252  0.54528  1.0000
  C   C300      1.0  0.13017  0.45236  0.58949  1.0000
  H   H292      1.0  0.18084  0.06051  0.56013  1.0000
  C   C301      1.0  0.19805  0.01769  0.57191  1.0000
  H   H293      1.0  0.20371  0.05576  0.57462  1.0000
  Fe  Fe49      1.0  0.22186  0.03959  0.52324  1.0000
  C   C302      1.0  0.08346  0.47216  0.60574  1.0000
  C   C303      1.0  0.12093  0.39191  0.68764  1.0000
  S   S98       1.0  0.08858  0.31114  0.49240  1.0000
  N   N25       1.0  0.00136  0.19624  0.55170  1.0000
  H   H294      1.0  0.04026  0.17259  0.53500  1.0000
  H   H295      1.0  0.16586  0.19697  0.49746  1.0000
  H   H296      1.0  0.01473  0.39351  0.63477  1.0000
  C   C304      1.0  0.30720  0.99367  0.54309  1.0000
  H   H297      1.0  0.05194  0.31934  0.49495  1.0000
  H   H298      1.0  0.21365  0.03407  0.58466  1.0000
  H   H299      1.0  0.16961  0.22355  0.50356  1.0000
  H   H300      1.0  0.15941  0.04911  0.55318  1.0000
  C   C305      1.0  0.02556  0.43795  0.58103  1.0000
  C   C306      1.0  0.11525  0.39319  0.56148  1.0000
  C   C307      1.0  0.31644  0.01140  0.50869  1.0000
  H   H301      1.0  0.02430  0.17235  0.48871  1.0000
  C   C308      1.0  0.00745  0.47239  0.57537  1.0000
  C   C309      1.0  0.00433  0.45607  0.67449  1.0000
  S   S99       1.0  0.24462  0.99520  0.51035  1.0000
  H   H302      1.0  0.03703  0.30574  0.50799  1.0000
  H   H303      1.0  0.10584  0.44562  0.59309  1.0000
  H   H304      1.0  0.17742  0.45479  0.62101  1.0000
  C   C310      1.0  0.17002  0.04013  0.55878  1.0000
  C   C311      1.0  0.00791  0.45106  0.70340  1.0000
  S   S100      1.0  0.99438  0.41380  0.68854  1.0000
  H   H305      1.0  0.07693  0.48609  0.60185  1.0000
  Fe  Fe50      1.0  0.01800  0.24996  0.52609  1.0000
  N   N26       1.0  0.05051  0.35840  0.67318  1.0000
  C   C312      1.0  0.04817  0.34406  0.68626  1.0000
  C   C313      1.0  0.04774  0.37430  0.67697  1.0000
  C   C314      1.0  0.04265  0.34551  0.70364  1.0000
  C   C315      1.0  0.04225  0.37618  0.69419  1.0000
  C   C316      1.0  0.03971  0.36169  0.70759  1.0000
  C   C317      1.0  0.05683  0.35659  0.65509  1.0000
  H   H306      1.0  0.05051  0.33144  0.68327  1.0000
  H   H307      1.0  0.04972  0.38566  0.66667  1.0000
  H   H308      1.0  0.04072  0.33417  0.71403  1.0000
  S   S101      1.0  0.23770  0.03783  0.49658  1.0000
  H   H309      1.0  0.03554  0.36298  0.72102  1.0000
  H   H310      1.0  0.07121  0.35454  0.65148  1.0000
  H   H311      1.0  0.05303  0.34547  0.65303  1.0000
  H   H312      1.0  0.05103  0.36836  0.64607  1.0000
  N   N27       1.0  0.09204  0.21126  0.54987  1.0000
  C   C318      1.0  0.10287  0.19698  0.55766  1.0000
  C   C319      1.0  0.09094  0.22745  0.55217  1.0000
  C   C320      1.0  0.11320  0.19876  0.56780  1.0000
  C   C321      1.0  0.10093  0.22967  0.56238  1.0000
  C   C322      1.0  0.11225  0.21524  0.57008  1.0000
  C   C323      1.0  0.08090  0.20904  0.53978  1.0000
  H   H313      1.0  0.10396  0.18415  0.55569  1.0000
  H   H314      1.0  0.08234  0.23877  0.54608  1.0000
  H   H315      1.0  0.12231  0.18749  0.57332  1.0000
  H   H316      1.0  0.09997  0.24253  0.56422  1.0000
  H   H317      1.0  0.12045  0.21690  0.57758  1.0000
  H   H318      1.0  0.06892  0.20548  0.54865  1.0000
  H   H319      1.0  0.07692  0.22126  0.53022  1.0000
  H   H320      1.0  0.08769  0.19870  0.53240  1.0000
  C   C324      1.0  0.00656  0.40207  0.65878  1.0000
  H   H321      1.0  0.04028  0.44023  0.67671  1.0000
  S   S102      1.0  0.09808  0.44042  0.71932  1.0000
  H   H322      1.0  0.14052  0.40826  0.65984  1.0000
  H   H323      1.0  0.99990  0.48572  0.57352  1.0000
  N   N28       1.0  0.10235  0.46977  0.60002  1.0000
  H   H324      1.0  0.00597  0.41561  0.65256  1.0000
  H   H325      1.0  0.16269  0.01700  0.55844  1.0000
  H   H326      1.0  0.12265  0.46801  0.64207  1.0000
  H   H327      1.0  0.99311  0.29574  0.55175  1.0000
  C   C325      1.0  0.13833  0.46451  0.59094  1.0000
  S   S103      1.0  0.99327  0.13136  0.50878  1.0000
  C   C326      1.0  0.29489  0.99986  0.53244  1.0000
  C   C327      1.0  0.04638  0.15082  0.48626  1.0000
  C   C328      1.0  0.03994  0.31529  0.49553  1.0000
  S   S104      1.0  0.99617  0.47199  0.62735  1.0000
  H   H328      1.0  0.99493  0.46465  0.55989  1.0000
  C   C329      1.0  0.99808  0.16951  0.54771  1.0000
  H   H329      1.0  0.11254  0.27743  0.49392  1.0000
  C   C330      1.0  0.32415  0.99635  0.53651  1.0000
  H   H330      1.0  0.99665  0.41630  0.61763  1.0000
  H   H331      1.0  0.00319  0.21837  0.55951  1.0000
  C   C331      1.0  0.11027  0.48164  0.60167  1.0000
  C   C332      1.0  0.99572  0.33810  0.53537  1.0000
  C   C333      1.0  0.99390  0.34309  0.55099  1.0000
  H   H332      1.0  0.99719  0.34757  0.52315  1.0000
  C   C334      1.0  0.99541  0.32101  0.53551  1.0000
  S   S105      1.0  0.99749  0.31526  0.51565  1.0000
  H   H333      1.0  0.99397  0.35631  0.55076  1.0000
  S   S106      1.0  0.99270  0.26564  0.53799  1.0000
  S   S107      1.0  0.11634  0.15645  0.48492  1.0000
  H   H334      1.0  0.15250  0.43962  0.89530  1.0000
  C   C335      1.0  0.24684  0.45871  0.92618  1.0000
  S   S108      1.0  0.02127  0.35685  0.75866  1.0000
  H   H335      1.0  0.25925  0.41820  0.91932  1.0000
  H   H336      1.0  0.06711  0.47468  0.81312  1.0000
  C   C336      1.0  0.07209  0.47869  0.76700  1.0000
  C   C337      1.0  0.29823  0.36287  0.91226  1.0000
  Fe  Fe51      1.0  0.09874  0.42520  0.74671  1.0000
  C   C338      1.0  0.99453  0.45414  0.75912  1.0000
  C   C339      1.0  0.27063  0.42771  0.93419  1.0000
  H   H337      1.0  0.31166  0.43019  0.96409  1.0000
  Fe  Fe52      1.0  0.12302  0.40876  0.77220  1.0000
  S   S109      1.0  0.10170  0.39997  0.79382  1.0000
  S   S110      1.0  0.15065  0.40675  0.77373  1.0000
  H   H338      1.0  0.11839  0.41363  0.86282  1.0000
  S   S111      1.0  0.07525  0.41838  0.76624  1.0000
  C   C340      1.0  0.10626  0.45784  0.82488  1.0000
  Fe  Fe53      1.0  0.08559  0.42637  0.78465  1.0000
  H   H339      1.0  0.23539  0.43410  0.90649  1.0000
  Fe  Fe54      1.0  0.09323  0.39256  0.77357  1.0000
  S   S112      1.0  0.08532  0.36691  0.78069  1.0000
  S   S113      1.0  0.10741  0.43580  0.76444  1.0000
  S   S114      1.0  0.11622  0.39875  0.75260  1.0000
  H   H340      1.0  0.06884  0.38949  0.80660  1.0000
  S   S115      1.0  0.12273  0.46447  0.82942  1.0000
  Fe  Fe55      1.0  0.18851  0.40902  0.85071  1.0000
  S   S116      1.0  0.18365  0.43573  0.85572  1.0000
  S   S117      1.0  0.16579  0.40105  0.84721  1.0000
  Fe  Fe56      1.0  0.22543  0.39885  0.85600  1.0000
  S   S118      1.0  0.22341  0.42448  0.86176  1.0000
  Fe  Fe57      1.0  0.19718  0.42203  0.87783  1.0000
  S   S119      1.0  0.18749  0.43190  0.90262  1.0000
  Fe  Fe58      1.0  0.21029  0.43589  0.83935  1.0000
  S   S120      1.0  0.21906  0.45887  0.82043  1.0000
  S   S121      1.0  0.20008  0.39511  0.87430  1.0000
  S   S122      1.0  0.21409  0.41051  0.83216  1.0000
  H   H341      1.0  0.24014  0.39492  0.88431  1.0000
  C   C341      1.0  0.20131  0.42235  0.91748  1.0000
  C   C342      1.0  0.19983  0.42995  0.93131  1.0000
  C   C343      1.0  0.21149  0.42277  0.94264  1.0000
  C   C344      1.0  0.22451  0.40786  0.94026  1.0000
  C   C345      1.0  0.22563  0.40010  0.92669  1.0000
  C   C346      1.0  0.21413  0.40733  0.91534  1.0000
  H   H342      1.0  0.18983  0.44152  0.93314  1.0000
  H   H343      1.0  0.21043  0.42880  0.95314  1.0000
  H   H344      1.0  0.23549  0.38851  0.92482  1.0000
  H   H345      1.0  0.21506  0.40119  0.90498  1.0000
  H   H346      1.0  0.30467  0.35233  0.88937  1.0000
  C   C347      1.0  0.23028  0.46666  0.83088  1.0000
  C   C348      1.0  0.25904  0.42940  0.92385  1.0000
  H   H347      1.0  0.15523  0.38521  0.90181  1.0000
  H   H348      1.0  0.07286  0.47928  0.77980  1.0000
  C   C349      1.0  0.15512  0.40442  0.79422  1.0000
  C   C350      1.0  0.17144  0.40583  0.79527  1.0000
  C   C351      1.0  0.17499  0.40477  0.81144  1.0000
  C   C352      1.0  0.16229  0.40205  0.82665  1.0000
  C   C353      1.0  0.14616  0.40026  0.82561  1.0000
  C   C354      1.0  0.14251  0.40165  0.80946  1.0000
  H   H349      1.0  0.18129  0.40787  0.78352  1.0000
  H   H350      1.0  0.18759  0.40580  0.81215  1.0000
  H   H351      1.0  0.13635  0.39790  0.83732  1.0000
  H   H352      1.0  0.12998  0.40043  0.80884  1.0000
  C   C355      1.0  0.01798  0.38240  0.79516  1.0000
  C   C356      1.0  0.25392  0.39416  0.88017  1.0000
  C   C357      1.0  0.10912  0.44092  0.82266  1.0000
  C   C358      1.0  0.09728  0.43640  0.81624  1.0000
  H   H353      1.0  0.12089  0.43153  0.82497  1.0000
  H   H354      1.0  0.09994  0.42349  0.81398  1.0000
  H   H355      1.0  0.29732  0.38521  0.93085  1.0000
  C   C359      1.0  0.28010  0.41478  0.82178  1.0000
  N   N29       1.0  0.24748  0.44480  0.91980  1.0000
  S   S123      1.0  0.25205  0.38098  0.85414  1.0000
  C   C360      1.0  0.09094  0.46991  0.82174  1.0000
  H   H356      1.0  0.18527  0.46335  0.77025  1.0000
  N   N30       1.0  0.16710  0.45176  0.79115  1.0000
  S   S124      1.0  0.28967  0.40772  0.89540  1.0000
  H   H357      1.0  0.29709  0.36480  0.94684  1.0000
  H   H358      1.0  0.05682  0.41171  0.80343  1.0000
  H   H359      1.0  0.25651  0.43885  0.85126  1.0000
  C   C361      1.0  0.28630  0.44124  0.85651  1.0000
  Fe  Fe59      1.0  0.31801  0.40752  0.88719  1.0000
  H   H360      1.0  0.25180  0.35735  0.91786  1.0000
  C   C362      1.0  0.26494  0.35867  0.91629  1.0000
  C   C363      1.0  0.14819  0.45583  0.76632  1.0000
  H   H361      1.0  0.30368  0.39030  0.86625  1.0000
  H   H362      1.0  0.22298  0.45399  0.91250  1.0000
  C   C364      1.0  0.29849  0.42356  0.83460  1.0000
  H   H363      1.0  0.01371  0.46749  0.75884  1.0000
  C   C365      1.0  0.03987  0.36011  0.76302  1.0000
  C   C366      1.0  0.04355  0.37668  0.75893  1.0000
  C   C367      1.0  0.05793  0.37892  0.76358  1.0000
  C   C368      1.0  0.06853  0.36461  0.77256  1.0000
  C   C369      1.0  0.06500  0.34806  0.77633  1.0000
  C   C370      1.0  0.05084  0.34581  0.77148  1.0000
  H   H364      1.0  0.03513  0.38790  0.75264  1.0000
  H   H365      1.0  0.06049  0.39175  0.76063  1.0000
  H   H366      1.0  0.07315  0.33694  0.78324  1.0000
  H   H367      1.0  0.04816  0.33297  0.77467  1.0000
  C   C371      1.0  0.26331  0.38681  0.86609  1.0000
  N   N31       1.0  0.28415  0.43186  0.84475  1.0000
  C   C372      1.0  0.29462  0.35580  0.90034  1.0000
  C   C373      1.0  0.07878  0.46521  0.81583  1.0000
  H   H368      1.0  0.27507  0.44200  0.86772  1.0000
  H   H369      1.0  0.14568  0.48464  0.83071  1.0000
  S   S125      1.0  0.24021  0.39899  0.95327  1.0000
  H   H370      1.0  0.28869  0.37919  0.85038  1.0000
  C   C374      1.0  0.26786  0.43213  0.84336  1.0000
  S   S126      1.0  0.06859  0.44349  0.80255  1.0000
  C   C375      1.0  0.14215  0.44832  0.78367  1.0000
  C   C376      1.0  0.05577  0.47737  0.74779  1.0000
  H   H371      1.0  0.14733  0.44001  0.80932  1.0000
  H   H372      1.0  0.24187  0.45418  0.89471  1.0000
  H   H373      1.0  0.17540  0.48614  0.88690  1.0000
  H   H374      1.0  0.20102  0.48596  0.97331  1.0000
  S   S127      1.0  0.26846  0.45650  0.97638  1.0000
  C   C377      1.0  0.03005  0.37008  0.80399  1.0000
  H   H375      1.0  0.25265  0.42383  0.83080  1.0000
  C   C378      1.0  0.17742  0.44914  0.80408  1.0000
  H   H376      1.0  0.27763  0.38183  0.94609  1.0000
  C   C379      1.0  0.01860  0.39998  0.79083  1.0000
  H   H377      1.0  0.08857  0.48301  0.82355  1.0000
  H   H378      1.0  0.03173  0.41864  0.79199  1.0000
  H   H379      1.0  0.11350  0.43621  0.86357  1.0000
  C   C380      1.0  0.26906  0.36549  0.92809  1.0000
  C   C381      1.0  0.28980  0.39144  0.87009  1.0000
  N   N32       1.0  0.13402  0.42010  0.87610  1.0000
  C   C382      1.0  0.13850  0.43315  0.88002  1.0000
  C   C383      1.0  0.13978  0.40306  0.88391  1.0000
  C   C384      1.0  0.14875  0.42932  0.89230  1.0000
  C   C385      1.0  0.15023  0.39875  0.89609  1.0000
  C   C386      1.0  0.15468  0.41200  0.90032  1.0000
  H   H380      1.0  0.16959  0.44651  0.81757  1.0000
  H   H381      1.0  0.13439  0.44656  0.87335  1.0000
  H   H382      1.0  0.13705  0.39265  0.88008  1.0000
  H   H383      1.0  0.27466  0.34905  0.89275  1.0000
  C   C387      1.0  0.31390  0.44266  0.96385  1.0000
  C   C388      1.0  0.15188  0.44629  0.79596  1.0000
  N   N33       1.0  0.05662  0.47869  0.76378  1.0000
  H   H384      1.0  0.13304  0.42721  0.84952  1.0000
  H   H385      1.0  0.22845  0.47211  0.87095  1.0000
  C   C389      1.0  0.08223  0.44858  0.81258  1.0000
  H   H386      1.0  0.27913  0.44060  0.94866  1.0000
  C   C390      1.0  0.26224  0.40050  0.88895  1.0000
  C   C391      1.0  0.28136  0.38505  0.86123  1.0000
  H   H387      1.0  0.16303  0.40885  0.90952  1.0000
  C   C392      1.0  0.17318  0.45905  0.77413  1.0000
  H   H388      1.0  0.18244  0.46090  0.80229  1.0000
  C   C393      1.0  0.22441  0.46632  0.84862  1.0000
  H   H389      1.0  0.25009  0.47267  0.80816  1.0000
  C   C394      1.0  0.24543  0.47251  0.82188  1.0000
  H   H390      1.0  0.04361  0.47686  0.74537  1.0000
  C   C395      1.0  0.23327  0.47223  0.85730  1.0000
  C   C396      1.0  0.08627  0.47714  0.73737  1.0000
  S   S128      1.0  0.22841  0.43893  0.97676  1.0000
  C   C397      1.0  0.28958  0.37525  0.93803  1.0000
  C   C398      1.0  0.04256  0.37552  0.80849  1.0000
  H   H391      1.0  0.05230  0.36580  0.81481  1.0000
  C   C399      1.0  0.03125  0.40497  0.79558  1.0000
  H   H392      1.0  0.25470  0.40631  0.89968  1.0000
  H   H393      1.0  0.00864  0.37817  0.79113  1.0000
  H   H394      1.0  0.05223  0.39705  0.82415  1.0000
  N   N34       1.0  0.04298  0.39277  0.80434  1.0000
  C   C400      1.0  0.05582  0.39806  0.80990  1.0000
  H   H395      1.0  0.21291  0.46155  0.85565  1.0000
  H   H396      1.0  0.03013  0.35633  0.80669  1.0000
  C   C401      1.0  0.23639  0.44688  0.90776  1.0000
  C   C402      1.0  0.15623  0.48019  0.86918  1.0000
  S   S129      1.0  0.00987  0.43735  0.75074  1.0000
  H   H397      1.0  0.00960  0.40965  0.78351  1.0000
  H   H398      1.0  0.25899  0.36913  0.93899  1.0000
  H   H399      1.0  0.14085  0.45737  0.75662  1.0000
  Fe  Fe60      1.0  0.00225  0.38124  0.74943  1.0000
  C   C403      1.0  0.26559  0.42367  0.83182  1.0000
  C   C404      1.0  0.18030  0.48435  0.84580  1.0000
  C   C405      1.0  0.28012  0.39933  0.88389  1.0000
  C   C406      1.0  0.18348  0.48046  0.87569  1.0000
  N   N35       1.0  0.28544  0.36784  0.92576  1.0000
  C   C407      1.0  0.27020  0.44185  0.94060  1.0000
  C   C408      1.0  0.29668  0.41476  0.82308  1.0000
  C   C409      1.0  0.32073  0.47422  0.96266  1.0000
  S   S130      1.0  0.25992  0.48445  0.85966  1.0000
  H   H400      1.0  0.27976  0.41545  0.93730  1.0000
  C   C410      1.0  0.08707  0.47821  0.75379  1.0000
  C   C411      1.0  0.25806  0.45742  0.93682  1.0000
  C   C412      1.0  0.16382  0.46120  0.76148  1.0000
  H   H401      1.0  0.31122  0.36475  0.91039  1.0000
  C   C413      1.0  0.12419  0.42446  0.86241  1.0000
  H   H402      1.0  0.23757  0.47084  0.92310  1.0000
  C   C414      1.0  0.31913  0.47082  0.94752  1.0000
  C   C415      1.0  0.27780  0.35391  0.90227  1.0000
  H   H403      1.0  0.13025  0.44367  0.78751  1.0000
  C   C416      1.0  0.15344  0.48368  0.83982  1.0000
  H   H404      1.0  0.16850  0.46723  0.74802  1.0000
  H   H405      1.0  0.29802  0.43446  0.86203  1.0000
  H   H406      1.0  0.32091  0.48029  0.93528  1.0000
  S   S131      1.0  0.26411  0.40877  0.98231  1.0000
  Fe  Fe61      1.0  0.23868  0.41074  0.97567  1.0000
  H   H407      1.0  0.25718  0.46834  0.94225  1.0000
  H   H408      1.0  0.18860  0.43785  0.80271  1.0000
  H   H409      1.0  0.26659  0.48207  0.82384  1.0000
  C   C417      1.0  0.00002  0.46771  0.76163  1.0000
  H   H410      1.0  0.04024  0.46576  0.78520  1.0000
  H   H411      1.0  0.28748  0.45469  0.84940  1.0000
  H   H412      1.0  0.18935  0.46655  0.88063  1.0000
  C   C418      1.0  0.24857  0.47776  0.84845  1.0000
  H   H413      1.0  0.15051  0.47830  0.88297  1.0000
  H   H414      1.0  0.30806  0.40789  0.81531  1.0000
  Fe  Fe62      1.0  0.99655  0.41941  0.74604  1.0000
  C   C419      1.0  0.04106  0.47920  0.77779  1.0000
  N   N36       1.0  0.17306  0.48191  0.86322  1.0000
  C   C420      1.0  0.31551  0.45504  0.94812  1.0000
  C   C421      1.0  0.17063  0.48523  0.83386  1.0000
  C   C422      1.0  0.14611  0.48122  0.85755  1.0000
  H   H415      1.0  0.19347  0.48613  0.84091  1.0000
  H   H416      1.0  0.09926  0.47843  0.75635  1.0000
  H   H417      1.0  0.31141  0.42354  0.83554  1.0000
  C   C423      1.0  0.25478  0.47774  0.83076  1.0000
  C   C424      1.0  0.31863  0.46171  0.97826  1.0000
  H   H418      1.0  0.32427  0.48089  0.83886  1.0000
  H   H419      1.0  0.31444  0.45220  0.93638  1.0000
  H   H420      1.0  0.13262  0.48036  0.86212  1.0000
  H   H421      1.0  0.02912  0.48564  0.77255  1.0000
  H   H422      1.0  0.04139  0.48692  0.78682  1.0000
  H   H423      1.0  0.27842  0.40782  0.81311  1.0000
  N   N37       1.0  0.31525  0.44618  0.97870  1.0000
  H   H424      1.0  0.32389  0.48632  0.96225  1.0000
  C   C425      1.0  0.07057  0.47658  0.73435  1.0000
  H   H425      1.0  0.04157  0.60165  0.08136  1.0000
  S   S132      1.0  0.23030  0.51932  0.06183  1.0000
  H   H426      1.0  0.06326  0.53879  0.20362  1.0000
  Fe  Fe63      1.0  0.20850  0.52637  0.04776  1.0000
  S   S133      1.0  0.18073  0.52362  0.05913  1.0000
  C   C426      1.0  0.00095  0.58238  0.16350  1.0000
  H   H427      1.0  0.28503  0.60721  0.01544  1.0000
  H   H428      1.0  0.11256  0.58907  0.21410  1.0000
  N   N38       1.0  0.12146  0.58148  0.18965  1.0000
  N   N39       1.0  0.27879  0.58488  0.01273  1.0000
  C   C427      1.0  0.26802  0.55805  0.05433  1.0000
  Fe  Fe64      1.0  0.23800  0.54346  0.04386  1.0000
  H   H429      1.0  0.00493  0.57639  0.18966  1.0000
  C   C428      1.0  0.03412  0.56697  0.11451  1.0000
  C   C429      1.0  0.03609  0.51749  0.12395  1.0000
  H   H430      1.0  0.01567  0.54299  0.17087  1.0000
  H   H431      1.0  0.26326  0.49988  0.00849  1.0000
  H   H432      1.0  0.02670  0.60214  0.12794  1.0000
  Fe  Fe65      1.0  0.10899  0.54857  0.13761  1.0000
  S   S134      1.0  0.09717  0.53561  0.16463  1.0000
  S   S135      1.0  0.13815  0.54533  0.13016  1.0000
  Fe  Fe66      1.0  0.07366  0.56557  0.12852  1.0000
  S   S136      1.0  0.05897  0.55418  0.15455  1.0000
  Fe  Fe67      1.0  0.07789  0.56109  0.16514  1.0000
  S   S137      1.0  0.06695  0.57466  0.18744  1.0000
  Fe  Fe68      1.0  0.07936  0.52987  0.15174  1.0000
  H   H433      1.0  0.27640  0.59346  0.03571  1.0000
  S   S138      1.0  0.09103  0.57468  0.13924  1.0000
  S   S139      1.0  0.09278  0.54064  0.12457  1.0000
  H   H434      1.0  0.24164  0.57792  0.00843  1.0000
  H   H435      1.0  0.13832  0.56805  0.20730  1.0000
  H   H436      1.0  0.03923  0.55866  0.12560  1.0000
  S   S140      1.0  0.25555  0.53023  0.02301  1.0000
  N   N40       1.0  0.03399  0.50321  0.11995  1.0000
  C   C430      1.0  0.25539  0.57759  0.00600  1.0000
  H   H437      1.0  0.10640  0.59229  0.17009  1.0000
  S   S141      1.0  0.07196  0.50401  0.16159  1.0000
  C   C431      1.0  0.26141  0.58586  0.01520  1.0000
  S   S142      1.0  0.22373  0.51129  0.02725  1.0000
  C   C432      1.0  0.01912  0.56472  0.11101  1.0000
  C   C433      1.0  0.03276  0.51869  0.14130  1.0000
  C   C434      1.0  0.12729  0.57100  0.16361  1.0000
  C   C435      1.0  0.00368  0.53973  0.17892  1.0000
  C   C436      1.0  0.13530  0.56912  0.19490  1.0000
  H   H438      1.0  0.15602  0.54718  0.18908  1.0000
  H   H439      1.0  0.11540  0.60655  0.19510  1.0000
  Fe  Fe69      1.0  0.24611  0.50667  0.03988  1.0000
  H   H440      1.0  0.04410  0.48844  0.10040  1.0000
  C   C437      1.0  0.11118  0.59403  0.20032  1.0000
  H   H441      1.0  0.12412  0.57183  0.15136  1.0000
  H   H442      1.0  0.04364  0.54335  0.21949  1.0000
  C   C438      1.0  0.07548  0.50425  0.12730  1.0000
  H   H443      1.0  0.26282  0.56996  0.07602  1.0000
  C   C439      1.0  0.28367  0.50619  0.06196  1.0000
  C   C440      1.0  0.27276  0.56388  0.06644  1.0000
  H   H444      1.0  0.05569  0.51658  0.19545  1.0000
  C   C441      1.0  0.14530  0.55721  0.18470  1.0000
  H   H445      1.0  0.07913  0.50393  0.10032  1.0000
  H   H446      1.0  0.27859  0.49462  0.07011  1.0000
  S   S143      1.0  0.24592  0.56197  0.05417  1.0000
  C   C442      1.0  0.04565  0.60367  0.14889  1.0000
  H   H447      1.0  0.29818  0.58664  0.02461  1.0000
  H   H448      1.0  0.00067  0.58976  0.13614  1.0000
  H   H449      1.0  0.13023  0.51212  0.13081  1.0000
  C   C443      1.0  0.11744  0.58259  0.17419  1.0000
  S   S144      1.0  0.06022  0.58461  0.10811  1.0000
  C   C444      1.0  0.02065  0.58891  0.08604  1.0000
  H   H450      1.0  0.27766  0.51123  0.05040  1.0000
  H   H451      1.0  0.19118  0.53351  0.08564  1.0000
  C   C445      1.0  0.12015  0.49182  0.15090  1.0000
  C   C446      1.0  0.28488  0.59355  0.02254  1.0000
  C   C447      1.0  0.18269  0.52082  0.01579  1.0000
  H   H452      1.0  0.07449  0.51805  0.12462  1.0000
  H   H453      1.0  0.29384  0.56619  0.07587  1.0000
  C   C448      1.0  0.07848  0.56729  0.20422  1.0000
  C   C449      1.0  0.07233  0.57431  0.21908  1.0000
  H   H454      1.0  0.05486  0.59693  0.15767  1.0000
  H   H455      1.0  0.30739  0.51836  0.06927  1.0000
  C   C450      1.0  0.10405  0.55022  0.21525  1.0000
  C   C451      1.0  0.09412  0.55490  0.20259  1.0000
  H   H456      1.0  0.06010  0.58378  0.22050  1.0000
  C   C452      1.0  0.00066  0.53751  0.19699  1.0000
  H   H457      1.0  0.11649  0.54110  0.21357  1.0000
  H   H458      1.0  0.09899  0.54943  0.19124  1.0000
  C   C453      1.0  0.04225  0.58031  0.10376  1.0000
  C   C454      1.0  0.14125  0.55820  0.16895  1.0000
  C   C455      1.0  0.16909  0.53026  0.07863  1.0000
  C   C456      1.0  0.17735  0.53423  0.08935  1.0000
  C   C457      1.0  0.16772  0.53893  0.10507  1.0000
  C   C458      1.0  0.14975  0.53993  0.11004  1.0000
  C   C459      1.0  0.14148  0.53620  0.09917  1.0000
  C   C460      1.0  0.15114  0.53122  0.08362  1.0000
  C   C461      1.0  0.12609  0.50000  0.13368  1.0000
  H   H459      1.0  0.17424  0.54180  0.11337  1.0000
  H   H460      1.0  0.12766  0.53712  0.10268  1.0000
  H   H461      1.0  0.14465  0.52826  0.07535  1.0000
  C   C462      1.0  0.30325  0.55447  0.05368  1.0000
  C   C463      1.0  0.29854  0.54878  0.04141  1.0000
  C   C464      1.0  0.28095  0.55027  0.04194  1.0000
  H   H462      1.0  0.02454  0.50607  0.16802  1.0000
  H   H463      1.0  0.14885  0.54905  0.16086  1.0000
  C   C465      1.0  0.29030  0.56182  0.06630  1.0000
  S   S145      1.0  0.01583  0.54077  0.20654  1.0000
  H   H464      1.0  0.27743  0.54598  0.03237  1.0000
  C   C466      1.0  0.00720  0.58955  0.14607  1.0000
  H   H465      1.0  0.25212  0.59253  0.02479  1.0000
  C   C467      1.0  0.03541  0.59127  0.08963  1.0000
  N   N41       1.0  0.30262  0.50136  0.05645  1.0000
  C   C468      1.0  0.02453  0.58878  0.17101  1.0000
  N   N42       1.0  0.05545  0.51647  0.22158  1.0000
  H   H466      1.0  0.30840  0.54305  0.03164  1.0000
  Fe  Fe70      1.0  0.23189  0.53605  0.01199  1.0000
  H   H467      1.0  0.11964  0.49784  0.16126  1.0000
  H   H468      1.0  0.17942  0.53087  0.02311  1.0000
  C   C469      1.0  0.07383  0.49444  0.14441  1.0000
  H   H469      1.0  0.01557  0.59744  0.07498  1.0000
  C   C470      1.0  0.01245  0.57566  0.09666  1.0000
  H   H470      1.0  0.18770  0.53834  0.99081  1.0000
  C   C471      1.0  0.02201  0.59642  0.14150  1.0000
  S   S146      1.0  0.21493  0.55167  0.03140  1.0000
  H   H471      1.0  0.04073  0.52786  0.11375  1.0000
  C   C472      1.0  0.09849  0.55800  0.22955  1.0000
  H   H472      1.0  0.01266  0.55468  0.11945  1.0000
  N   N43       1.0  0.03057  0.59580  0.15389  1.0000
  H   H473      1.0  0.09714  0.59635  0.20049  1.0000
  H   H474      1.0  0.99318  0.54039  0.15730  1.0000
  C   C473      1.0  0.02698  0.50534  0.15453  1.0000
  H   H475      1.0  0.03497  0.52972  0.14450  1.0000
  C   C474      1.0  0.18254  0.50357  0.02450  1.0000
  C   C475      1.0  0.29048  0.57626  0.00081  1.0000
  C   C476      1.0  0.31299  0.50881  0.06128  1.0000
  H   H476      1.0  0.05297  0.60262  0.13551  1.0000
  C   C477      1.0  0.05676  0.53469  0.21741  1.0000
  C   C478      1.0  0.07774  0.49631  0.11355  1.0000
  H   H477      1.0  0.13095  0.49885  0.10680  1.0000
  C   C479      1.0  0.05525  0.50900  0.20871  1.0000
  C   C480      1.0  0.03757  0.50201  0.10177  1.0000
  C   C481      1.0  0.08234  0.56966  0.23179  1.0000
  H   H478      1.0  0.04137  0.61762  0.14947  1.0000
  C   C482      1.0  0.00963  0.58202  0.17607  1.0000
  H   H479      1.0  0.03127  0.58829  0.18089  1.0000
  S   S147      1.0  0.99387  0.57353  0.09145  1.0000
  H   H480      1.0  0.17909  0.50022  0.03861  1.0000
  H   H481      1.0  0.27939  0.51654  0.06951  1.0000
  C   C483      1.0  0.19146  0.51186  0.98850  1.0000
  H   H482      1.0  0.04649  0.51041  0.09324  1.0000
  C   C484      1.0  0.18723  0.52502  0.99768  1.0000
  C   C485      1.0  0.05443  0.49148  0.21243  1.0000
  H   H483      1.0  0.30425  0.57558  0.99876  1.0000
  N   N44       1.0  0.19167  0.49491  0.99716  1.0000
  H   H484      1.0  0.06445  0.53672  0.22561  1.0000
  H   H485      1.0  0.26269  0.56197  0.98692  1.0000
  C   C486      1.0  0.12656  0.49249  0.12023  1.0000
  H   H486      1.0  0.02523  0.50592  0.09713  1.0000
  C   C487      1.0  0.26724  0.56856  0.99400  1.0000
  C   C488      1.0  0.28491  0.56791  0.99133  1.0000
  C   C489      1.0  0.02443  0.49106  0.15030  1.0000
  C   C490      1.0  0.30980  0.48930  0.04640  1.0000
  C   C491      1.0  0.18716  0.49069  0.01492  1.0000
  S   S148      1.0  0.99520  0.48828  0.11085  1.0000
  H   H487      1.0  0.23597  0.50995  0.99072  1.0000
  C   C492      1.0  0.02795  0.49024  0.13282  1.0000
  Fe  Fe71      1.0  0.18662  0.87887  0.41781  1.0000
  S   S149      1.0  0.20571  0.85501  0.41119  1.0000
  S   S150      1.0  0.16684  0.87657  0.44283  1.0000
  Fe  Fe72      1.0  0.20252  0.90296  0.38588  1.0000
  S   S151      1.0  0.22265  0.88091  0.37603  1.0000
  S   S152      1.0  0.20127  0.93116  0.37168  1.0000
  Fe  Fe73      1.0  0.20090  0.86673  0.38428  1.0000
  S   S153      1.0  0.19911  0.84707  0.37075  1.0000
  Fe  Fe74      1.0  0.22561  0.87106  0.40368  1.0000
  S   S154      1.0  0.18031  0.88975  0.39145  1.0000
  S   S155      1.0  0.20700  0.89385  0.41302  1.0000
  H   H488      1.0  0.07220  0.81843  0.34829  1.0000
  H   H489      1.0  0.05481  0.55010  0.28698  1.0000
  S   S156      1.0  0.26422  0.89447  0.48327  1.0000
  S   S157      1.0  0.03357  0.60899  0.39025  1.0000
  H   H490      1.0  0.16151  0.74783  0.38160  1.0000
  Fe  Fe75      1.0  0.11072  0.64077  0.37442  1.0000
  S   S158      1.0  0.08871  0.66194  0.36595  1.0000
  Fe  Fe76      1.0  0.12005  0.66345  0.39280  1.0000
  S   S159      1.0  0.09828  0.68624  0.38644  1.0000
  S   S160      1.0  0.14045  0.66571  0.40500  1.0000
  Fe  Fe77      1.0  0.08268  0.66610  0.39297  1.0000
  S   S161      1.0  0.05463  0.66998  0.40602  1.0000
  Fe  Fe78      1.0  0.10631  0.68022  0.36004  1.0000
  S   S162      1.0  0.10718  0.70116  0.33542  1.0000
  S   S163      1.0  0.10363  0.64372  0.40214  1.0000
  S   S164      1.0  0.12927  0.65862  0.36573  1.0000
  H   H491      1.0  0.01571  0.69678  0.38353  1.0000
  C   C493      1.0  0.10827  0.60333  0.32123  1.0000
  C   C494      1.0  0.05651  0.58777  0.33005  1.0000
  H   H492      1.0  0.05143  0.62606  0.30499  1.0000
  H   H493      1.0  0.05203  0.73676  0.35602  1.0000
  H   H494      1.0  0.02088  0.82845  0.33946  1.0000
  C   C495      1.0  0.04479  0.52885  0.28611  1.0000
  S   S165      1.0  0.00452  0.51104  0.25129  1.0000
  H   H495      1.0  0.15231  0.83349  0.46456  1.0000
  C   C496      1.0  0.05396  0.50717  0.23843  1.0000
  H   H496      1.0  0.15419  0.56335  0.30028  1.0000
  N   N45       1.0  0.17655  0.83499  0.46825  1.0000
  C   C497      1.0  0.06000  0.61283  0.30548  1.0000
  H   H497      1.0  0.13327  0.56373  0.31480  1.0000
  H   H498      1.0  0.99841  0.81642  0.41939  1.0000
  C   C498      1.0  0.28240  0.87028  0.40375  1.0000
  H   H499      1.0  0.00834  0.72047  0.47878  1.0000
  H   H500      1.0  0.15277  0.60947  0.34382  1.0000
  S   S166      1.0  0.01736  0.54532  0.25314  1.0000
  S   S167      1.0  0.15483  0.79902  0.45760  1.0000
  H   H501      1.0  0.22537  0.83490  0.45154  1.0000
  C   C499      1.0  0.18411  0.84366  0.47503  1.0000
  C   C500      1.0  0.20408  0.97683  0.43811  1.0000
  H   H502      1.0  0.04779  0.76963  0.43613  1.0000
  S   S168      1.0  0.02799  0.77374  0.34619  1.0000
  C   C501      1.0  0.06828  0.65446  0.44581  1.0000
  Fe  Fe79      1.0  0.12102  0.80905  0.37649  1.0000
  S   S169      1.0  0.14062  0.78444  0.37230  1.0000
  S   S170      1.0  0.12479  0.83567  0.37498  1.0000
  Fe  Fe80      1.0  0.09071  0.79122  0.38755  1.0000
  S   S171      1.0  0.10747  0.76491  0.38546  1.0000
  S   S172      1.0  0.06171  0.79651  0.39438  1.0000
  Fe  Fe81      1.0  0.12507  0.77199  0.39744  1.0000
  S   S173      1.0  0.13938  0.75264  0.41691  1.0000
  Fe  Fe82      1.0  0.12136  0.77930  0.36050  1.0000
  S   S174      1.0  0.12798  0.76976  0.33573  1.0000
  S   S175      1.0  0.10672  0.79686  0.40253  1.0000
  S   S176      1.0  0.10338  0.80538  0.36186  1.0000
  C   C502      1.0  0.03756  0.77897  0.36020  1.0000
  C   C503      1.0  0.05542  0.77309  0.35973  1.0000
  C   C504      1.0  0.06299  0.77815  0.37042  1.0000
  C   C505      1.0  0.05271  0.78920  0.38144  1.0000
  C   C506      1.0  0.03495  0.79499  0.38185  1.0000
  C   C507      1.0  0.02737  0.78978  0.37142  1.0000
  H   H503      1.0  0.06342  0.76479  0.35103  1.0000
  H   H504      1.0  0.07674  0.77362  0.37003  1.0000
  H   H505      1.0  0.02705  0.80391  0.38992  1.0000
  H   H506      1.0  0.01367  0.79459  0.37178  1.0000
  C   C508      1.0  0.15059  0.78596  0.44648  1.0000
  C   C509      1.0  0.16425  0.77440  0.43829  1.0000
  C   C510      1.0  0.16077  0.76372  0.42961  1.0000
  C   C511      1.0  0.14369  0.76502  0.42872  1.0000
  C   C512      1.0  0.13006  0.77670  0.43678  1.0000
  C   C513      1.0  0.13349  0.78703  0.44586  1.0000
  H   H507      1.0  0.17747  0.77348  0.43889  1.0000
  H   H508      1.0  0.17132  0.75473  0.42331  1.0000
  H   H509      1.0  0.11682  0.77764  0.43621  1.0000
  H   H510      1.0  0.12292  0.79606  0.45209  1.0000
  H   H511      1.0  0.28826  0.85651  0.40698  1.0000
  C   C514      1.0  0.04961  0.53885  0.29450  1.0000
  C   C515      1.0  0.04605  0.82515  0.34476  1.0000
  H   H512      1.0  0.23491  0.88138  0.44067  1.0000
  N   N46       1.0  0.12970  0.71181  0.46884  1.0000
  S   S177      1.0  0.10971  0.59886  0.30102  1.0000
  H   H513      1.0  0.12334  0.50130  0.28539  1.0000
  C   C516      1.0  0.15058  0.59103  0.31242  1.0000
  C   C517      1.0  0.03663  0.50946  0.31382  1.0000
  S   S178      1.0  0.18432  0.93035  0.47239  1.0000
  H   H514      1.0  0.14920  0.59466  0.29899  1.0000
  C   C518      1.0  0.28516  0.90038  0.39524  1.0000
  H   H515      1.0  0.04130  0.83326  0.35422  1.0000
  C   C519      1.0  0.05636  0.57937  0.34746  1.0000
  C   C520      1.0  0.04767  0.53431  0.31256  1.0000
  H   H516      1.0  0.15144  0.57963  0.36116  1.0000
  H   H517      1.0  0.29983  0.89691  0.47440  1.0000
  C   C521      1.0  0.13786  0.66209  0.42770  1.0000
  C   C522      1.0  0.15234  0.66096  0.43412  1.0000
  C   C523      1.0  0.15111  0.65831  0.45199  1.0000
  C   C524      1.0  0.13533  0.65701  0.46368  1.0000
  C   C525      1.0  0.12065  0.65833  0.45734  1.0000
  C   C526      1.0  0.12194  0.66077  0.43931  1.0000
  H   H518      1.0  0.16466  0.66194  0.42525  1.0000
  H   H519      1.0  0.16247  0.65731  0.45677  1.0000
  H   H520      1.0  0.10837  0.65742  0.46632  1.0000
  H   H521      1.0  0.11068  0.66175  0.43441  1.0000
  C   C527      1.0  0.11206  0.72054  0.33591  1.0000
  C   C528      1.0  0.11875  0.73118  0.32030  1.0000
  C   C529      1.0  0.12331  0.74639  0.32039  1.0000
  C   C530      1.0  0.12096  0.75123  0.33606  1.0000
  C   C531      1.0  0.11385  0.74080  0.35162  1.0000
  C   C532      1.0  0.10947  0.72548  0.35156  1.0000
  H   H522      1.0  0.12073  0.72749  0.30811  1.0000
  H   H523      1.0  0.12885  0.75431  0.30828  1.0000
  H   H524      1.0  0.11213  0.74416  0.36379  1.0000
  H   H525      1.0  0.10406  0.71758  0.36365  1.0000
  H   H526      1.0  0.10059  0.50209  0.32119  1.0000
  H   H527      1.0  0.27174  0.97871  0.39424  1.0000
  H   H528      1.0  0.02197  0.82315  0.42796  1.0000
  C   C533      1.0  0.04098  0.51976  0.32227  1.0000
  C   C534      1.0  0.03890  0.62532  0.39618  1.0000
  C   C535      1.0  0.05629  0.62460  0.39511  1.0000
  C   C536      1.0  0.06095  0.63831  0.39829  1.0000
  C   C537      1.0  0.04827  0.65268  0.40283  1.0000
  C   C538      1.0  0.03075  0.65314  0.40462  1.0000
  C   C539      1.0  0.02607  0.63945  0.40121  1.0000
  H   H529      1.0  0.06626  0.61367  0.39134  1.0000
  H   H530      1.0  0.07444  0.63763  0.39714  1.0000
  H   H531      1.0  0.02087  0.66409  0.40840  1.0000
  H   H532      1.0  0.01255  0.63970  0.40270  1.0000
  C   C540      1.0  0.03427  0.68407  0.36421  1.0000
  C   C541      1.0  0.12548  0.70280  0.45798  1.0000
  H   H533      1.0  0.14934  0.69763  0.39527  1.0000
  C   C542      1.0  0.12901  0.72934  0.46363  1.0000
  C   C543      1.0  0.17842  0.84428  0.37145  1.0000
  C   C544      1.0  0.16340  0.85678  0.37585  1.0000
  C   C545      1.0  0.14706  0.85413  0.37650  1.0000
  C   C546      1.0  0.14559  0.83878  0.37322  1.0000
  C   C547      1.0  0.16059  0.82617  0.36902  1.0000
  C   C548      1.0  0.17698  0.82905  0.36789  1.0000
  H   H534      1.0  0.16437  0.86861  0.37846  1.0000
  H   H535      1.0  0.13550  0.86394  0.37972  1.0000
  H   H536      1.0  0.15959  0.81436  0.36637  1.0000
  H   H537      1.0  0.18858  0.81937  0.36441  1.0000
  C   C549      1.0  0.20957  0.94419  0.37981  1.0000
  C   C550      1.0  0.21970  0.93671  0.39235  1.0000
  C   C551      1.0  0.22719  0.94708  0.39780  1.0000
  C   C552      1.0  0.22455  0.96506  0.39083  1.0000
  H   H538      1.0  0.15228  0.54816  0.32089  1.0000
  C   C553      1.0  0.20702  0.96220  0.37272  1.0000
  H   H539      1.0  0.22202  0.92289  0.39762  1.0000
  H   H540      1.0  0.23532  0.94112  0.40721  1.0000
  S   S179      1.0  0.12625  0.55639  0.28211  1.0000
  H   H541      1.0  0.19928  0.96809  0.36291  1.0000
  C   C554      1.0  0.21172  0.83469  0.45644  1.0000
  C   C555      1.0  0.17569  0.91731  0.46494  1.0000
  H   H542      1.0  0.02737  0.67391  0.36631  1.0000
  C   C556      1.0  0.16666  0.89038  0.46957  1.0000
  C   C557      1.0  0.16745  0.89338  0.45176  1.0000
  C   C558      1.0  0.17096  0.90905  0.44079  1.0000
  C   C559      1.0  0.17479  0.92117  0.44744  1.0000
  N   N47       1.0  0.06047  0.60380  0.32358  1.0000
  H   H543      1.0  0.06836  0.72065  0.36667  1.0000
  H   H544      1.0  0.17113  0.91165  0.42706  1.0000
  H   H545      1.0  0.17808  0.93299  0.43879  1.0000
  H   H546      1.0  0.08962  0.78480  0.33829  1.0000
  Fe  Fe83      1.0  0.08001  0.55158  0.30577  1.0000
  C   C560      1.0  0.10908  0.59380  0.35189  1.0000
  N   N48       1.0  0.25249  0.89526  0.44255  1.0000
  C   C561      1.0  0.23671  0.89374  0.44139  1.0000
  C   C562      1.0  0.25470  0.91089  0.44340  1.0000
  C   C563      1.0  0.22260  0.90807  0.44128  1.0000
  C   C564      1.0  0.24087  0.92551  0.44318  1.0000
  C   C565      1.0  0.22470  0.92402  0.44221  1.0000
  H   H547      1.0  0.06820  0.62422  0.32875  1.0000
  H   H548      1.0  0.06290  0.79374  0.31359  1.0000
  H   H549      1.0  0.26715  0.91198  0.44462  1.0000
  H   H550      1.0  0.24266  0.93785  0.44393  1.0000
  H   H551      1.0  0.26818  0.95986  0.34400  1.0000
  H   H552      1.0  0.10719  0.57737  0.33635  1.0000
  Fe  Fe84      1.0  0.10596  0.57350  0.29840  1.0000
  H   H553      1.0  0.02981  0.70781  0.47096  1.0000
  N   N49       1.0  0.06957  0.80585  0.32997  1.0000
  S   S180      1.0  0.03324  0.50121  0.28515  1.0000
  H   H554      1.0  0.30647  0.87820  0.39879  1.0000
  H   H555      1.0  0.03189  0.80855  0.31905  1.0000
  H   H556      1.0  0.03175  0.49801  0.32126  1.0000
  C   C566      1.0  0.06357  0.81667  0.34136  1.0000
  N   N50       1.0  0.14999  0.57453  0.32205  1.0000
  H   H557      1.0  0.13762  0.69564  0.45073  1.0000
  H   H558      1.0  0.09652  0.80474  0.32680  1.0000
  H   H559      1.0  0.30821  0.94858  0.38659  1.0000
  C   C567      1.0  0.25705  0.89357  0.40015  1.0000
  Fe  Fe85      1.0  0.10458  0.55641  0.27040  1.0000
  C   C568      1.0  0.29272  0.88257  0.39915  1.0000
  C   C569      1.0  0.08778  0.79634  0.32738  1.0000
  C   C570      1.0  0.00894  0.80602  0.42356  1.0000
  H   H560      1.0  0.08676  0.62350  0.44050  1.0000
  C   C571      1.0  0.05800  0.78164  0.48056  1.0000
  C   C572      1.0  0.21444  0.97264  0.37825  1.0000
  H   H561      1.0  0.02411  0.63050  0.44480  1.0000
  C   C573      1.0  0.05848  0.69754  0.34926  1.0000
  C   C574      1.0  0.03853  0.51404  0.29575  1.0000
  H   H562      1.0  0.05969  0.78940  0.44204  1.0000
  C   C575      1.0  0.06469  0.60366  0.35146  1.0000
  C   C576      1.0  0.31107  0.96096  0.38575  1.0000
  C   C577      1.0  0.99728  0.71317  0.35024  1.0000
  C   C578      1.0  0.08846  0.49737  0.32725  1.0000
  H   H563      1.0  0.05293  0.58160  0.32187  1.0000
  C   C579      1.0  0.99561  0.57009  0.34442  1.0000
  C   C580      1.0  0.06483  0.61162  0.33395  1.0000
  H   H564      1.0  0.99263  0.73721  0.35828  1.0000
  H   H565      1.0  0.05457  0.60591  0.29908  1.0000
  C   C581      1.0  0.00698  0.59820  0.30717  1.0000
  S   S181      1.0  0.02273  0.63376  0.34535  1.0000
  C   C582      1.0  0.14734  0.56179  0.31416  1.0000
  H   H566      1.0  0.07541  0.64991  0.45657  1.0000
  S   S182      1.0  0.05503  0.54588  0.32282  1.0000
  H   H567      1.0  0.01870  0.67015  0.47952  1.0000
  H   H568      1.0  0.15181  0.61697  0.31247  1.0000
  H   H569      1.0  0.23308  0.91263  0.34798  1.0000
  C   C583      1.0  0.10885  0.62012  0.32170  1.0000
  Fe  Fe86      1.0  0.01422  0.62171  0.37339  1.0000
  C   C584      1.0  0.05840  0.80298  0.32194  1.0000
  C   C585      1.0  0.25699  0.95497  0.35319  1.0000
  H   H570      1.0  0.07330  0.61383  0.29799  1.0000
  H   H571      1.0  0.25712  0.95521  0.36663  1.0000
  H   H572      1.0  0.14923  0.55746  0.34716  1.0000
  H   H573      1.0  0.24489  0.96414  0.34985  1.0000
  H   H574      1.0  0.15950  0.75089  0.35103  1.0000
  N   N51       1.0  0.25787  0.93714  0.35228  1.0000
  C   C586      1.0  0.27248  0.92452  0.35490  1.0000
  C   C587      1.0  0.24402  0.93303  0.34943  1.0000
  C   C588      1.0  0.27333  0.90719  0.35511  1.0000
  C   C589      1.0  0.24438  0.91583  0.34968  1.0000
  C   C590      1.0  0.25909  0.90281  0.35267  1.0000
  C   C591      1.0  0.01940  0.70989  0.48260  1.0000
  H   H575      1.0  0.28339  0.92770  0.35740  1.0000
  H   H576      1.0  0.23238  0.94295  0.34734  1.0000
  H   H577      1.0  0.28473  0.89713  0.35781  1.0000
  C   C592      1.0  0.15803  0.83511  0.47465  1.0000
  H   H578      1.0  0.25935  0.88933  0.35336  1.0000
  H   H579      1.0  0.27735  0.98607  0.37089  1.0000
  Fe  Fe87      1.0  0.99906  0.78080  0.35595  1.0000
  C   C593      1.0  0.99192  0.69765  0.35308  1.0000
  N   N52       1.0  0.16012  0.82771  0.41547  1.0000
  C   C594      1.0  0.14536  0.82355  0.41481  1.0000
  C   C595      1.0  0.15917  0.84268  0.42027  1.0000
  C   C596      1.0  0.12916  0.83477  0.41852  1.0000
  C   C597      1.0  0.14318  0.85415  0.42417  1.0000
  C   C598      1.0  0.12810  0.85017  0.42321  1.0000
  C   C599      1.0  0.17700  0.81574  0.41169  1.0000
  H   H580      1.0  0.14606  0.81169  0.41103  1.0000
  H   H581      1.0  0.17082  0.84599  0.42086  1.0000
  H   H582      1.0  0.11760  0.83167  0.41735  1.0000
  H   H583      1.0  0.14256  0.86613  0.42774  1.0000
  H   H584      1.0  0.11563  0.85907  0.42593  1.0000
  H   H585      1.0  0.18737  0.82307  0.40499  1.0000
  H   H586      1.0  0.18017  0.80689  0.42395  1.0000
  H   H587      1.0  0.17689  0.80774  0.40284  1.0000
  C   C600      1.0  0.04975  0.68435  0.35183  1.0000
  C   C601      1.0  0.19071  0.97103  0.45115  1.0000
  S   S183      1.0  0.25154  0.86039  0.41125  1.0000
  H   H588      1.0  0.18024  0.96782  0.44784  1.0000
  C   C602      1.0  0.19098  0.96914  0.46857  1.0000
  C   C603      1.0  0.20405  0.82533  0.45003  1.0000
  C   C604      1.0  0.15257  0.59953  0.33755  1.0000
  H   H589      1.0  0.21173  0.81812  0.44021  1.0000
  C   C605      1.0  0.06034  0.58747  0.35825  1.0000
  N   N53       1.0  0.29870  0.97614  0.38349  1.0000
  H   H590      1.0  0.07069  0.69748  0.33983  1.0000
  C   C606      1.0  0.01877  0.64314  0.48319  1.0000
  H   H591      1.0  0.02888  0.57775  0.30012  1.0000
  C   C607      1.0  0.15180  0.58272  0.34732  1.0000
  H   H592      1.0  0.04451  0.60277  0.43986  1.0000
  H   H593      1.0  0.07738  0.50889  0.32759  1.0000
  C   C608      1.0  0.06705  0.61131  0.43988  1.0000
  H   H594      1.0  0.05354  0.51325  0.24873  1.0000
  H   H595      1.0  0.05703  0.80931  0.42575  1.0000
  C   C609      1.0  0.06120  0.72383  0.35608  1.0000
  C   C610      1.0  0.00750  0.57893  0.28903  1.0000
  C   C611      1.0  0.03788  0.62886  0.44385  1.0000
  S   S184      1.0  0.01748  0.60373  0.32030  1.0000
  H   H596      1.0  0.05765  0.66579  0.44873  1.0000
  H   H597      1.0  0.00644  0.64605  0.47956  1.0000
  C   C612      1.0  0.04935  0.61324  0.44115  1.0000
  H   H598      1.0  0.07076  0.72502  0.34347  1.0000
  C   C613      1.0  0.00946  0.78884  0.42372  1.0000
  C   C614      1.0  0.21757  0.98061  0.44262  1.0000
  H   H599      1.0  0.00850  0.71571  0.34016  1.0000
  N   N54       1.0  0.03604  0.79675  0.43285  1.0000
  C   C615      1.0  0.03683  0.77989  0.43276  1.0000
  C   C616      1.0  0.02238  0.80976  0.42824  1.0000
  C   C617      1.0  0.02352  0.77567  0.42828  1.0000
  H   H600      1.0  0.04471  0.80847  0.44793  1.0000
  H   H601      1.0  0.22783  0.98551  0.43253  1.0000
  C   C618      1.0  0.07976  0.49319  0.30271  1.0000
  C   C619      1.0  0.04430  0.64240  0.44517  1.0000
  H   H602      1.0  0.20750  0.85091  0.47456  1.0000
  H   H603      1.0  0.00582  0.54037  0.31949  1.0000
  S   S185      1.0  0.99840  0.60634  0.36837  1.0000
  H   H604      1.0  0.30581  0.84713  0.47297  1.0000
  C   C620      1.0  0.11049  0.61038  0.35214  1.0000
  C   C621      1.0  0.01577  0.58446  0.29875  1.0000
  S   S186      1.0  0.09735  0.53283  0.28972  1.0000
  H   H605      1.0  0.26845  0.87522  0.45763  1.0000
  C   C622      1.0  0.04082  0.81136  0.32494  1.0000
  H   H606      1.0  0.10912  0.63028  0.30993  1.0000
  Fe  Fe88      1.0  0.11777  0.53383  0.30225  1.0000
  C   C623      1.0  0.26455  0.87577  0.40421  1.0000
  H   H607      1.0  0.26465  0.86911  0.43980  1.0000
  C   C624      1.0  0.05008  0.80121  0.43736  1.0000
  C   C625      1.0  0.17126  0.90210  0.47608  1.0000
  Fe  Fe89      1.0  0.13532  0.79792  0.48278  1.0000
  H   H608      1.0  0.14575  0.69983  0.35018  1.0000
  H   H609      1.0  0.04636  0.53239  0.27213  1.0000
  S   S187      1.0  0.29789  0.91598  0.38892  1.0000
  S   S188      1.0  0.09988  0.55088  0.32001  1.0000
  S   S189      1.0  0.08475  0.57537  0.28505  1.0000
  H   H610      1.0  0.15282  0.72705  0.34302  1.0000
  C   C626      1.0  0.07299  0.62504  0.44153  1.0000
  H   H611      1.0  0.27916  0.88323  0.43554  1.0000
  C   C627      1.0  0.10984  0.62369  0.33714  1.0000
  H   H612      1.0  0.10947  0.58349  0.36351  1.0000
  C   C628      1.0  0.15377  0.72554  0.35632  1.0000
  C   C629      1.0  0.15762  0.73908  0.36076  1.0000
  H   H613      1.0  0.13340  0.69494  0.37196  1.0000
  C   C630      1.0  0.26689  0.87992  0.44395  1.0000
  N   N55       1.0  0.15079  0.71088  0.36866  1.0000
  C   C631      1.0  0.14633  0.69688  0.36412  1.0000
  H   H614      1.0  0.05980  0.58140  0.37193  1.0000
  C   C632      1.0  0.15864  0.73743  0.37787  1.0000
  C   C633      1.0  0.03462  0.82245  0.33648  1.0000
  H   H615      1.0  0.21000  0.90676  0.44083  1.0000
  N   N56       1.0  0.06163  0.64030  0.44423  1.0000
  H   H616      1.0  0.03153  0.71992  0.37846  1.0000
  C   C634      1.0  0.15175  0.70919  0.38547  1.0000
  C   C635      1.0  0.15572  0.72239  0.39031  1.0000
  H   H617      1.0  0.01425  0.56806  0.28296  1.0000
  H   H618      1.0  0.07589  0.50719  0.29847  1.0000
  Fe  Fe90      1.0  0.00494  0.62020  0.34040  1.0000
  C   C636      1.0  0.02771  0.69692  0.37385  1.0000
  H   H619      1.0  0.26130  0.91962  0.39315  1.0000
  C   C637      1.0  0.15044  0.57031  0.33933  1.0000
  S   S190      1.0  0.11533  0.61340  0.37059  1.0000
  H   H620      1.0  0.15631  0.72108  0.40369  1.0000
  S   S191      1.0  0.23447  0.97750  0.39783  1.0000
  H   H621      1.0  0.21376  0.93515  0.44219  1.0000
  H   H622      1.0  0.15601  0.68445  0.36703  1.0000
  C   C638      1.0  0.15199  0.60374  0.31998  1.0000
  H   H623      1.0  0.05500  0.67430  0.34441  1.0000
  H   H624      1.0  0.03965  0.51617  0.33625  1.0000
  H   H625      1.0  0.02420  0.76234  0.42812  1.0000
  C   C639      1.0  0.10786  0.59029  0.33650  1.0000
  H   H626      1.0  0.06772  0.61008  0.35980  1.0000
  H   H627      1.0  0.11095  0.63649  0.33721  1.0000
  H   H628      1.0  0.07703  0.65912  0.43342  1.0000
  H   H629      1.0  0.09210  0.79172  0.31507  1.0000
  H   H630      1.0  0.05288  0.56681  0.35253  1.0000
  C   C640      1.0  0.26726  0.90586  0.39602  1.0000
  S   S192      1.0  0.13578  0.50898  0.31242  1.0000
  N   N57       1.0  0.05181  0.71024  0.35861  1.0000
  C   C641      1.0  0.03671  0.70998  0.37089  1.0000
  H   H631      1.0  0.24332  0.89782  0.40050  1.0000
  N   N58       1.0  0.20437  0.97261  0.47291  1.0000
  C   C642      1.0  0.20174  0.84378  0.46919  1.0000
  H   H632      1.0  0.03534  0.65467  0.44676  1.0000
  C   C643      1.0  0.13508  0.70239  0.48383  1.0000
  H   H633      1.0  0.22772  0.98198  0.46358  1.0000
  Fe  Fe91      1.0  0.01386  0.51932  0.27013  1.0000
  C   C644      1.0  0.00532  0.55622  0.33666  1.0000
  S   S193      1.0  0.99237  0.64440  0.37841  1.0000
  S   S194      1.0  0.11352  0.55549  0.24211  1.0000
  H   H634      1.0  0.07802  0.57577  0.24279  1.0000
  S   S195      1.0  0.02847  0.77643  0.47539  1.0000
  Fe  Fe92      1.0  0.00538  0.53803  0.23537  1.0000
  C   C645      1.0  0.28129  0.97594  0.38226  1.0000
  H   H635      1.0  0.99918  0.78583  0.41992  1.0000
  C   C646      1.0  0.05302  0.48966  0.24264  1.0000
  H   H636      1.0  0.16318  0.87873  0.47823  1.0000
  H   H637      1.0  0.11759  0.69324  0.46616  1.0000
  H   H638      1.0  0.18045  0.81827  0.45119  1.0000
  H   H639      1.0  0.01855  0.55035  0.33819  1.0000
  C   C647      1.0  0.18634  0.82557  0.45617  1.0000
  H   H640      1.0  0.07611  0.59931  0.43750  1.0000
  H   H641      1.0  0.15064  0.84773  0.47814  1.0000
  H   H642      1.0  0.11789  0.71201  0.44847  1.0000
  H   H643      1.0  0.20390  0.97851  0.42455  1.0000
  H   H644      1.0  0.12498  0.73680  0.45164  1.0000
  C   C648      1.0  0.99816  0.55059  0.32622  1.0000
  C   C649      1.0  0.13355  0.73793  0.47367  1.0000
  H   H645      1.0  0.21235  0.98652  0.37275  1.0000
  H   H646      1.0  0.13301  0.75182  0.46953  1.0000
  C   C650      1.0  0.02580  0.65684  0.48305  1.0000
  H   H647      1.0  0.18050  0.96460  0.47861  1.0000
  S   S196      1.0  0.00318  0.68284  0.33973  1.0000
  C   C651      1.0  0.21748  0.97848  0.46020  1.0000
  H   H648      1.0  0.28067  0.96314  0.38067  1.0000
  Fe  Fe93      1.0  0.99929  0.65531  0.34983  1.0000
  H   H649      1.0  0.00157  0.57487  0.35188  1.0000
  C   C652      1.0  0.13535  0.48945  0.30753  1.0000
  H   H650      1.0  0.08896  0.49047  0.34092  1.0000
  C   C653      1.0  0.12818  0.48921  0.29389  1.0000
  H   H651      1.0  0.07181  0.48840  0.28180  1.0000
  H   H652      1.0  0.06495  0.77128  0.47384  1.0000
  H   H653      1.0  0.02889  0.73922  0.47920  1.0000
  C   C654      1.0  0.03984  0.78658  0.48340  1.0000
  C   C655      1.0  0.30594  0.85183  0.48403  1.0000
  Fe  Fe94      1.0  0.12457  0.77364  0.51693  1.0000
  H   H654      1.0  0.06518  0.62641  0.59904  1.0000
  Fe  Fe95      1.0  0.11217  0.54158  0.62880  1.0000
  H   H655      1.0  0.03328  0.81942  0.50370  1.0000
  H   H656      1.0  0.06515  0.53838  0.62488  1.0000
  H   H657      1.0  0.00018  0.78639  0.54363  1.0000
  Fe  Fe96      1.0  0.10330  0.52242  0.66678  1.0000
  C   C656      1.0  0.10737  0.70489  0.53686  1.0000
  H   H658      1.0  0.99354  0.68436  0.52573  1.0000
  H   H659      1.0  0.07295  0.73806  0.52831  1.0000
  S   S197      1.0  0.30716  0.92169  0.51917  1.0000
  C   C657      1.0  0.17637  0.83044  0.56023  1.0000
  S   S198      1.0  0.06931  0.81448  0.50268  1.0000
  H   H660      1.0  0.15118  0.50433  0.70853  1.0000
  H   H661      1.0  0.14391  0.70309  0.50607  1.0000
  C   C658      1.0  0.11254  0.62871  0.59419  1.0000
  Fe  Fe97      1.0  0.20786  0.90539  0.52692  1.0000
  S   S199      1.0  0.22744  0.88058  0.52333  1.0000
  S   S200      1.0  0.20163  0.91308  0.55251  1.0000
  H   H662      1.0  0.10262  0.49290  0.60684  1.0000
  H   H663      1.0  0.20218  0.84488  0.55865  1.0000
  H   H664      1.0  0.03890  0.55922  0.61611  1.0000
  Fe  Fe98      1.0  0.20790  0.87522  0.51210  1.0000
  S   S201      1.0  0.20465  0.84768  0.51671  1.0000
  Fe  Fe99      1.0  0.23619  0.89614  0.49667  1.0000
  H   H665      1.0  0.17157  0.89923  0.48969  1.0000
  S   S202      1.0  0.18740  0.89866  0.51818  1.0000
  S   S203      1.0  0.21813  0.92138  0.50101  1.0000
  C   C659      1.0  0.27089  0.95288  0.55132  1.0000
  C   C660      1.0  0.10159  0.51519  0.72659  1.0000
  C   C661      1.0  0.31222  0.96636  0.50974  1.0000
  Fe  Fe100     1.0  0.12957  0.50331  0.64041  1.0000
  S   S204      1.0  0.07463  0.70117  0.53864  1.0000
  H   H666      1.0  0.02013  0.82985  0.54233  1.0000
  C   C662      1.0  0.09813  0.74142  0.52812  1.0000
  Fe  Fe101     1.0  0.09792  0.80424  0.50255  1.0000
  H   H667      1.0  0.26022  0.94956  0.56188  1.0000
  Fe  Fe102     1.0  0.07060  0.66309  0.50304  1.0000
  C   C663      1.0  0.00176  0.57763  0.56658  1.0000
  C   C664      1.0  0.11475  0.73305  0.53115  1.0000
  Fe  Fe103     1.0  0.12639  0.81090  0.51574  1.0000
  H   H668      1.0  0.02235  0.57747  0.57805  1.0000
  S   S205      1.0  0.13132  0.83111  0.52674  1.0000
  C   C665      1.0  0.05111  0.63606  0.49167  1.0000
  C   C666      1.0  0.28216  0.96312  0.52077  1.0000
  C   C667      1.0  0.00816  0.80928  0.54328  1.0000
  H   H669      1.0  0.14542  0.88680  0.56123  1.0000
  H   H670      1.0  0.28020  0.96747  0.50755  1.0000
  S   S206      1.0  0.10572  0.79538  0.52841  1.0000
  H   H671      1.0  0.19507  0.81690  0.51613  1.0000
  H   H672      1.0  0.13084  0.51257  0.68852  1.0000
  S   S207      1.0  0.08872  0.68049  0.49846  1.0000
  C   C668      1.0  0.03994  0.72252  0.51846  1.0000
  C   C669      1.0  0.26844  0.95857  0.53430  1.0000
  H   H673      1.0  0.02550  0.60463  0.52497  1.0000
  C   C670      1.0  0.04025  0.54536  0.61790  1.0000
  H   H674      1.0  0.11043  0.61152  0.55774  1.0000
  H   H675      1.0  0.14245  0.73497  0.49694  1.0000
  H   H676      1.0  0.02296  0.53455  0.71845  1.0000
  H   H677      1.0  0.29349  0.87857  0.53208  1.0000
  S   S208      1.0  0.06229  0.66224  0.53148  1.0000
  H   H678      1.0  0.31321  0.95451  0.54336  1.0000
  N   N59       1.0  0.29790  0.96197  0.52415  1.0000
  S   S209      1.0  0.07359  0.50063  0.63409  1.0000
  H   H679      1.0  0.01886  0.51635  0.61572  1.0000
  H   H680      1.0  0.17162  0.89634  0.56126  1.0000
  S   S210      1.0  0.07450  0.61609  0.55557  1.0000
  C   C671      1.0  0.10472  0.60194  0.56806  1.0000
  S   S211      1.0  0.12837  0.52746  0.64896  1.0000
  H   H681      1.0  0.03837  0.60840  0.55577  1.0000
  C   C672      1.0  0.18438  0.84384  0.51744  1.0000
  C   C673      1.0  0.18335  0.82705  0.51739  1.0000
  C   C674      1.0  0.16720  0.82321  0.51931  1.0000
  C   C675      1.0  0.15193  0.83604  0.52170  1.0000
  C   C676      1.0  0.15300  0.85289  0.52147  1.0000
  C   C677      1.0  0.16918  0.85686  0.51909  1.0000
  H   H682      1.0  0.11423  0.60496  0.61417  1.0000
  H   H683      1.0  0.16650  0.81014  0.51966  1.0000
  H   H684      1.0  0.14122  0.86290  0.52324  1.0000
  H   H685      1.0  0.16981  0.86986  0.51902  1.0000
  C   C678      1.0  0.27575  0.90323  0.49258  1.0000
  C   C679      1.0  0.28709  0.95141  0.55461  1.0000
  H   H686      1.0  0.08021  0.66427  0.56644  1.0000
  C   C680      1.0  0.29515  0.91515  0.50838  1.0000
  C   C681      1.0  0.27731  0.91638  0.51500  1.0000
  C   C682      1.0  0.26764  0.91029  0.50721  1.0000
  H   H687      1.0  0.08369  0.60376  0.61755  1.0000
  H   H688      1.0  0.05452  0.52090  0.71211  1.0000
  H   H689      1.0  0.27101  0.92169  0.52641  1.0000
  H   H690      1.0  0.25396  0.91092  0.51265  1.0000
  C   C683      1.0  0.20820  0.93142  0.55352  1.0000
  C   C684      1.0  0.20778  0.93376  0.56988  1.0000
  C   C685      1.0  0.21273  0.94816  0.57141  1.0000
  C   C686      1.0  0.21785  0.96059  0.55662  1.0000
  C   C687      1.0  0.21815  0.95846  0.54015  1.0000
  C   C688      1.0  0.21347  0.94378  0.53860  1.0000
  H   H691      1.0  0.20370  0.92432  0.58146  1.0000
  H   H692      1.0  0.21246  0.94969  0.58416  1.0000
  H   H693      1.0  0.22200  0.96806  0.52865  1.0000
  H   H694      1.0  0.21374  0.94214  0.52594  1.0000
  C   C689      1.0  0.10693  0.57839  0.59400  1.0000
  C   C690      1.0  0.11433  0.59062  0.58026  1.0000
  C   C691      1.0  0.17253  0.88294  0.56099  1.0000
  C   C692      1.0  0.08043  0.58843  0.58287  1.0000
  C   C693      1.0  0.09005  0.57710  0.59507  1.0000
  H   H695      1.0  0.21722  0.96949  0.49340  1.0000
  H   H696      1.0  0.06723  0.58764  0.58405  1.0000
  H   H697      1.0  0.08421  0.56778  0.60563  1.0000
  C   C694      1.0  0.99496  0.58319  0.55159  1.0000
  S   S212      1.0  0.11576  0.51776  0.61876  1.0000
  N   N60       1.0  0.02572  0.59123  0.55140  1.0000
  Fe  Fe104     1.0  0.08380  0.63828  0.53452  1.0000
  H   H698      1.0  0.13213  0.70826  0.53797  1.0000
  C   C695      1.0  0.02702  0.53910  0.61570  1.0000
  H   H699      1.0  0.31132  0.86030  0.53696  1.0000
  H   H700      1.0  0.99501  0.81726  0.54478  1.0000
  C   C696      1.0  0.02898  0.53052  0.70624  1.0000
  S   S213      1.0  0.10602  0.49711  0.65998  1.0000
  C   C697      1.0  0.01722  0.58183  0.56628  1.0000
  C   C698      1.0  0.13732  0.50724  0.71363  1.0000
  H   H701      1.0  0.06938  0.64775  0.56725  1.0000
  S   S214      1.0  0.09306  0.52425  0.69488  1.0000
  H   H702      1.0  0.00539  0.53918  0.69671  1.0000
  C   C699      1.0  0.30059  0.95586  0.54076  1.0000
  C   C700      1.0  0.29106  0.86222  0.51017  1.0000
  C   C701      1.0  0.05836  0.80371  0.49482  1.0000
  C   C702      1.0  0.15938  0.86029  0.56050  1.0000
  S   S215      1.0  0.11819  0.56683  0.61081  1.0000
  Fe  Fe105     1.0  0.10828  0.65547  0.50370  1.0000
  S   S216      1.0  0.13449  0.65450  0.48593  1.0000
  N   N61       1.0  0.02664  0.52793  0.67852  1.0000
  C   C703      1.0  0.02881  0.52121  0.61790  1.0000
  H   H703      1.0  0.18897  0.82486  0.55227  1.0000
  C   C704      1.0  0.10588  0.61530  0.60659  1.0000
  C   C705      1.0  0.09054  0.71325  0.53452  1.0000
  H   H704      1.0  0.11097  0.69081  0.54041  1.0000
  H   H705      1.0  0.06806  0.51202  0.68394  1.0000
  S   S217      1.0  0.08685  0.53834  0.64739  1.0000
  C   C706      1.0  0.08868  0.61462  0.60851  1.0000
  H   H706      1.0  0.04452  0.49560  0.62531  1.0000
  C   C707      1.0  0.11932  0.71478  0.53552  1.0000
  H   H707      1.0  0.03740  0.69720  0.53433  1.0000
  H   H708      1.0  0.09460  0.75549  0.52464  1.0000
  C   C708      1.0  0.05500  0.53358  0.62301  1.0000
  H   H709      1.0  0.13462  0.48845  0.59882  1.0000
  N   N62       1.0  0.08487  0.64067  0.58601  1.0000
  H   H710      1.0  0.27845  0.85456  0.49456  1.0000
  H   H711      1.0  0.20004  0.87528  0.55994  1.0000
  H   H712      1.0  0.12741  0.59163  0.57934  1.0000
  C   C709      1.0  0.10791  0.51614  0.70875  1.0000
  C   C710      1.0  0.03554  0.70646  0.52225  1.0000
  S   S218      1.0  0.13001  0.74500  0.52984  1.0000
  H   H713      1.0  0.05026  0.59765  0.53830  1.0000
  C   C711      1.0  0.04164  0.59597  0.55146  1.0000
  C   C712      1.0  0.07430  0.55899  0.71929  1.0000
  C   C713      1.0  0.07833  0.62741  0.59796  1.0000
  H   H714      1.0  0.12604  0.62904  0.59228  1.0000
  C   C714      1.0  0.01898  0.59695  0.53672  1.0000
  N   N63       1.0  0.17514  0.84874  0.55977  1.0000
  C   C715      1.0  0.04343  0.50947  0.62313  1.0000
  C   C716      1.0  0.15786  0.87759  0.56098  1.0000
  H   H715      1.0  0.16601  0.82909  0.55468  1.0000
  N   N64       1.0  0.30626  0.86464  0.51189  1.0000
  C   C717      1.0  0.05427  0.51785  0.68691  1.0000
  C   C718      1.0  0.18963  0.85394  0.55957  1.0000
  H   H716      1.0  0.02173  0.52179  0.65686  1.0000
  C   C719      1.0  0.04403  0.52060  0.67485  1.0000
  C   C720      1.0  0.30321  0.90820  0.49368  1.0000
  H   H717      1.0  0.14793  0.85621  0.56046  1.0000
  C   C721      1.0  0.02884  0.70241  0.51031  1.0000
  C   C722      1.0  0.01618  0.53113  0.66556  1.0000
  H   H718      1.0  0.99841  0.59734  0.52483  1.0000
  Fe  Fe106     1.0  0.09200  0.51325  0.63900  1.0000
  N   N65       1.0  0.04175  0.78881  0.53879  1.0000
  C   C723      1.0  0.02805  0.78183  0.54014  1.0000
  C   C724      1.0  0.03901  0.80578  0.53984  1.0000
  H   H719      1.0  0.01455  0.69772  0.48814  1.0000
  C   C725      1.0  0.02220  0.81629  0.54198  1.0000
  C   C726      1.0  0.00359  0.59293  0.53656  1.0000
  C   C727      1.0  0.05939  0.77791  0.53616  1.0000
  H   H720      1.0  0.08778  0.51855  0.73154  1.0000
  H   H721      1.0  0.04988  0.81145  0.53848  1.0000
  H   H722      1.0  0.01563  0.54456  0.65740  1.0000
  C   C728      1.0  0.13094  0.50690  0.73141  1.0000
  H   H723      1.0  0.05139  0.60899  0.49468  1.0000
  H   H724      1.0  0.06939  0.78539  0.53424  1.0000
  H   H725      1.0  0.06091  0.76682  0.54754  1.0000
  H   H726      1.0  0.06216  0.77281  0.52426  1.0000
  Fe  Fe107     1.0  0.00136  0.77632  0.49111  1.0000
  Fe  Fe108     1.0  0.19948  0.91250  0.49188  1.0000
  H   H727      1.0  0.06192  0.66044  0.58372  1.0000
  C   C729      1.0  0.08764  0.60104  0.56950  1.0000
  H   H728      1.0  0.19915  0.95928  0.49952  1.0000
  C   C730      1.0  0.32137  0.86041  0.50021  1.0000
  H   H729      1.0  0.25598  0.95942  0.53164  1.0000
  S   S219      1.0  0.10350  0.65347  0.53261  1.0000
  H   H730      1.0  0.05012  0.51682  0.66255  1.0000
  H   H731      1.0  0.04930  0.58570  0.56030  1.0000
  S   S220      1.0  0.14607  0.78822  0.50690  1.0000
  H   H732      1.0  0.00272  0.52961  0.67193  1.0000
  C   C731      1.0  0.08595  0.73154  0.53014  1.0000
  C   C732      1.0  0.30655  0.87125  0.52662  1.0000
  Fe  Fe109     1.0  0.08243  0.67738  0.52730  1.0000
  C   C733      1.0  0.12582  0.51189  0.70229  1.0000
  C   C734      1.0  0.18853  0.87108  0.56023  1.0000
  C   C735      1.0  0.13890  0.72846  0.48903  1.0000
  H   H733      1.0  0.17518  0.82271  0.57382  1.0000
  C   C736      1.0  0.03094  0.79997  0.49207  1.0000
  S   S221      1.0  0.09069  0.63809  0.50603  1.0000
  C   C737      1.0  0.10178  0.64139  0.58395  1.0000
  H   H734      1.0  0.06908  0.55806  0.70886  1.0000
  C   C738      1.0  0.07359  0.65395  0.57532  1.0000
  H   H735      1.0  0.10711  0.65165  0.57420  1.0000
  S   S222      1.0  0.05053  0.67077  0.48684  1.0000
  C   C739      1.0  0.05637  0.51564  0.62595  1.0000
  H   H736      1.0  0.04524  0.72575  0.52757  1.0000
  S   S223      1.0  0.00758  0.55329  0.61167  1.0000
  C   C740      1.0  0.29066  0.85584  0.49619  1.0000
  H   H737      1.0  0.03022  0.76842  0.53921  1.0000
  C   C741      1.0  0.03766  0.73430  0.50284  1.0000
  C   C742      1.0  0.04667  0.52284  0.70270  1.0000
  S   S224      1.0  0.22390  0.97843  0.55940  1.0000
  H   H738      1.0  0.31520  0.88057  0.52239  1.0000
  H   H739      1.0  0.32171  0.97049  0.51421  1.0000
  H   H740      1.0  0.28922  0.94676  0.56777  1.0000
  C   C743      1.0  0.09225  0.55618  0.71746  1.0000
  C   C744      1.0  0.01911  0.53306  0.69390  1.0000
  S   S225      1.0  0.99845  0.76608  0.51985  1.0000
  H   H741      1.0  0.02561  0.68981  0.51328  1.0000
  H   H742      1.0  0.04123  0.74673  0.49974  1.0000
  H   H743      1.0  0.27901  0.86578  0.51925  1.0000
  H   H744      1.0  0.10070  0.55332  0.70540  1.0000
  N   N66       1.0  0.09906  0.55604  0.73099  1.0000
  C   C745      1.0  0.03074  0.72993  0.49128  1.0000
  C   C746      1.0  0.01107  0.79191  0.54252  1.0000
  C   C747      1.0  0.06725  0.79007  0.48643  1.0000
  S   S226      1.0  0.21849  0.88862  0.48500  1.0000
  H   H745      1.0  0.30730  0.97745  0.49953  1.0000
  S   S227      1.0  0.11693  0.82154  0.49079  1.0000
  H   H746      1.0  0.12221  0.56431  0.72781  1.0000
  C   C748      1.0  0.32142  0.85401  0.48608  1.0000
  S   S228      1.0  0.11549  0.78149  0.49191  1.0000
  H   H747      1.0  0.31691  0.90729  0.48841  1.0000
  H   H748      1.0  0.31894  0.95485  0.50398  1.0000
  C   C749      1.0  0.11793  0.55222  0.72926  1.0000
  H   H749      1.0  0.06366  0.63325  0.49478  1.0000
  H   H750      1.0  0.12502  0.54635  0.71789  1.0000
  C   C750      1.0  0.20406  0.97090  0.49127  1.0000
  C   C751      1.0  0.13972  0.71057  0.49416  1.0000
  C   C752      1.0  0.29350  0.90237  0.48572  1.0000
  C   C753      1.0  0.04021  0.80871  0.49748  1.0000
  H   H751      1.0  0.13584  0.68845  0.48786  1.0000
  H   H752      1.0  0.99510  0.57011  0.57839  1.0000
  H   H753      1.0  0.01693  0.80395  0.49416  1.0000
  H   H754      1.0  0.19548  0.98271  0.49563  1.0000
  H   H755      1.0  0.15619  0.82440  0.48633  1.0000
  C   C754      1.0  0.04420  0.62232  0.49152  1.0000
  N   N67       1.0  0.02633  0.71419  0.49515  1.0000
  S   S229      1.0  0.01870  0.60882  0.48813  1.0000
  C   C755      1.0  0.04190  0.65333  0.48744  1.0000
  H   H756      1.0  0.30362  0.98674  0.55640  1.0000
  C   C756      1.0  0.02791  0.62586  0.48750  1.0000
  H   H757      1.0  0.08123  0.78618  0.48425  1.0000
  H   H758      1.0  0.17644  0.85065  0.48493  1.0000
  C   C757      1.0  0.31323  0.53009  0.83774  1.0000
  H   H759      1.0  0.99202  0.49220  0.76940  1.0000
  S   S230      1.0  0.03109  0.52304  0.75631  1.0000
  H   H760      1.0  0.06696  0.51410  0.75575  1.0000
  H   H761      1.0  0.10806  0.51030  0.75154  1.0000
  H   H762      1.0  0.16255  0.58065  0.87840  1.0000
  Fe  Fe110     1.0  0.23104  0.53860  0.88067  1.0000
  S   S231      1.0  0.20700  0.53482  0.90103  1.0000
  S   S232      1.0  0.23762  0.56482  0.87114  1.0000
  Fe  Fe111     1.0  0.24035  0.50188  0.87591  1.0000
  H   H763      1.0  0.28704  0.53811  0.95013  1.0000
  C   C758      1.0  0.29982  0.52111  0.84324  1.0000
  Fe  Fe112     1.0  0.20251  0.52040  0.88360  1.0000
  S   S233      1.0  0.17544  0.52333  0.87980  1.0000
  Fe  Fe113     1.0  0.22398  0.50951  0.91162  1.0000
  H   H764      1.0  0.13856  0.52793  0.84000  1.0000
  S   S234      1.0  0.22501  0.52664  0.86224  1.0000
  S   S235      1.0  0.24838  0.51434  0.89250  1.0000
  C   C759      1.0  0.07092  0.52556  0.77448  1.0000
  S   S236      1.0  0.31663  0.56858  0.85190  1.0000
  Fe  Fe114     1.0  0.12402  0.49016  0.81068  1.0000
  H   H765      1.0  0.31006  0.54398  0.83707  1.0000
  C   C760      1.0  0.07030  0.56332  0.74811  1.0000
  H   H766      1.0  0.08478  0.52120  0.77145  1.0000
  H   H767      1.0  0.19490  0.51527  0.97442  1.0000
  H   H768      1.0  0.18351  0.56513  0.81833  1.0000
  H   H769      1.0  0.21318  0.56917  0.81540  1.0000
  C   C761      1.0  0.04510  0.54239  0.78971  1.0000
  Fe  Fe115     1.0  0.14002  0.52141  0.80052  1.0000
  S   S237      1.0  0.14915  0.49535  0.79339  1.0000
  H   H770      1.0  0.20057  0.57142  0.86915  1.0000
  C   C762      1.0  0.26816  0.52745  0.92430  1.0000
  H   H771      1.0  0.15752  0.56102  0.87706  1.0000
  Fe  Fe116     1.0  0.10330  0.52525  0.79586  1.0000
  H   H772      1.0  0.27337  0.55884  0.90865  1.0000
  H   H773      1.0  0.02101  0.54348  0.78303  1.0000
  C   C763      1.0  0.28382  0.51244  0.95258  1.0000
  H   H774      1.0  0.06185  0.56607  0.76021  1.0000
  H   H775      1.0  0.22159  0.57246  0.84107  1.0000
  C   C764      1.0  0.03492  0.53844  0.78066  1.0000
  Fe  Fe117     1.0  0.00216  0.53359  0.76073  1.0000
  C   C765      1.0  0.28226  0.53017  0.94476  1.0000
  S   S238      1.0  0.11569  0.51540  0.81924  1.0000
  C   C766      1.0  0.25967  0.56542  0.86679  1.0000
  C   C767      1.0  0.26489  0.58035  0.85590  1.0000
  C   C768      1.0  0.28236  0.58122  0.85172  1.0000
  C   C769      1.0  0.29471  0.56739  0.85881  1.0000
  C   C770      1.0  0.28952  0.55255  0.87012  1.0000
  C   C771      1.0  0.27202  0.55147  0.87389  1.0000
  H   H776      1.0  0.25545  0.59120  0.85040  1.0000
  H   H777      1.0  0.28632  0.59268  0.84292  1.0000
  H   H778      1.0  0.29905  0.54177  0.87554  1.0000
  H   H779      1.0  0.26815  0.53991  0.88227  1.0000
  C   C772      1.0  0.22823  0.51197  0.95136  1.0000
  C   C773      1.0  0.23187  0.50481  0.96797  1.0000
  C   C774      1.0  0.23339  0.51555  0.97784  1.0000
  C   C775      1.0  0.23172  0.53344  0.97100  1.0000
  C   C776      1.0  0.22853  0.54055  0.95418  1.0000
  C   C777      1.0  0.22665  0.52986  0.94442  1.0000
  N   N68       1.0  0.27477  0.53738  0.93062  1.0000
  H   H780      1.0  0.26396  0.50192  0.92697  1.0000
  H   H781      1.0  0.22718  0.55441  0.94884  1.0000
  H   H782      1.0  0.22382  0.53551  0.93161  1.0000
  H   H783      1.0  0.17475  0.55921  0.88711  1.0000
  C   C778      1.0  0.20395  0.56895  0.82774  1.0000
  C   C779      1.0  0.19672  0.57011  0.85802  1.0000
  C   C780      1.0  0.17183  0.52453  0.85919  1.0000
  C   C781      1.0  0.18529  0.52489  0.84444  1.0000
  C   C782      1.0  0.18180  0.52684  0.82806  1.0000
  H   H784      1.0  0.03900  0.55057  0.79900  1.0000
  H   H785      1.0  0.19833  0.52402  0.84554  1.0000
  H   H786      1.0  0.19222  0.52744  0.81663  1.0000
  C   C783      1.0  0.04286  0.52808  0.76846  1.0000
  S   S239      1.0  0.14547  0.50270  0.74515  1.0000
  C   C784      1.0  0.06082  0.52173  0.76542  1.0000
  H   H787      1.0  0.29348  0.49616  0.84805  1.0000
  C   C785      1.0  0.16497  0.52792  0.82636  1.0000
  H   H788      1.0  0.26472  0.49019  0.98223  1.0000
  H   H789      1.0  0.09366  0.55959  0.75693  1.0000
  S   S240      1.0  0.16111  0.53114  0.80542  1.0000
  C   C786      1.0  0.26952  0.50967  0.93180  1.0000
  C   C787      1.0  0.27744  0.50214  0.94599  1.0000
  H   H790      1.0  0.28647  0.52797  0.84702  1.0000
  S   S241      1.0  0.23362  0.54715  0.98315  1.0000
  N   N69       1.0  0.18054  0.56762  0.85957  1.0000
  S   S242      1.0  0.10984  0.49926  0.78891  1.0000
  C   C788      1.0  0.15160  0.52701  0.84119  1.0000
  S   S243      1.0  0.12684  0.53396  0.77781  1.0000
  S   S244      1.0  0.07614  0.54206  0.79676  1.0000
  H   H791      1.0  0.14452  0.52518  0.86890  1.0000
  H   H792      1.0  0.23336  0.49093  0.97334  1.0000
  C   C789      1.0  0.32143  0.55534  0.94654  1.0000
  C   C790      1.0  0.17567  0.56620  0.84545  1.0000
  H   H793      1.0  0.28335  0.56110  0.92442  1.0000
  H   H794      1.0  0.28976  0.50680  0.96379  1.0000
  H   H795      1.0  0.16287  0.56417  0.84664  1.0000
  C   C791      1.0  0.16819  0.56722  0.87633  1.0000
  C   C792      1.0  0.18731  0.56675  0.82936  1.0000
  C   C793      1.0  0.08833  0.55974  0.74612  1.0000
  Fe  Fe118     1.0  0.13404  0.50727  0.77229  1.0000
  H   H796      1.0  0.17634  0.48767  0.82003  1.0000
  C   C794      1.0  0.20868  0.57076  0.84212  1.0000
  C   C795      1.0  0.06316  0.53588  0.78667  1.0000
  C   C796      1.0  0.15501  0.52549  0.85753  1.0000
  C   C797      1.0  0.27276  0.55609  0.92287  1.0000
  S   S245      1.0  0.22529  0.49831  0.93981  1.0000
  C   C798      1.0  0.30377  0.50328  0.84380  1.0000
  H   H797      1.0  0.26007  0.56331  0.92919  1.0000
  H   H798      1.0  0.31498  0.54825  0.92619  1.0000
  S   S246      1.0  0.21743  0.49452  0.89609  1.0000
  H   H799      1.0  0.26147  0.53335  0.91365  1.0000
  C   C799      1.0  0.32098  0.49473  0.83866  1.0000
  H   H800      1.0  0.29431  0.56091  0.98206  1.0000
  H   H801      1.0  0.31537  0.56900  0.94275  1.0000
  H   H802      1.0  0.12177  0.54252  0.74088  1.0000
  C   C800      1.0  0.32129  0.54363  0.93711  1.0000
  C   C801      1.0  0.06327  0.56249  0.73478  1.0000
  H   H803      1.0  0.04933  0.56432  0.73657  1.0000
  C   C802      1.0  0.11304  0.51063  0.73789  1.0000
  H   H804      1.0  0.27827  0.48843  0.95212  1.0000
  H   H805      1.0  0.19394  0.48778  0.86965  1.0000
  Fe  Fe119     1.0  0.39266  0.38550  0.02233  1.0000
  S   S247      1.0  0.38832  0.36532  0.01159  1.0000
  S   S248      1.0  0.41268  0.37915  0.03844  1.0000
  Fe  Fe120     1.0  0.36507  0.41428  0.00636  1.0000
  S   S249      1.0  0.62726  0.15232  0.00838  1.0000
  S   S250      1.0  0.47709  0.14608  0.99132  1.0000
  Fe  Fe121     1.0  0.35995  0.37737  0.01944  1.0000
  H   H806      1.0  0.54971  0.18292  0.02069  1.0000
  C   C803      1.0  0.38377  0.36127  0.07297  1.0000
  H   H807      1.0  0.50725  0.19194  0.98839  1.0000
  S   S251      1.0  0.36432  0.39588  0.03250  1.0000
  S   S252      1.0  0.39384  0.40592  0.99751  1.0000
  H   H808      1.0  0.62710  0.08393  0.15435  1.0000
  S   S253      1.0  0.50919  0.24335  0.00556  1.0000
  Fe  Fe122     1.0  0.60090  0.06204  0.15699  1.0000
  C   C804      1.0  0.53544  0.04908  0.10084  1.0000
  C   C805      1.0  0.60098  0.07618  0.06756  1.0000
  C   C806      1.0  0.59332  0.13413  0.12321  1.0000
  H   H809      1.0  0.63372  0.11086  0.10963  1.0000
  Fe  Fe123     1.0  0.49065  0.30872  0.00487  1.0000
  Fe  Fe124     1.0  0.49951  0.27234  0.99803  1.0000
  S   S254      1.0  0.48452  0.32519  0.02440  1.0000
  C   C807      1.0  0.62066  0.12478  0.05862  1.0000
  S   S255      1.0  0.63472  0.31548  0.98957  1.0000
  C   C808      1.0  0.55460  0.00839  0.23095  1.0000
  H   H810      1.0  0.52590  0.06433  0.15225  1.0000
  H   H811      1.0  0.37554  0.35707  0.08589  1.0000
  C   C809      1.0  0.59967  0.99165  0.10723  1.0000
  C   C810      1.0  0.49898  0.23134  0.99847  1.0000
  C   C811      1.0  0.63534  0.24608  0.00661  1.0000
  S   S256      1.0  0.47420  0.29068  0.00598  1.0000
  H   H812      1.0  0.59659  0.99833  0.09467  1.0000
  H   H813      1.0  0.40002  0.31294  0.03578  1.0000
  H   H814      1.0  0.63308  0.05457  0.17502  1.0000
  H   H815      1.0  0.58309  0.14439  0.11818  1.0000
  C   C812      1.0  0.46838  0.05650  0.16308  1.0000
  C   C813      1.0  0.62190  0.09970  0.08315  1.0000
  S   S257      1.0  0.51330  0.11463  0.01810  1.0000
  H   H816      1.0  0.52348  0.00783  0.02533  1.0000
  S   S258      1.0  0.59408  0.08255  0.13390  1.0000
  H   H817      1.0  0.55693  0.26383  0.99557  1.0000
  H   H818      1.0  0.55075  0.15390  0.01606  1.0000
  C   C814      1.0  0.62883  0.05605  0.18831  1.0000
  C   C815      1.0  0.45488  0.39054  0.00150  1.0000
  H   H819      1.0  0.47459  0.05536  0.13613  1.0000
  H   H820      1.0  0.47967  0.37291  0.00354  1.0000
  Fe  Fe125     1.0  0.48346  0.03704  0.08443  1.0000
  S   S259      1.0  0.49342  0.03823  0.10689  1.0000
  S   S260      1.0  0.46948  0.05990  0.06685  1.0000
  C   C816      1.0  0.46917  0.00083  0.05736  1.0000
  C   C817      1.0  0.53758  0.06243  0.10705  1.0000
  Fe  Fe126     1.0  0.48190  0.01507  0.12123  1.0000
  S   S261      1.0  0.46728  0.01206  0.14913  1.0000
  Fe  Fe127     1.0  0.51634  0.01828  0.09721  1.0000
  S   S262      1.0  0.54415  0.01575  0.09617  1.0000
  S   S263      1.0  0.46996  0.01532  0.09951  1.0000
  S   S264      1.0  0.50766  0.01927  0.07345  1.0000
  S   S265      1.0  0.50921  0.01629  0.20135  1.0000
  C   C818      1.0  0.47938  0.01150  0.16404  1.0000
  C   C819      1.0  0.47108  0.01167  0.18141  1.0000
  C   C820      1.0  0.48031  0.01233  0.19324  1.0000
  C   C821      1.0  0.49787  0.01287  0.18769  1.0000
  C   C822      1.0  0.50629  0.01208  0.17048  1.0000
  C   C823      1.0  0.49707  0.01143  0.15866  1.0000
  C   C824      1.0  0.62325  0.01489  0.20906  1.0000
  H   H821      1.0  0.47444  0.24993  0.99956  1.0000
  H   H822      1.0  0.51990  0.01238  0.16615  1.0000
  H   H823      1.0  0.50360  0.01124  0.14531  1.0000
  H   H824      1.0  0.60208  0.10627  0.16073  1.0000
  H   H825      1.0  0.62721  0.13281  0.04726  1.0000
  N   N70       1.0  0.38834  0.34783  0.06291  1.0000
  C   C825      1.0  0.62178  0.11518  0.11853  1.0000
  N   N71       1.0  0.63052  0.00528  0.19662  1.0000
  C   C826      1.0  0.55052  0.05901  0.11639  1.0000
  C   C827      1.0  0.56100  0.04228  0.11987  1.0000
  C   C828      1.0  0.55902  0.02907  0.11349  1.0000
  C   C829      1.0  0.54634  0.03249  0.10393  1.0000
  H   H826      1.0  0.57057  0.03936  0.12763  1.0000
  H   H827      1.0  0.56716  0.01613  0.11618  1.0000
  C   C830      1.0  0.50107  0.09932  0.03129  1.0000
  C   C831      1.0  0.48449  0.10022  0.02921  1.0000
  C   C832      1.0  0.47481  0.08818  0.04032  1.0000
  C   C833      1.0  0.48176  0.07505  0.05339  1.0000
  C   C834      1.0  0.49846  0.07395  0.05527  1.0000
  C   C835      1.0  0.50802  0.08616  0.04435  1.0000
  H   H828      1.0  0.47902  0.11030  0.01919  1.0000
  H   H829      1.0  0.46191  0.08905  0.03879  1.0000
  H   H830      1.0  0.50394  0.06383  0.06527  1.0000
  H   H831      1.0  0.52085  0.08539  0.04601  1.0000
  H   H832      1.0  0.62196  0.23256  0.03086  1.0000
  H   H833      1.0  0.59208  0.28638  0.98611  1.0000
  C   C836      1.0  0.50470  0.03213  0.02651  1.0000
  S   S266      1.0  0.59706  0.18868  0.01408  1.0000
  S   S267      1.0  0.63457  0.26417  0.01456  1.0000
  C   C837      1.0  0.63829  0.21652  0.99413  1.0000
  H   H834      1.0  0.60341  0.01463  0.11222  1.0000
  H   H835      1.0  0.62202  0.08307  0.04681  1.0000
  C   C838      1.0  0.56961  0.25726  0.98940  1.0000
  H   H836      1.0  0.33354  0.47490  0.03286  1.0000
  H   H837      1.0  0.65506  0.99984  0.17962  1.0000
  H   H838      1.0  0.34300  0.47970  0.99306  1.0000
  C   C839      1.0  0.32784  0.48450  0.04079  1.0000
  Fe  Fe128     1.0  0.58608  0.18422  0.99398  1.0000
  S   S268      1.0  0.58696  0.15617  0.00632  1.0000
  H   H839      1.0  0.42944  0.40514  0.99784  1.0000
  H   H840      1.0  0.48496  0.17045  0.01861  1.0000
  H   H841      1.0  0.52179  0.21071  0.99563  1.0000
  C   C840      1.0  0.47959  0.05553  0.14701  1.0000
  Fe  Fe129     1.0  0.61707  0.06728  0.11842  1.0000
  S   S269      1.0  0.59621  0.07155  0.18131  1.0000
  C   C841      1.0  0.60799  0.99236  0.13321  1.0000
  C   C842      1.0  0.37965  0.33206  0.04734  1.0000
  C   C843      1.0  0.60381  0.10402  0.08805  1.0000
  C   C844      1.0  0.43213  0.36351  0.03421  1.0000
  C   C845      1.0  0.43478  0.35245  0.02297  1.0000
  C   C846      1.0  0.45061  0.34008  0.02023  1.0000
  C   C847      1.0  0.46387  0.33907  0.02847  1.0000
  C   C848      1.0  0.46099  0.34996  0.03983  1.0000
  C   C849      1.0  0.44521  0.36202  0.04275  1.0000
  H   H842      1.0  0.42469  0.35341  0.01641  1.0000
  H   H843      1.0  0.45273  0.33158  0.01153  1.0000
  H   H844      1.0  0.47114  0.34920  0.04628  1.0000
  H   H845      1.0  0.44324  0.37041  0.05152  1.0000
  C   C850      1.0  0.36067  0.45704  0.00432  1.0000
  C   C851      1.0  0.63268  0.09260  0.14225  1.0000
  Fe  Fe130     1.0  0.57980  0.06459  0.13102  1.0000
  H   H846      1.0  0.36958  0.32998  0.04240  1.0000
  H   H847      1.0  0.36244  0.35233  0.05958  1.0000
  S   S270      1.0  0.35022  0.44226  0.00176  1.0000
  H   H848      1.0  0.38022  0.43725  0.01610  1.0000
  C   C852      1.0  0.58320  0.08058  0.07445  1.0000
  S   S271      1.0  0.61505  0.00306  0.14496  1.0000
  S   S272      1.0  0.60230  0.05056  0.11377  1.0000
  H   H849      1.0  0.51380  0.04023  0.01898  1.0000
  C   C853      1.0  0.40503  0.33829  0.05964  1.0000
  Fe  Fe131     1.0  0.60817  0.03255  0.13875  1.0000
  Fe  Fe132     1.0  0.60061  0.15968  0.02475  1.0000
  H   H850      1.0  0.49777  0.05457  0.18597  1.0000
  C   C854      1.0  0.57283  0.09509  0.06560  1.0000
  H   H851      1.0  0.59708  0.09587  0.09899  1.0000
  Fe  Fe133     1.0  0.38764  0.38632  0.98740  1.0000
  C   C855      1.0  0.51011  0.01399  0.03007  1.0000
  H   H852      1.0  0.41513  0.34080  0.06416  1.0000
  C   C856      1.0  0.62052  0.00318  0.18683  1.0000
  H   H853      1.0  0.57886  0.13013  0.14975  1.0000
  H   H854      1.0  0.45616  0.00611  0.05407  1.0000
  H   H855      1.0  0.64254  0.09770  0.14502  1.0000
  H   H856      1.0  0.58023  0.12222  0.08274  1.0000
  C   C857      1.0  0.61155  0.06387  0.19453  1.0000
  S   S273      1.0  0.34126  0.36014  0.03387  1.0000
  H   H857      1.0  0.61082  0.13476  0.09816  1.0000
  N   N72       1.0  0.50371  0.05351  0.15923  1.0000
  C   C858      1.0  0.61777  0.05921  0.22300  1.0000
  C   C859      1.0  0.48238  0.20996  0.99036  1.0000
  H   H858      1.0  0.62618  0.99520  0.17727  1.0000
  C   C860      1.0  0.37515  0.45108  0.01195  1.0000
  H   H859      1.0  0.42286  0.31845  0.04687  1.0000
  C   C861      1.0  0.46835  0.37643  0.99783  1.0000
  C   C862      1.0  0.39670  0.32254  0.04363  1.0000
  C   C863      1.0  0.60542  0.11087  0.02654  1.0000
  S   S274      1.0  0.35874  0.39631  0.99400  1.0000
  C   C864      1.0  0.59423  0.11890  0.07867  1.0000
  C   C865      1.0  0.47493  0.05646  0.17709  1.0000
  H   H860      1.0  0.52575  0.05176  0.09322  1.0000
  Fe  Fe134     1.0  0.62278  0.18120  0.99638  1.0000
  N   N73       1.0  0.50729  0.16768  0.02818  1.0000
  C   C866      1.0  0.50656  0.18365  0.03078  1.0000
  C   C867      1.0  0.52298  0.15693  0.02328  1.0000
  C   C868      1.0  0.52181  0.18920  0.02852  1.0000
  C   C869      1.0  0.53843  0.16223  0.02053  1.0000
  C   C870      1.0  0.53782  0.17848  0.02315  1.0000
  H   H861      1.0  0.39403  0.45840  0.02062  1.0000
  H   H862      1.0  0.49414  0.19244  0.03409  1.0000
  C   C871      1.0  0.58040  0.10491  0.04983  1.0000
  C   C872      1.0  0.40949  0.32560  0.04986  1.0000
  C   C873      1.0  0.64069  0.05022  0.19939  1.0000
  C   C874      1.0  0.60888  0.12875  0.11196  1.0000
  C   C875      1.0  0.60416  0.11265  0.14702  1.0000
  H   H863      1.0  0.52363  0.14431  0.02105  1.0000
  S   S275      1.0  0.58423  0.04530  0.15566  1.0000
  C   C876      1.0  0.37568  0.34475  0.05704  1.0000
  C   C877      1.0  0.49271  0.05511  0.17487  1.0000
  S   S276      1.0  0.50578  0.99525  0.11351  1.0000
  H   H864      1.0  0.52993  0.04284  0.14822  1.0000
  H   H865      1.0  0.64434  0.10682  0.06445  1.0000
  C   C878      1.0  0.58256  0.27852  0.99431  1.0000
  C   C879      1.0  0.49821  0.00384  0.04010  1.0000
  N   N74       1.0  0.59778  0.10026  0.04298  1.0000
  H   H866      1.0  0.50604  0.05298  0.13282  1.0000
  H   H867      1.0  0.52947  0.07540  0.10436  1.0000
  H   H868      1.0  0.37666  0.37371  0.06587  1.0000
  H   H869      1.0  0.49338  0.14856  0.02971  1.0000
  H   H870      1.0  0.48193  0.16479  0.04207  1.0000
  C   C880      1.0  0.49111  0.16260  0.02973  1.0000
  C   C881      1.0  0.62970  0.21732  0.01126  1.0000
  H   H871      1.0  0.60013  0.03137  0.22091  1.0000
  H   H872      1.0  0.45740  0.01169  0.18565  1.0000
  S   S277      1.0  0.64943  0.04324  0.23108  1.0000
  H   H873      1.0  0.63911  0.08440  0.13252  1.0000
  H   H874      1.0  0.39549  0.36412  0.07486  1.0000
  Fe  Fe135     1.0  0.49523  0.99763  0.09041  1.0000
  H   H875      1.0  0.46640  0.05690  0.18973  1.0000
  C   C882      1.0  0.62829  0.23209  0.01751  1.0000
  C   C883      1.0  0.49733  0.05412  0.14526  1.0000
  C   C884      1.0  0.52240  0.05143  0.15733  1.0000
  H   H876      1.0  0.55907  0.09881  0.07109  1.0000
  H   H877      1.0  0.59686  0.11481  0.01703  1.0000
  C   C885      1.0  0.59095  0.12614  0.14088  1.0000
  H   H878      1.0  0.50259  0.98976  0.04304  1.0000
  C   C886      1.0  0.38293  0.46306  0.01454  1.0000
  C   C887      1.0  0.47608  0.02932  0.04316  1.0000
  H   H879      1.0  0.62470  0.20634  0.01987  1.0000
  C   C888      1.0  0.63509  0.05164  0.21681  1.0000
  N   N75       1.0  0.61916  0.10709  0.13578  1.0000
  S   S278      1.0  0.55408  0.07552  0.12350  1.0000
  H   H880      1.0  0.46799  0.00051  0.07125  1.0000
  C   C889      1.0  0.60257  0.12928  0.06391  1.0000
  C   C890      1.0  0.60613  0.06562  0.21180  1.0000
  H   H881      1.0  0.52116  0.20211  0.03008  1.0000
  C   C891      1.0  0.63033  0.11009  0.06835  1.0000
  C   C892      1.0  0.59560  0.02195  0.20087  1.0000
  H   H882      1.0  0.55045  0.98959  0.07300  1.0000
  C   C893      1.0  0.50821  0.21511  0.99501  1.0000
  H   H883      1.0  0.59278  0.07166  0.21666  1.0000
  H   H884      1.0  0.60928  0.06527  0.07459  1.0000
  H   H885      1.0  0.57236  0.11643  0.04322  1.0000
  H   H886      1.0  0.47373  0.01289  0.20650  1.0000
  H   H887      1.0  0.52645  0.04513  0.16994  1.0000
  S   S279      1.0  0.58983  0.14767  0.05255  1.0000
  Fe  Fe136     1.0  0.50443  0.13271  0.99422  1.0000
  C   C894      1.0  0.60296  0.01155  0.18872  1.0000
  C   C895      1.0  0.60812  0.08631  0.05180  1.0000
  H   H888      1.0  0.57752  0.07301  0.08681  1.0000
  H   H889      1.0  0.58218  0.02909  0.20199  1.0000
  H   H890      1.0  0.63106  0.01641  0.21705  1.0000
  S   S280      1.0  0.51387  0.15754  0.98563  1.0000
  C   C896      1.0  0.46672  0.36626  0.98752  1.0000
  H   H891      1.0  0.61816  0.10367  0.02029  1.0000
  N   N76       1.0  0.48140  0.01155  0.04640  1.0000
  H   H892      1.0  0.45472  0.05695  0.16472  1.0000
  C   C897      1.0  0.35411  0.47501  0.99910  1.0000
  H   H893      1.0  0.56949  0.28738  0.99457  1.0000
  C   C898      1.0  0.48757  0.03985  0.03299  1.0000
  C   C899      1.0  0.60569  0.02334  0.21139  1.0000
  H   H894      1.0  0.45967  0.23096  0.99261  1.0000
  S   S281      1.0  0.47133  0.19609  0.98703  1.0000
  C   C900      1.0  0.60351  0.00094  0.11719  1.0000
  C   C901      1.0  0.44008  0.39439  0.99472  1.0000
  S   S282      1.0  0.51585  0.28905  0.00014  1.0000
  S   S283      1.0  0.64288  0.19737  0.98655  1.0000
  C   C902      1.0  0.48162  0.23731  0.99702  1.0000
  S   S284      1.0  0.62540  0.04801  0.14196  1.0000
  S   S285      1.0  0.63402  0.08176  0.09578  1.0000
  C   C903      1.0  0.47328  0.22654  0.99311  1.0000
  C   C904      1.0  0.49998  0.20447  0.99086  1.0000
  Fe  Fe137     1.0  0.64072  0.28637  0.99218  1.0000
  C   C905      1.0  0.64355  0.24532  0.98941  1.0000
  C   C906      1.0  0.37626  0.48102  0.00954  1.0000
  H   H895      1.0  0.46296  0.03552  0.04871  1.0000
  H   H896      1.0  0.60734  0.12278  0.02894  1.0000
  H   H897      1.0  0.58510  0.27405  0.00768  1.0000
  H   H898      1.0  0.48329  0.05394  0.03056  1.0000
  Fe  Fe138     1.0  0.61311  0.15132  0.98890  1.0000
  H   H899      1.0  0.45569  0.39819  0.00997  1.0000
  N   N77       1.0  0.58404  0.26344  0.98734  1.0000
  Fe  Fe139     1.0  0.49641  0.01444  0.22972  1.0000
  C   C907      1.0  0.54848  0.99627  0.22664  1.0000
  H   H900      1.0  0.53783  0.00056  0.21987  1.0000
  H   H901      1.0  0.54852  0.02215  0.22781  1.0000
  H   H902      1.0  0.59527  0.01016  0.18054  1.0000
  C   C908      1.0  0.64906  0.99693  0.19370  1.0000
  H   H903      1.0  0.65408  0.04426  0.19462  1.0000
  C   C909      1.0  0.43883  0.38388  0.98451  1.0000
  C   C910      1.0  0.36189  0.48699  0.00171  1.0000
  H   H904      1.0  0.65617  0.00165  0.20054  1.0000
  H   H905      1.0  0.47694  0.35491  0.98541  1.0000
  H   H906      1.0  0.32723  0.42382  0.99513  1.0000
  H   H907      1.0  0.55955  0.23723  0.98564  1.0000
  Fe  Fe140     1.0  0.50934  0.00391  0.26349  1.0000
  H   H908      1.0  0.56326  0.98935  0.28822  1.0000
  C   C911      1.0  0.34833  0.01598  0.46365  1.0000
  Fe  Fe141     1.0  0.47751  0.03312  0.25932  1.0000
  S   S286      1.0  0.46831  0.02109  0.24305  1.0000
  S   S287      1.0  0.46477  0.05908  0.26620  1.0000
  H   H909      1.0  0.48509  0.07205  0.28290  1.0000
  C   C912      1.0  0.50853  0.06857  0.29181  1.0000
  C   C913      1.0  0.40021  0.00540  0.44763  1.0000
  H   H910      1.0  0.37759  0.09055  0.33578  1.0000
  S   S288      1.0  0.50497  0.02910  0.24392  1.0000
  H   H911      1.0  0.48985  0.01532  0.31795  1.0000
  S   S289      1.0  0.41036  0.01757  0.36379  1.0000
  Fe  Fe142     1.0  0.36118  0.03986  0.37167  1.0000
  S   S290      1.0  0.38048  0.04866  0.38010  1.0000
  C   C914      1.0  0.38151  0.03976  0.44636  1.0000
  Fe  Fe143     1.0  0.39747  0.04532  0.35402  1.0000
  S   S291      1.0  0.41093  0.06655  0.33722  1.0000
  Fe  Fe144     1.0  0.39158  0.02017  0.38918  1.0000
  S   S292      1.0  0.37075  0.01169  0.38291  1.0000
  S   S293      1.0  0.37716  0.03897  0.34491  1.0000
  C   C915      1.0  0.54554  0.03848  0.27040  1.0000
  H   H912      1.0  0.38233  0.04075  0.41951  1.0000
  S   S294      1.0  0.60762  0.02064  0.30430  1.0000
  H   H913      1.0  0.52894  0.03034  0.31426  1.0000
  H   H914      1.0  0.52530  0.03048  0.26492  1.0000
  H   H915      1.0  0.50988  0.00871  0.30305  1.0000
  C   C916      1.0  0.36933  0.08537  0.33116  1.0000
  C   C917      1.0  0.38610  0.03282  0.43144  1.0000
  C   C918      1.0  0.39536  0.01554  0.43211  1.0000
  H   H916      1.0  0.33021  0.07534  0.34292  1.0000
  H   H917      1.0  0.57829  0.01124  0.28929  1.0000
  Fe  Fe145     1.0  0.63408  0.03619  0.25826  1.0000
  C   C919      1.0  0.44951  0.06020  0.28596  1.0000
  C   C920      1.0  0.44396  0.07614  0.29100  1.0000
  C   C921      1.0  0.43223  0.07773  0.30676  1.0000
  C   C922      1.0  0.42575  0.06345  0.31764  1.0000
  C   C923      1.0  0.43112  0.04742  0.31264  1.0000
  C   C924      1.0  0.44312  0.04576  0.29681  1.0000
  H   H918      1.0  0.44879  0.08734  0.28271  1.0000
  H   H919      1.0  0.42815  0.09013  0.31052  1.0000
  H   H920      1.0  0.42611  0.03634  0.32099  1.0000
  H   H921      1.0  0.44726  0.03342  0.29296  1.0000
  C   C925      1.0  0.54329  0.00841  0.27635  1.0000
  C   C926      1.0  0.55829  0.00306  0.28321  1.0000
  H   H922      1.0  0.54055  0.05219  0.26544  1.0000
  H   H923      1.0  0.37073  0.06721  0.29821  1.0000
  S   S295      1.0  0.61379  0.02120  0.26274  1.0000
  C   C927      1.0  0.34682  0.08981  0.35708  1.0000
  C   C928      1.0  0.39552  0.01228  0.46253  1.0000
  C   C929      1.0  0.36564  0.07219  0.30997  1.0000
  S   S296      1.0  0.48262  0.00902  0.28003  1.0000
  C   C930      1.0  0.53694  0.02615  0.26999  1.0000
  H   H924      1.0  0.34114  0.06474  0.31573  1.0000
  Fe  Fe146     1.0  0.59796  0.03833  0.28094  1.0000
  C   C931      1.0  0.56687  0.01543  0.28373  1.0000
  C   C932      1.0  0.50368  0.01623  0.31334  1.0000
  H   H925      1.0  0.48239  0.04167  0.29581  1.0000
  H   H926      1.0  0.51000  0.08183  0.28592  1.0000
  H   H927      1.0  0.51013  0.01005  0.32454  1.0000
  H   H928      1.0  0.39458  0.06448  0.48208  1.0000
  Fe  Fe147     1.0  0.38863  0.01149  0.35680  1.0000
  H   H929      1.0  0.34536  0.03109  0.43804  1.0000
  H   H930      1.0  0.64815  0.07574  0.31109  1.0000
  S   S297      1.0  0.50282  0.98879  0.24825  1.0000
  C   C933      1.0  0.49313  0.04586  0.29744  1.0000
  C   C934      1.0  0.37587  0.07949  0.31569  1.0000
  H   H931      1.0  0.53206  0.06068  0.30165  1.0000
  H   H932      1.0  0.57258  0.01206  0.24355  1.0000
  C   C935      1.0  0.38608  0.02943  0.46198  1.0000
  S   S298      1.0  0.56992  0.04903  0.27932  1.0000
  H   H933      1.0  0.34222  0.02688  0.46989  1.0000
  C   C936      1.0  0.49460  0.06310  0.29009  1.0000
  Fe  Fe148     1.0  0.62872  0.03549  0.29649  1.0000
  C   C937      1.0  0.51895  0.03959  0.30793  1.0000
  C   C938      1.0  0.52079  0.05678  0.30080  1.0000
  Fe  Fe149     1.0  0.62530  0.00491  0.28549  1.0000
  C   C939      1.0  0.56035  0.03320  0.27752  1.0000
  N   N78       1.0  0.50511  0.03441  0.30637  1.0000
  S   S299      1.0  0.63604  0.04278  0.31766  1.0000
  H   H934      1.0  0.37425  0.05307  0.44583  1.0000
  S   S300      1.0  0.40017  0.00569  0.41432  1.0000
  N   N79       1.0  0.36542  0.98846  0.44740  1.0000
  S   S301      1.0  0.61735  0.05498  0.27468  1.0000
  C   C940      1.0  0.34906  0.07082  0.31977  1.0000
  S   S302      1.0  0.53297  0.99277  0.27531  1.0000
  H   H935      1.0  0.40760  0.99213  0.44814  1.0000
  H   H936      1.0  0.65008  0.04516  0.34496  1.0000
  H   H937      1.0  0.42637  0.99408  0.30994  1.0000
  S   S303      1.0  0.64718  0.01821  0.27944  1.0000
  S   S304      1.0  0.37968  0.03803  0.48077  1.0000
  S   S305      1.0  0.39259  0.99037  0.34297  1.0000
  C   C941      1.0  0.32703  0.03478  0.35591  1.0000
  C   C942      1.0  0.34294  0.07685  0.33517  1.0000
  S   S306      1.0  0.33263  0.05220  0.37734  1.0000
  C   C943      1.0  0.35010  0.01835  0.44578  1.0000
  H   H938      1.0  0.35332  0.08008  0.36717  1.0000
  H   H939      1.0  0.63061  0.99164  0.32506  1.0000
  H   H940      1.0  0.64216  0.07317  0.28471  1.0000
  C   C944      1.0  0.35487  0.99963  0.47336  1.0000
  Fe  Fe150     1.0  0.47552  0.99650  0.26278  1.0000
  H   H941      1.0  0.34962  0.10268  0.35558  1.0000
  H   H942      1.0  0.34097  0.03159  0.35143  1.0000
  H   H943      1.0  0.65025  0.99919  0.32084  1.0000
  H   H944      1.0  0.38903  0.08008  0.30855  1.0000
  N   N80       1.0  0.35302  0.08412  0.34060  1.0000
  H   H945      1.0  0.42616  0.05290  0.47941  1.0000
  H   H946      1.0  0.64102  0.99294  0.25650  1.0000
  H   H947      1.0  0.33259  0.09096  0.36189  1.0000
  H   H948      1.0  0.65311  0.06050  0.25856  1.0000
  H   H949      1.0  0.61334  0.06034  0.23641  1.0000
  C   C945      1.0  0.35885  0.00440  0.43779  1.0000
  H   H950      1.0  0.36096  0.00662  0.42377  1.0000
  H   H951      1.0  0.39930  0.00435  0.47442  1.0000
  C   C946      1.0  0.56821  0.00258  0.23986  1.0000
  H   H952      1.0  0.59279  0.98990  0.25717  1.0000
  C   C947      1.0  0.65606  0.06921  0.27996  1.0000
  C   C948      1.0  0.65756  0.03682  0.32077  1.0000
  C   C949      1.0  0.64418  0.98779  0.32685  1.0000
  H   H953      1.0  0.48752  0.06995  0.70010  1.0000
  S   S307      1.0  0.48882  0.02246  0.61428  1.0000
  H   H954      1.0  0.63710  0.04895  0.71109  1.0000
  Fe  Fe151     1.0  0.39224  0.01291  0.54145  1.0000
  S   S308      1.0  0.45079  0.01301  0.63305  1.0000
  C   C950      1.0  0.51275  0.01459  0.57461  1.0000
  Fe  Fe152     1.0  0.47203  0.00713  0.61016  1.0000
  S   S309      1.0  0.46977  0.00629  0.58340  1.0000
  Fe  Fe153     1.0  0.46886  0.02577  0.63879  1.0000
  S   S310      1.0  0.45940  0.05103  0.64765  1.0000
  H   H955      1.0  0.64593  0.09828  0.61759  1.0000
  S   S311      1.0  0.48155  0.00180  0.65578  1.0000
  Fe  Fe154     1.0  0.59314  0.04564  0.61841  1.0000
  S   S312      1.0  0.60906  0.02029  0.63032  1.0000
  S   S313      1.0  0.56397  0.05031  0.62294  1.0000
  Fe  Fe155     1.0  0.62468  0.06177  0.60261  1.0000
  H   H956      1.0  0.43331  0.03455  0.71539  1.0000
  S   S314      1.0  0.63468  0.08552  0.58711  1.0000
  Fe  Fe156     1.0  0.62796  0.02403  0.60481  1.0000
  H   H957      1.0  0.63774  0.02613  0.69628  1.0000
  Fe  Fe157     1.0  0.62242  0.03660  0.63772  1.0000
  S   S315      1.0  0.62993  0.02796  0.66381  1.0000
  S   S316      1.0  0.61110  0.04826  0.59206  1.0000
  S   S317      1.0  0.60503  0.06189  0.62781  1.0000
  H   H958      1.0  0.50367  0.06934  0.64576  1.0000
  H   H959      1.0  0.48018  0.07475  0.67138  1.0000
  C   C951      1.0  0.50683  0.06766  0.65824  1.0000
  S   S318      1.0  0.62867  0.08658  0.70073  1.0000
  H   H960      1.0  0.63915  0.06361  0.54860  1.0000
  C   C952      1.0  0.41417  0.05089  0.52289  1.0000
  C   C953      1.0  0.43282  0.01219  0.55656  1.0000
  Fe  Fe158     1.0  0.36502  0.99631  0.53706  1.0000
  H   H961      1.0  0.43887  0.04413  0.50577  1.0000
  C   C954      1.0  0.56175  0.05868  0.72798  1.0000
  H   H962      1.0  0.38793  0.05796  0.53675  1.0000
  H   H963      1.0  0.41949  0.04704  0.53450  1.0000
  C   C955      1.0  0.40000  0.06065  0.49363  1.0000
  H   H964      1.0  0.55544  0.05587  0.66489  1.0000
  H   H965      1.0  0.54894  0.06125  0.68585  1.0000
  Fe  Fe159     1.0  0.38428  0.01855  0.50566  1.0000
  C   C956      1.0  0.49362  0.07063  0.67265  1.0000
  H   H966      1.0  0.65491  0.10956  0.56583  1.0000
  C   C957      1.0  0.44956  0.01202  0.57713  1.0000
  C   C958      1.0  0.64567  0.08516  0.62624  1.0000
  C   C959      1.0  0.49776  0.06801  0.68873  1.0000
  C   C960      1.0  0.54620  0.05399  0.67769  1.0000
  C   C961      1.0  0.62073  0.01300  0.73212  1.0000
  C   C962      1.0  0.43426  0.01954  0.58748  1.0000
  N   N81       1.0  0.38939  0.06167  0.50957  1.0000
  C   C963      1.0  0.63094  0.99728  0.72822  1.0000
  H   H967      1.0  0.43199  0.03253  0.68622  1.0000
  H   H968      1.0  0.43468  0.02238  0.59944  1.0000
  H   H969      1.0  0.56883  0.05859  0.71476  1.0000
  H   H970      1.0  0.36325  0.06419  0.52430  1.0000
  N   N82       1.0  0.52808  0.06005  0.67583  1.0000
  H   H971      1.0  0.43587  0.00350  0.68017  1.0000
  H   H972      1.0  0.53432  0.06017  0.64881  1.0000
  H   H973      1.0  0.40658  0.02942  0.59036  1.0000
  C   C964      1.0  0.52411  0.06238  0.66007  1.0000
  S   S319      1.0  0.36764  0.02393  0.53117  1.0000
  H   H974      1.0  0.61368  0.99539  0.67519  1.0000
  H   H975      1.0  0.36592  0.06351  0.50215  1.0000
  C   C965      1.0  0.44880  0.00862  0.56153  1.0000
  H   H976      1.0  0.43237  0.00924  0.54467  1.0000
  C   C966      1.0  0.39627  0.05710  0.52407  1.0000
  H   H977      1.0  0.51827  0.06052  0.70267  1.0000
  C   C967      1.0  0.51517  0.06262  0.69011  1.0000
  H   H978      1.0  0.46060  0.00288  0.55340  1.0000
  S   S320      1.0  0.64302  0.03773  0.61327  1.0000
  H   H979      1.0  0.64497  0.99487  0.72597  1.0000
  S   S321      1.0  0.39713  0.02437  0.56132  1.0000
  C   C968      1.0  0.43995  0.99107  0.72236  1.0000
  C   C969      1.0  0.43515  0.02184  0.71278  1.0000
  Fe  Fe160     1.0  0.62193  0.07878  0.72993  1.0000
  H   H980      1.0  0.64594  0.11141  0.70349  1.0000
  C   C970      1.0  0.43420  0.02080  0.69633  1.0000
  C   C971      1.0  0.59606  0.99680  0.58716  1.0000
  H   H981      1.0  0.35373  0.99768  0.48721  1.0000
  H   H982      1.0  0.54875  0.03991  0.68409  1.0000
  H   H983      1.0  0.41218  0.98976  0.59821  1.0000
  C   C972      1.0  0.62859  0.04440  0.67434  1.0000
  C   C973      1.0  0.63348  0.03974  0.69041  1.0000
  C   C974      1.0  0.63314  0.05263  0.69878  1.0000
  C   C975      1.0  0.62823  0.07027  0.69091  1.0000
  C   C976      1.0  0.62343  0.07494  0.67480  1.0000
  C   C977      1.0  0.62338  0.06203  0.66665  1.0000
  C   C978      1.0  0.43908  0.98954  0.70607  1.0000
  C   C979      1.0  0.64708  0.06296  0.53531  1.0000
  H   H984      1.0  0.61947  0.08857  0.66877  1.0000
  H   H985      1.0  0.61941  0.06575  0.65439  1.0000
  C   C980      1.0  0.41835  0.02351  0.58231  1.0000
  C   C981      1.0  0.42502  0.04930  0.50678  1.0000
  C   C982      1.0  0.65557  0.03159  0.54785  1.0000
  H   H986      1.0  0.50091  0.01970  0.56964  1.0000
  H   H987      1.0  0.63469  0.98978  0.66207  1.0000
  C   C983      1.0  0.41792  0.05422  0.49201  1.0000
  S   S322      1.0  0.40921  0.01018  0.51530  1.0000
  N   N83       1.0  0.53309  0.99014  0.58728  1.0000
  C   C984      1.0  0.54268  0.00112  0.58773  1.0000
  C   C985      1.0  0.53726  0.01915  0.58212  1.0000
  H   H988      1.0  0.34147  0.00804  0.51435  1.0000
  C   C986      1.0  0.53886  0.00529  0.62835  1.0000
  H   H989      1.0  0.57888  0.01380  0.62121  1.0000
  C   C987      1.0  0.56492  0.01612  0.62352  1.0000
  C   C988      1.0  0.55473  0.03282  0.62452  1.0000
  C   C989      1.0  0.53665  0.03572  0.62710  1.0000
  C   C990      1.0  0.52873  0.02199  0.62919  1.0000
  S   S323      1.0  0.45768  0.05246  0.72488  1.0000
  H   H990      1.0  0.58267  0.00391  0.58923  1.0000
  H   H991      1.0  0.52868  0.04864  0.62744  1.0000
  H   H992      1.0  0.51476  0.02438  0.63152  1.0000
  C   C991      1.0  0.45990  0.05088  0.66900  1.0000
  C   C992      1.0  0.44823  0.06400  0.67679  1.0000
  C   C993      1.0  0.44794  0.06436  0.69382  1.0000
  C   C994      1.0  0.45953  0.05182  0.70318  1.0000
  C   C995      1.0  0.47146  0.03876  0.69539  1.0000
  C   C996      1.0  0.47162  0.03828  0.67830  1.0000
  H   H993      1.0  0.43920  0.07382  0.66969  1.0000
  H   H994      1.0  0.43863  0.07444  0.69978  1.0000
  H   H995      1.0  0.48037  0.02892  0.70256  1.0000
  H   H996      1.0  0.48095  0.02834  0.67226  1.0000
  C   C997      1.0  0.41751  0.01960  0.56700  1.0000
  C   C998      1.0  0.37065  0.06847  0.51090  1.0000
  C   C999      1.0  0.52218  0.02590  0.57552  1.0000
  N   N84       1.0  0.65441  0.04492  0.53343  1.0000
  Fe  Fe161     1.0  0.50039  0.99747  0.63110  1.0000
  H   H997      1.0  0.51770  0.03988  0.57130  1.0000
  H   H998      1.0  0.60523  0.01588  0.59325  1.0000
  C   C1000     1.0  0.62617  0.99433  0.58713  1.0000
  H   H999      1.0  0.55430  0.99599  0.59301  1.0000
  H   H1000     1.0  0.54462  0.02777  0.58316  1.0000
  C   C1001     1.0  0.32860  0.00554  0.51939  1.0000
  S   S324      1.0  0.37989  0.99166  0.51093  1.0000
  S   S325      1.0  0.64185  0.00212  0.59153  1.0000
  C   C1002     1.0  0.55697  0.00241  0.62534  1.0000
  N   N85       1.0  0.65376  0.11271  0.72575  1.0000
  C   C1003     1.0  0.65492  0.10556  0.71219  1.0000
  H   H1001     1.0  0.36768  0.08293  0.50725  1.0000
  C   C1004     1.0  0.43637  0.00451  0.69294  1.0000
  S   S326      1.0  0.54223  0.03912  0.72286  1.0000
  H   H1002     1.0  0.56485  0.98961  0.62417  1.0000
  H   H1003     1.0  0.64459  0.08613  0.63975  1.0000
  C   C1005     1.0  0.60888  0.00361  0.58940  1.0000
  Fe  Fe162     1.0  0.46531  0.98867  0.64816  1.0000
  H   H1004     1.0  0.65065  0.03409  0.56083  1.0000
  C   C1006     1.0  0.64020  0.12834  0.72840  1.0000
  H   H1005     1.0  0.57125  0.01049  0.72702  1.0000
  H   H1006     1.0  0.63847  0.07005  0.52600  1.0000
  C   C1007     1.0  0.65445  0.08238  0.57193  1.0000
  H   H1007     1.0  0.63389  0.08156  0.62544  1.0000
  S   S327      1.0  0.50198  0.01815  0.72910  1.0000
  C   C1008     1.0  0.51838  0.99663  0.58066  1.0000
  H   H1008     1.0  0.63989  0.13826  0.71600  1.0000
  H   H1009     1.0  0.65518  0.05270  0.64397  1.0000
  S   S328      1.0  0.52903  0.98807  0.63052  1.0000
  N   N86       1.0  0.43857  0.00704  0.72533  1.0000
  H   H1010     1.0  0.62678  0.02278  0.73303  1.0000
  H   H1011     1.0  0.57645  0.07459  0.73211  1.0000
  S   S329      1.0  0.33988  0.98753  0.54947  1.0000
  H   H1012     1.0  0.62738  0.12476  0.73350  1.0000
  H   H1013     1.0  0.65794  0.05464  0.57553  1.0000
  H   H1014     1.0  0.65772  0.06980  0.53278  1.0000
  C   C1009     1.0  0.60489  0.98776  0.73115  1.0000
  H   H1015     1.0  0.51075  0.98796  0.58023  1.0000
  C   C1010     1.0  0.55294  0.31919  0.96872  1.0000
  Fe  Fe163     1.0  0.49175  0.03507  0.77195  1.0000
  S   S330      1.0  0.51521  0.01450  0.76452  1.0000
  S   S331      1.0  0.49010  0.04055  0.79805  1.0000
  C   C1011     1.0  0.63844  0.25193  0.80891  1.0000
  C   C1012     1.0  0.49008  0.99692  0.81290  1.0000
  Fe  Fe164     1.0  0.49749  0.00313  0.75684  1.0000
  C   C1013     1.0  0.39301  0.47776  0.89320  1.0000
  Fe  Fe165     1.0  0.62316  0.28246  0.85370  1.0000
  S   S332      1.0  0.47364  0.02218  0.76642  1.0000
  H   H1016     1.0  0.57102  0.09967  0.79068  1.0000
  Fe  Fe166     1.0  0.51723  0.03162  0.73787  1.0000
  C   C1014     1.0  0.40847  0.32619  0.91928  1.0000
  H   H1017     1.0  0.51116  0.14142  0.74648  1.0000
  Fe  Fe167     1.0  0.35528  0.38666  0.88334  1.0000
  S   S333      1.0  0.62872  0.28785  0.97038  1.0000
  S   S334      1.0  0.36787  0.35794  0.88625  1.0000
  H   H1018     1.0  0.34500  0.46121  0.86831  1.0000
  H   H1019     1.0  0.40946  0.47093  0.86974  1.0000
  Fe  Fe168     1.0  0.34360  0.41706  0.90113  1.0000
  S   S335      1.0  0.34433  0.42924  0.92188  1.0000
  Fe  Fe169     1.0  0.48728  0.17050  0.98078  1.0000
  S   S336      1.0  0.36617  0.41001  0.87978  1.0000
  Fe  Fe170     1.0  0.60498  0.15075  0.85104  1.0000
  S   S337      1.0  0.59147  0.15559  0.87775  1.0000
  Fe  Fe171     1.0  0.61343  0.18684  0.83825  1.0000
  S   S338      1.0  0.59988  0.19446  0.86340  1.0000
  H   H1020     1.0  0.54952  0.99124  0.79834  1.0000
  Fe  Fe172     1.0  0.61348  0.16778  0.87549  1.0000
  H   H1021     1.0  0.38743  0.43955  0.86636  1.0000
  Fe  Fe173     1.0  0.57960  0.18164  0.86301  1.0000
  S   S339      1.0  0.55136  0.19393  0.86800  1.0000
  S   S340      1.0  0.62828  0.16062  0.85010  1.0000
  S   S341      1.0  0.59165  0.17633  0.83658  1.0000
  H   H1022     1.0  0.61886  0.21874  0.84777  1.0000
  C   C1015     1.0  0.37524  0.46676  0.83066  1.0000
  C   C1016     1.0  0.59397  0.00561  0.77879  1.0000
  Fe  Fe174     1.0  0.51605  0.30041  0.97199  1.0000
  H   H1023     1.0  0.60896  0.35476  0.90435  1.0000
  H   H1024     1.0  0.44511  0.34711  0.98077  1.0000
  C   C1017     1.0  0.58790  0.30889  0.95277  1.0000
  H   H1025     1.0  0.49553  0.24781  0.93523  1.0000
  H   H1026     1.0  0.35635  0.48431  0.87284  1.0000
  Fe  Fe175     1.0  0.58845  0.29827  0.87359  1.0000
  S   S342      1.0  0.56073  0.31029  0.87150  1.0000
  S   S343      1.0  0.60070  0.27110  0.87005  1.0000
  Fe  Fe176     1.0  0.45742  0.29503  0.87737  1.0000
  S   S344      1.0  0.43946  0.27694  0.88389  1.0000
  S   S345      1.0  0.44879  0.32447  0.87035  1.0000
  Fe  Fe177     1.0  0.48777  0.26511  0.88766  1.0000
  S   S346      1.0  0.47180  0.24500  0.89560  1.0000
  S   S347      1.0  0.51523  0.25446  0.89135  1.0000
  Fe  Fe178     1.0  0.46235  0.25890  0.87104  1.0000
  S   S348      1.0  0.46356  0.24475  0.85073  1.0000
  Fe  Fe179     1.0  0.45092  0.26508  0.90758  1.0000
  S   S349      1.0  0.43412  0.26089  0.93428  1.0000
  S   S350      1.0  0.47959  0.27803  0.86234  1.0000
  S   S351      1.0  0.46772  0.28402  0.90182  1.0000
  Fe  Fe180     1.0  0.48793  0.12500  0.82924  1.0000
  S   S352      1.0  0.51507  0.12026  0.83335  1.0000
  S   S353      1.0  0.48211  0.11702  0.80744  1.0000
  Fe  Fe181     1.0  0.47294  0.15076  0.85309  1.0000
  S   S354      1.0  0.49864  0.14833  0.85861  1.0000
  S   S355      1.0  0.45150  0.16901  0.86724  1.0000
  Fe  Fe182     1.0  0.50931  0.14908  0.83050  1.0000
  S   S356      1.0  0.52870  0.16528  0.81597  1.0000
  Fe  Fe183     1.0  0.50208  0.11984  0.86136  1.0000
  S   S357      1.0  0.51466  0.10498  0.88388  1.0000
  S   S358      1.0  0.48322  0.15427  0.82436  1.0000
  S   S359      1.0  0.47529  0.12192  0.85780  1.0000
  N   N87       1.0  0.39163  0.45432  0.88184  1.0000
  S   S360      1.0  0.64105  0.07043  0.74721  1.0000
  S   S361      1.0  0.47088  0.13708  0.94843  1.0000
  S   S362      1.0  0.49425  0.16792  0.95321  1.0000
  C   C1018     1.0  0.50228  0.11306  0.90226  1.0000
  C   C1019     1.0  0.50928  0.10965  0.91695  1.0000
  C   C1020     1.0  0.49977  0.11706  0.93118  1.0000
  C   C1021     1.0  0.48305  0.12749  0.93093  1.0000
  C   C1022     1.0  0.47593  0.13056  0.91640  1.0000
  C   C1023     1.0  0.48558  0.12353  0.90203  1.0000
  H   H1027     1.0  0.52204  0.10127  0.91734  1.0000
  H   H1028     1.0  0.50516  0.11420  0.94253  1.0000
  H   H1029     1.0  0.46296  0.13849  0.91617  1.0000
  H   H1030     1.0  0.47994  0.12605  0.89089  1.0000
  C   C1024     1.0  0.46250  0.22274  0.85704  1.0000
  C   C1025     1.0  0.45248  0.21608  0.87304  1.0000
  C   C1026     1.0  0.44954  0.19925  0.87645  1.0000
  C   C1027     1.0  0.45703  0.18897  0.86408  1.0000
  C   C1028     1.0  0.46799  0.19524  0.84862  1.0000
  C   C1029     1.0  0.47053  0.21218  0.84503  1.0000
  H   H1031     1.0  0.44616  0.22426  0.88229  1.0000
  H   H1032     1.0  0.44107  0.19437  0.88843  1.0000
  H   H1033     1.0  0.47395  0.18733  0.83909  1.0000
  H   H1034     1.0  0.47836  0.21730  0.83267  1.0000
  C   C1030     1.0  0.43914  0.27328  0.94574  1.0000
  C   C1031     1.0  0.45649  0.27251  0.94522  1.0000
  C   C1032     1.0  0.58724  0.23363  0.97590  1.0000
  C   C1033     1.0  0.44760  0.29622  0.96020  1.0000
  C   C1034     1.0  0.43019  0.29662  0.96122  1.0000
  C   C1035     1.0  0.42596  0.28503  0.95416  1.0000
  S   S363      1.0  0.54179  0.30016  0.95290  1.0000
  C   C1036     1.0  0.58691  0.21598  0.91141  1.0000
  H   H1035     1.0  0.64135  0.21263  0.90358  1.0000
  H   H1036     1.0  0.41252  0.28572  0.95454  1.0000
  C   C1037     1.0  0.60265  0.01577  0.73554  1.0000
  C   C1038     1.0  0.65449  0.20456  0.86338  1.0000
  C   C1039     1.0  0.38196  0.47941  0.83345  1.0000
  H   H1037     1.0  0.64275  0.16907  0.92208  1.0000
  C   C1040     1.0  0.54778  0.29499  0.87763  1.0000
  C   C1041     1.0  0.53148  0.29972  0.87326  1.0000
  C   C1042     1.0  0.52127  0.28738  0.87753  1.0000
  C   C1043     1.0  0.52738  0.27032  0.88620  1.0000
  C   C1044     1.0  0.54346  0.26570  0.89094  1.0000
  C   C1045     1.0  0.55368  0.27800  0.88665  1.0000
  H   H1038     1.0  0.52682  0.31290  0.86637  1.0000
  H   H1039     1.0  0.50875  0.29106  0.87397  1.0000
  H   H1040     1.0  0.54781  0.25268  0.89822  1.0000
  H   H1041     1.0  0.56593  0.27443  0.89064  1.0000
  C   C1046     1.0  0.54373  0.19599  0.96323  1.0000
  C   C1047     1.0  0.63329  0.25544  0.82552  1.0000
  S   S364      1.0  0.63659  0.27462  0.82838  1.0000
  C   C1048     1.0  0.56565  0.16434  0.95732  1.0000
  C   C1049     1.0  0.55057  0.17084  0.95067  1.0000
  C   C1050     1.0  0.53957  0.18665  0.95364  1.0000
  C   C1051     1.0  0.39816  0.44380  0.86866  1.0000
  H   H1042     1.0  0.43046  0.30770  0.90862  1.0000
  C   C1052     1.0  0.58305  0.32152  0.96269  1.0000
  H   H1043     1.0  0.54405  0.24931  0.85833  1.0000
  H   H1044     1.0  0.62772  0.20624  0.89373  1.0000
  S   S365      1.0  0.35360  0.44451  0.83904  1.0000
  C   C1053     1.0  0.54377  0.18646  0.85412  1.0000
  C   C1054     1.0  0.54094  0.16957  0.85889  1.0000
  C   C1055     1.0  0.53608  0.16311  0.84726  1.0000
  C   C1056     1.0  0.53421  0.17348  0.83080  1.0000
  C   C1057     1.0  0.53729  0.19028  0.82597  1.0000
  C   C1058     1.0  0.54198  0.19681  0.83766  1.0000
  H   H1045     1.0  0.54270  0.16143  0.87148  1.0000
  H   H1046     1.0  0.53425  0.14993  0.85086  1.0000
  H   H1047     1.0  0.53602  0.19827  0.81320  1.0000
  H   H1048     1.0  0.54450  0.20976  0.83380  1.0000
  H   H1049     1.0  0.42907  0.18997  0.81868  1.0000
  H   H1050     1.0  0.39240  0.48432  0.82374  1.0000
  N   N88       1.0  0.40277  0.33891  0.92860  1.0000
  C   C1059     1.0  0.37846  0.45036  0.89556  1.0000
  H   H1051     1.0  0.64418  0.26108  0.79804  1.0000
  H   H1052     1.0  0.59736  0.28214  0.82843  1.0000
  H   H1053     1.0  0.52767  0.19152  0.94885  1.0000
  C   C1060     1.0  0.61171  0.13736  0.94061  1.0000
  C   C1061     1.0  0.61401  0.14593  0.92291  1.0000
  H   H1054     1.0  0.60308  0.12847  0.94587  1.0000
  H   H1055     1.0  0.60718  0.14363  0.91452  1.0000
  C   C1062     1.0  0.39043  0.34950  0.88054  1.0000
  C   C1063     1.0  0.40259  0.35952  0.87771  1.0000
  C   C1064     1.0  0.42048  0.35182  0.87428  1.0000
  C   C1065     1.0  0.42630  0.33410  0.87372  1.0000
  C   C1066     1.0  0.41409  0.32424  0.87632  1.0000
  C   C1067     1.0  0.39627  0.33190  0.87973  1.0000
  H   H1056     1.0  0.39823  0.37310  0.87833  1.0000
  H   H1057     1.0  0.42986  0.35955  0.87224  1.0000
  H   H1058     1.0  0.41834  0.31073  0.87560  1.0000
  H   H1059     1.0  0.38694  0.32409  0.88182  1.0000
  C   C1068     1.0  0.36196  0.41716  0.93122  1.0000
  C   C1069     1.0  0.36509  0.42201  0.94487  1.0000
  C   C1070     1.0  0.37850  0.41168  0.95317  1.0000
  C   C1071     1.0  0.38873  0.39653  0.94785  1.0000
  C   C1072     1.0  0.38640  0.39239  0.93338  1.0000
  C   C1073     1.0  0.37282  0.40258  0.92521  1.0000
  H   H1060     1.0  0.35683  0.43338  0.94944  1.0000
  H   H1061     1.0  0.38055  0.41519  0.96408  1.0000
  H   H1062     1.0  0.39448  0.38091  0.92901  1.0000
  H   H1063     1.0  0.37042  0.39875  0.91471  1.0000
  N   N89       1.0  0.57739  0.26813  0.83439  1.0000
  H   H1064     1.0  0.63299  0.13570  0.78492  1.0000
  C   C1074     1.0  0.37199  0.46025  0.90828  1.0000
  H   H1065     1.0  0.59042  0.22871  0.82385  1.0000
  C   C1075     1.0  0.37927  0.47410  0.90701  1.0000
  C   C1076     1.0  0.36198  0.46006  0.84321  1.0000
  H   H1066     1.0  0.51919  0.09282  0.81198  1.0000
  S   S366      1.0  0.60362  0.09796  0.74503  1.0000
  C   C1077     1.0  0.54799  0.05021  0.73512  1.0000
  C   C1078     1.0  0.48749  0.06189  0.80066  1.0000
  C   C1079     1.0  0.48951  0.06419  0.81629  1.0000
  C   C1080     1.0  0.48757  0.08100  0.81877  1.0000
  C   C1081     1.0  0.48348  0.09565  0.80565  1.0000
  C   C1082     1.0  0.48114  0.09335  0.79017  1.0000
  C   C1083     1.0  0.48333  0.07655  0.78759  1.0000
  H   H1067     1.0  0.49262  0.05291  0.82652  1.0000
  H   H1068     1.0  0.48926  0.08260  0.83081  1.0000
  H   H1069     1.0  0.47782  0.10463  0.78001  1.0000
  H   H1070     1.0  0.48156  0.07497  0.77558  1.0000
  H   H1071     1.0  0.44079  0.33884  0.93717  1.0000
  S   S367      1.0  0.62791  0.16935  0.89449  1.0000
  C   C1084     1.0  0.56558  0.32650  0.97079  1.0000
  H   H1072     1.0  0.46663  0.26337  0.93879  1.0000
  H   H1073     1.0  0.39948  0.32262  0.91413  1.0000
  H   H1074     1.0  0.64002  0.23417  0.79328  1.0000
  C   C1085     1.0  0.56184  0.26633  0.84543  1.0000
  H   H1075     1.0  0.45448  0.17202  0.93183  1.0000
  H   H1076     1.0  0.57174  0.99384  0.74696  1.0000
  C   C1086     1.0  0.63135  0.15216  0.94481  1.0000
  H   H1077     1.0  0.62259  0.14272  0.81408  1.0000
  C   C1087     1.0  0.46074  0.28388  0.95253  1.0000
  C   C1088     1.0  0.45162  0.19951  0.92965  1.0000
  H   H1078     1.0  0.56984  0.01588  0.74732  1.0000
  H   H1079     1.0  0.45471  0.20266  0.91555  1.0000
  Fe  Fe184     1.0  0.47701  0.30280  0.97750  1.0000
  N   N90       1.0  0.58620  0.34468  0.91002  1.0000
  C   C1089     1.0  0.58822  0.34320  0.89333  1.0000
  C   C1090     1.0  0.38454  0.34835  0.93077  1.0000
  C   C1091     1.0  0.57524  0.33892  0.88837  1.0000
  H   H1080     1.0  0.38041  0.35426  0.94232  1.0000
  C   C1092     1.0  0.60045  0.34773  0.91547  1.0000
  H   H1081     1.0  0.60000  0.34513  0.88379  1.0000
  H   H1082     1.0  0.57697  0.33750  0.87520  1.0000
  H   H1083     1.0  0.42921  0.17821  0.84087  1.0000
  H   H1084     1.0  0.60852  0.33502  0.92098  1.0000
  H   H1085     1.0  0.59548  0.35553  0.92562  1.0000
  C   C1093     1.0  0.41417  0.34347  0.93500  1.0000
  C   C1094     1.0  0.43181  0.33537  0.93190  1.0000
  C   C1095     1.0  0.42599  0.31773  0.91607  1.0000
  C   C1096     1.0  0.43774  0.32250  0.92228  1.0000
  H   H1086     1.0  0.40807  0.43211  0.87296  1.0000
  N   N91       1.0  0.65004  0.21356  0.87626  1.0000
  H   H1087     1.0  0.44739  0.16519  0.96409  1.0000
  N   N92       1.0  0.56240  0.11909  0.88727  1.0000
  C   C1097     1.0  0.57812  0.11578  0.89168  1.0000
  C   C1098     1.0  0.54738  0.12499  0.89829  1.0000
  C   C1099     1.0  0.57904  0.11796  0.90769  1.0000
  C   C1100     1.0  0.54783  0.12726  0.91444  1.0000
  C   C1101     1.0  0.56378  0.12369  0.91913  1.0000
  C   C1102     1.0  0.56174  0.11735  0.87018  1.0000
  H   H1088     1.0  0.59007  0.11156  0.88272  1.0000
  H   H1089     1.0  0.53496  0.12788  0.89464  1.0000
  H   H1090     1.0  0.59153  0.11541  0.91111  1.0000
  H   H1091     1.0  0.53594  0.13180  0.92328  1.0000
  H   H1092     1.0  0.56431  0.12551  0.93158  1.0000
  H   H1093     1.0  0.57249  0.10669  0.86584  1.0000
  H   H1094     1.0  0.54935  0.11413  0.87056  1.0000
  H   H1095     1.0  0.56311  0.12971  0.86050  1.0000
  C   C1103     1.0  0.62958  0.99116  0.77148  1.0000
  Fe  Fe185     1.0  0.65520  0.28865  0.95401  1.0000
  H   H1096     1.0  0.44151  0.24432  0.82038  1.0000
  H   H1097     1.0  0.42250  0.24860  0.84872  1.0000
  H   H1098     1.0  0.54056  0.28992  0.92029  1.0000
  H   H1099     1.0  0.58932  0.11996  0.77130  1.0000
  C   C1104     1.0  0.62602  0.24346  0.83950  1.0000
  C   C1105     1.0  0.62514  0.15748  0.91619  1.0000
  H   H1100     1.0  0.58020  0.01127  0.78167  1.0000
  C   C1106     1.0  0.64523  0.33610  0.87638  1.0000
  H   H1101     1.0  0.57590  0.23541  0.89108  1.0000
  H   H1102     1.0  0.59305  0.22482  0.91399  1.0000
  H   H1103     1.0  0.51886  0.14725  0.77130  1.0000
  H   H1104     1.0  0.47417  0.28359  0.95157  1.0000
  C   C1107     1.0  0.51473  0.11378  0.75717  1.0000
  S   S368      1.0  0.33789  0.40010  0.86413  1.0000
  C   C1108     1.0  0.35529  0.46627  0.85856  1.0000
  C   C1109     1.0  0.56675  0.23703  0.84177  1.0000
  H   H1105     1.0  0.52821  0.04412  0.75787  1.0000
  H   H1106     1.0  0.58304  0.17435  0.92431  1.0000
  H   H1107     1.0  0.40875  0.22470  0.86843  1.0000
  C   C1110     1.0  0.64136  0.20578  0.89369  1.0000
  N   N93       1.0  0.50481  0.19671  0.88082  1.0000
  C   C1111     1.0  0.49717  0.18410  0.88034  1.0000
  C   C1112     1.0  0.51217  0.19486  0.89450  1.0000
  C   C1113     1.0  0.49686  0.16910  0.89372  1.0000
  C   C1114     1.0  0.51245  0.17985  0.90790  1.0000
  C   C1115     1.0  0.50461  0.16695  0.90755  1.0000
  C   C1116     1.0  0.50439  0.21262  0.86700  1.0000
  H   H1108     1.0  0.49140  0.18551  0.86951  1.0000
  H   H1109     1.0  0.51822  0.20487  0.89489  1.0000
  H   H1110     1.0  0.49067  0.15921  0.89331  1.0000
  H   H1111     1.0  0.51873  0.17826  0.91848  1.0000
  H   H1112     1.0  0.50447  0.15535  0.91798  1.0000
  H   H1113     1.0  0.51564  0.21837  0.86530  1.0000
  H   H1114     1.0  0.50503  0.20987  0.85429  1.0000
  H   H1115     1.0  0.49224  0.22242  0.87016  1.0000
  N   N94       1.0  0.43076  0.20500  0.83518  1.0000
  C   C1117     1.0  0.42012  0.20730  0.85082  1.0000
  C   C1118     1.0  0.43809  0.21820  0.82413  1.0000
  C   C1119     1.0  0.41674  0.22310  0.85581  1.0000
  C   C1120     1.0  0.43507  0.23412  0.82877  1.0000
  C   C1121     1.0  0.42436  0.23654  0.84473  1.0000
  H   H1116     1.0  0.41471  0.19668  0.85981  1.0000
  H   H1117     1.0  0.44678  0.21626  0.81189  1.0000
  H   H1118     1.0  0.54123  0.08693  0.79979  1.0000
  S   S369      1.0  0.64980  0.31782  0.94729  1.0000
  H   H1119     1.0  0.56440  0.18482  0.90278  1.0000
  C   C1122     1.0  0.58189  0.12231  0.78387  1.0000
  C   C1123     1.0  0.53885  0.05053  0.75219  1.0000
  H   H1120     1.0  0.55355  0.27702  0.85114  1.0000
  C   C1124     1.0  0.43458  0.18831  0.83013  1.0000
  H   H1121     1.0  0.40971  0.35335  0.94262  1.0000
  H   H1122     1.0  0.61190  0.19582  0.92927  1.0000
  H   H1123     1.0  0.53677  0.05863  0.77555  1.0000
  C   C1125     1.0  0.36162  0.47945  0.86107  1.0000
  H   H1124     1.0  0.40395  0.45145  0.85593  1.0000
  C   C1126     1.0  0.62023  0.14067  0.95162  1.0000
  H   H1125     1.0  0.48138  0.98800  0.82058  1.0000
  H   H1126     1.0  0.37272  0.43965  0.89657  1.0000
  C   C1127     1.0  0.43941  0.22276  0.96594  1.0000
  C   C1128     1.0  0.54356  0.05901  0.76219  1.0000
  C   C1129     1.0  0.57703  0.22211  0.89860  1.0000
  C   C1130     1.0  0.56621  0.06756  0.73788  1.0000
  C   C1131     1.0  0.63613  0.23667  0.80622  1.0000
  Fe  Fe186     1.0  0.61289  0.26855  0.89211  1.0000
  H   H1127     1.0  0.51936  0.29955  0.93149  1.0000
  H   H1128     1.0  0.44884  0.18315  0.82698  1.0000
  C   C1132     1.0  0.62244  0.11276  0.79239  1.0000
  C   C1133     1.0  0.57072  0.19369  0.90506  1.0000
  H   H1129     1.0  0.64901  0.23725  0.88288  1.0000
  C   C1134     1.0  0.61320  0.10208  0.80606  1.0000
  H   H1130     1.0  0.55026  0.33221  0.89705  1.0000
  H   H1131     1.0  0.54241  0.26664  0.94692  1.0000
  S   S370      1.0  0.59851  0.29475  0.89735  1.0000
  H   H1132     1.0  0.52466  0.07708  0.79896  1.0000
  H   H1133     1.0  0.45136  0.31601  0.91990  1.0000
  S   S371      1.0  0.63662  0.27772  0.87552  1.0000
  C   C1135     1.0  0.44769  0.21259  0.93889  1.0000
  C   C1136     1.0  0.39911  0.46764  0.88070  1.0000
  H   H1134     1.0  0.44583  0.01958  0.74090  1.0000
  S   S372      1.0  0.40205  0.38150  0.96118  1.0000
  C   C1137     1.0  0.62398  0.22803  0.83685  1.0000
  Fe  Fe187     1.0  0.34693  0.42403  0.86282  1.0000
  C   C1138     1.0  0.55635  0.25071  0.84943  1.0000
  C   C1139     1.0  0.51470  0.13079  0.75715  1.0000
  H   H1135     1.0  0.50250  0.27619  0.91925  1.0000
  S   S373      1.0  0.54435  0.15833  0.94040  1.0000
  C   C1140     1.0  0.62369  0.00865  0.77274  1.0000
  S   S374      1.0  0.60236  0.12579  0.84625  1.0000
  C   C1141     1.0  0.60186  0.24000  0.97388  1.0000
  C   C1142     1.0  0.56385  0.12828  0.81630  1.0000
  H   H1136     1.0  0.58902  0.15646  0.80639  1.0000
  H   H1137     1.0  0.57309  0.15167  0.82566  1.0000
  H   H1138     1.0  0.60129  0.30520  0.94620  1.0000
  N   N95       1.0  0.57434  0.13909  0.80567  1.0000
  Fe  Fe188     1.0  0.62574  0.05019  0.76230  1.0000
  H   H1139     1.0  0.38268  0.35885  0.91897  1.0000
  H   H1140     1.0  0.55650  0.13074  0.82887  1.0000
  C   C1143     1.0  0.62886  0.22466  0.82016  1.0000
  H   H1141     1.0  0.56973  0.34339  0.93519  1.0000
  H   H1142     1.0  0.54670  0.33511  0.92732  1.0000
  C   C1144     1.0  0.61991  0.13142  0.81190  1.0000
  C   C1145     1.0  0.57572  0.15402  0.81125  1.0000
  C   C1146     1.0  0.44739  0.17852  0.95689  1.0000
  H   H1143     1.0  0.57400  0.15192  0.95537  1.0000
  C   C1147     1.0  0.58299  0.28454  0.83039  1.0000
  C   C1148     1.0  0.63788  0.27129  0.93218  1.0000
  H   H1144     1.0  0.56632  0.16586  0.80625  1.0000
  C   C1149     1.0  0.55717  0.06764  0.75505  1.0000
  S   S375      1.0  0.61661  0.13105  0.97397  1.0000
  C   C1150     1.0  0.61058  0.12080  0.82553  1.0000
  S   S376      1.0  0.51331  0.12672  0.96763  1.0000
  H   H1145     1.0  0.61059  0.09074  0.80391  1.0000
  C   C1151     1.0  0.52729  0.08942  0.79963  1.0000
  H   H1146     1.0  0.51852  0.08720  0.77129  1.0000
  H   H1147     1.0  0.63438  0.28424  0.93464  1.0000
  C   C1152     1.0  0.62582  0.12739  0.79540  1.0000
  C   C1153     1.0  0.50991  0.26787  0.92882  1.0000
  C   C1154     1.0  0.51897  0.10028  0.77120  1.0000
  C   C1155     1.0  0.60003  0.25493  0.97983  1.0000
  H   H1148     1.0  0.57892  0.29277  0.94198  1.0000
  C   C1156     1.0  0.56023  0.33595  0.90064  1.0000
  C   C1157     1.0  0.56253  0.11391  0.81114  1.0000
  H   H1149     1.0  0.55457  0.10512  0.81980  1.0000
  H   H1150     1.0  0.60120  0.02927  0.77756  1.0000
  N   N96       1.0  0.52311  0.10360  0.78482  1.0000
  H   H1151     1.0  0.44777  0.22590  0.93178  1.0000
  C   C1158     1.0  0.63075  0.24905  0.92294  1.0000
  C   C1159     1.0  0.58306  0.13644  0.78952  1.0000
  H   H1152     1.0  0.59140  0.14496  0.78109  1.0000
  N   N97       1.0  0.44376  0.20869  0.95668  1.0000
  C   C1160     1.0  0.60586  0.01584  0.77642  1.0000
  C   C1161     1.0  0.57168  0.11090  0.79482  1.0000
  C   C1162     1.0  0.58117  0.18787  0.91737  1.0000
  C   C1163     1.0  0.60729  0.10611  0.82257  1.0000
  C   C1164     1.0  0.52338  0.12020  0.78476  1.0000
  S   S377      1.0  0.56314  0.20075  0.98299  1.0000
  C   C1165     1.0  0.62606  0.26537  0.92712  1.0000
  S   S378      1.0  0.60819  0.05727  0.74367  1.0000
  H   H1153     1.0  0.62258  0.24570  0.85247  1.0000
  H   H1154     1.0  0.60016  0.09779  0.83307  1.0000
  H   H1155     1.0  0.61343  0.27369  0.92605  1.0000
  H   H1156     1.0  0.53478  0.23870  0.96420  1.0000
  C   C1166     1.0  0.57520  0.30192  0.95033  1.0000
  N   N98       1.0  0.45208  0.37001  0.98103  1.0000
  H   H1157     1.0  0.58137  0.16848  0.97208  1.0000
  H   H1158     1.0  0.38047  0.46201  0.81881  1.0000
  H   H1159     1.0  0.51126  0.11101  0.74656  1.0000
  S   S379      1.0  0.62924  0.10886  0.77118  1.0000
  C   C1167     1.0  0.53230  0.26240  0.94411  1.0000
  C   C1168     1.0  0.52807  0.24660  0.95390  1.0000
  Fe  Fe189     1.0  0.47924  0.03810  0.73908  1.0000
  C   C1169     1.0  0.52647  0.29019  0.92308  1.0000
  C   C1170     1.0  0.55863  0.18941  0.97016  1.0000
  N   N99       1.0  0.58879  0.19909  0.92066  1.0000
  S   S380      1.0  0.61757  0.24397  0.91243  1.0000
  N   N100      1.0  0.52313  0.27287  0.93186  1.0000
  S   S381      1.0  0.60785  0.06683  0.78052  1.0000
  Fe  Fe190     1.0  0.59155  0.07560  0.76039  1.0000
  C   C1171     1.0  0.44356  0.19191  0.96571  1.0000
  Fe  Fe191     1.0  0.62445  0.31656  0.96640  1.0000
  H   H1160     1.0  0.41999  0.30618  0.96711  1.0000
  C   C1172     1.0  0.51466  0.24139  0.95076  1.0000
  S   S382      1.0  0.56282  0.07834  0.76773  1.0000
  C   C1173     1.0  0.58230  0.23920  0.83006  1.0000
  C   C1174     1.0  0.57135  0.34215  0.92201  1.0000
  H   H1161     1.0  0.51098  0.22935  0.95837  1.0000
  C   C1175     1.0  0.45144  0.18237  0.93876  1.0000
  H   H1162     1.0  0.53518  0.20804  0.96572  1.0000
  S   S383      1.0  0.61000  0.31022  0.85536  1.0000
  Fe  Fe192     1.0  0.52000  0.15283  0.95887  1.0000
  H   H1163     1.0  0.56057  0.21560  0.88604  1.0000
  H   H1164     1.0  0.64883  0.32855  0.85232  1.0000
  H   H1165     1.0  0.57730  0.29150  0.84122  1.0000
  S   S384      1.0  0.49489  0.05299  0.74554  1.0000
  Fe  Fe193     1.0  0.62145  0.30442  0.87890  1.0000
  Fe  Fe194     1.0  0.62153  0.08791  0.76375  1.0000
  C   C1176     1.0  0.55821  0.33763  0.91757  1.0000
  C   C1177     1.0  0.50573  0.25191  0.93796  1.0000
  C   C1178     1.0  0.58738  0.25498  0.82639  1.0000
  C   C1179     1.0  0.56858  0.21097  0.89569  1.0000
  S   S385      1.0  0.63134  0.32207  0.88901  1.0000
  C   C1180     1.0  0.59983  0.98826  0.77712  1.0000
  C   C1181     1.0  0.63397  0.16034  0.92714  1.0000
  S   S386      1.0  0.63860  0.02178  0.76865  1.0000
  H   H1166     1.0  0.59944  0.25661  0.81718  1.0000
  H   H1167     1.0  0.56270  0.22483  0.84473  1.0000
  H   H1168     1.0  0.57893  0.29320  0.81841  1.0000
  S   S387      1.0  0.62567  0.20597  0.81604  1.0000
  C   C1182     1.0  0.55767  0.30722  0.95811  1.0000
  S   S388      1.0  0.45274  0.31234  0.96690  1.0000
  C   C1183     1.0  0.52159  0.99444  0.80560  1.0000
  C   C1184     1.0  0.45001  0.35833  0.97147  1.0000
  H   H1169     1.0  0.59996  0.17920  0.94036  1.0000
  H   H1170     1.0  0.52651  0.12287  0.79559  1.0000
  H   H1171     1.0  0.52217  0.29507  0.91053  1.0000
  S   S389      1.0  0.33444  0.39258  0.90652  1.0000
  S   S390      1.0  0.50066  0.28288  0.96963  1.0000
  H   H1172     1.0  0.51939  0.00731  0.80807  1.0000
  H   H1173     1.0  0.37588  0.33947  0.93257  1.0000
  H   H1174     1.0  0.43793  0.21776  0.98023  1.0000
  H   H1175     1.0  0.36136  0.45722  0.91900  1.0000
  Fe  Fe195     1.0  0.48677  0.14218  0.96394  1.0000
  C   C1185     1.0  0.59862  0.19336  0.93448  1.0000
  C   C1186     1.0  0.56970  0.17365  0.96702  1.0000
  H   H1176     1.0  0.44064  0.36514  0.96283  1.0000
  H   H1177     1.0  0.64454  0.34619  0.89821  1.0000
  H   H1178     1.0  0.59184  0.20045  0.94503  1.0000
  C   C1187     1.0  0.51908  0.13406  0.77101  1.0000
  C   C1188     1.0  0.65224  0.33658  0.85873  1.0000
  H   H1179     1.0  0.63813  0.15459  0.95318  1.0000
  H   H1180     1.0  0.53944  0.32340  0.97471  1.0000
  H   H1181     1.0  0.58855  0.22190  0.97159  1.0000
  H   H1182     1.0  0.61460  0.23328  0.96795  1.0000
  S   S391      1.0  0.61134  0.17930  0.97534  1.0000
  S   S392      1.0  0.59803  0.33301  0.96299  1.0000
  H   H1183     1.0  0.44861  0.99652  0.74852  1.0000
  H   H1184     1.0  0.64815  0.19198  0.89767  1.0000
  H   H1185     1.0  0.42709  0.38667  0.97963  1.0000
  H   H1186     1.0  0.44992  0.23007  0.96159  1.0000
  H   H1187     1.0  0.44068  0.18873  0.97981  1.0000
  C   C1189     1.0  0.64710  0.23830  0.92451  1.0000
  C   C1190     1.0  0.57602  0.00597  0.73930  1.0000
  H   H1188     1.0  0.56175  0.33635  0.97837  1.0000
  H   H1189     1.0  0.42696  0.01037  0.75100  1.0000
  C   C1191     1.0  0.64980  0.34659  0.88452  1.0000
  S   S393      1.0  0.49236  0.32179  0.97667  1.0000
  H   H1190     1.0  0.48957  0.00587  0.82109  1.0000
  H   H1191     1.0  0.48502  0.00490  0.80120  1.0000
  C   C1192     1.0  0.44000  0.00841  0.74230  1.0000
  H   H1192     1.0  0.65086  0.22572  0.92122  1.0000
  H   H1193     1.0  0.64230  0.13435  0.73801  1.0000
  H   H1194     1.0  0.65138  0.23024  0.96985  1.0000
  C   C1193     1.0  0.65447  0.26091  0.93299  1.0000
  H   H1195     1.0  0.46256  0.35320  0.96318  1.0000
  H   H1196     1.0  0.42709  0.23193  0.96331  1.0000
  N   N101      1.0  0.59498  0.00304  0.73544  1.0000
  H   H1197     1.0  0.37422  0.48203  0.91666  1.0000
  H   H1198     1.0  0.65158  0.19181  0.86608  1.0000
  H   H1199     1.0  0.59479  0.02794  0.73881  1.0000
  C   C1194     1.0  0.37506  0.48595  0.84851  1.0000
  C   C1195     1.0  0.65302  0.22991  0.87277  1.0000
  C   C1196     1.0  0.64484  0.23071  0.98315  1.0000
  H   H1200     1.0  0.64957  0.25567  0.98099  1.0000
  H   H1201     1.0  0.61151  0.25955  0.97854  1.0000
  S   S394      1.0  0.32527  0.43266  0.88395  1.0000
  C   C1197     1.0  0.57098  0.24226  0.98373  1.0000
  Fe  Fe196     1.0  0.45912  0.77962  0.01052  1.0000
  H   H1202     1.0  0.55392  0.84282  0.05176  1.0000
  C   C1198     1.0  0.62581  0.73714  0.00185  1.0000
  Fe  Fe197     1.0  0.47511  0.78120  0.03949  1.0000
  S   S395      1.0  0.50206  0.77106  0.02537  1.0000
  S   S396      1.0  0.47250  0.78477  0.06661  1.0000
  H   H1203     1.0  0.53584  0.58988  0.02876  1.0000
  C   C1199     1.0  0.49932  0.68028  0.05857  1.0000
  Fe  Fe198     1.0  0.49054  0.75235  0.01937  1.0000
  S   S397      1.0  0.50381  0.72425  0.02040  1.0000
  S   S398      1.0  0.46727  0.80109  0.01613  1.0000
  S   S399      1.0  0.46416  0.76074  0.03541  1.0000
  Fe  Fe199     1.0  0.56641  0.82539  0.02143  1.0000
  S   S400      1.0  0.57617  0.80816  0.04486  1.0000
  S   S401      1.0  0.53881  0.84039  0.02437  1.0000
  S   S402      1.0  0.58589  0.71527  0.98783  1.0000
  S   S403      1.0  0.61272  0.79651  0.01789  1.0000
  Fe  Fe200     1.0  0.58749  0.78806  0.02868  1.0000
  S   S404      1.0  0.58585  0.75985  0.03942  1.0000
  Fe  Fe201     1.0  0.60032  0.81834  0.03213  1.0000
  S   S405      1.0  0.61354  0.82481  0.04967  1.0000
  S   S406      1.0  0.57523  0.80438  0.00655  1.0000
  S   S407      1.0  0.58977  0.83688  0.00948  1.0000
  H   H1204     1.0  0.56747  0.62242  0.99160  1.0000
  S   S408      1.0  0.59537  0.63574  0.00167  1.0000
  C   C1200     1.0  0.63552  0.87745  0.19528  1.0000
  H   H1205     1.0  0.65077  0.98257  0.19851  1.0000
  S   S409      1.0  0.56678  0.67368  0.00228  1.0000
  H   H1206     1.0  0.64916  0.91103  0.14397  1.0000
  Fe  Fe202     1.0  0.58102  0.65264  0.02069  1.0000
  S   S410      1.0  0.56582  0.64079  0.04640  1.0000
  H   H1207     1.0  0.47080  0.73717  0.01014  1.0000
  S   S411      1.0  0.60286  0.66607  0.01647  1.0000
  H   H1208     1.0  0.49308  0.95169  0.13501  1.0000
  Fe  Fe203     1.0  0.46170  0.65704  0.01104  1.0000
  S   S412      1.0  0.45651  0.63932  0.03738  1.0000
  C   C1201     1.0  0.47404  0.96358  0.10437  1.0000
  H   H1209     1.0  0.47946  0.97481  0.15166  1.0000
  S   S413      1.0  0.47429  0.60688  0.01791  1.0000
  S   S414      1.0  0.59774  0.96214  0.09933  1.0000
  Fe  Fe204     1.0  0.44772  0.62380  0.02404  1.0000
  S   S415      1.0  0.42483  0.61104  0.03670  1.0000
  Fe  Fe205     1.0  0.48344  0.62414  0.02866  1.0000
  S   S416      1.0  0.50169  0.61212  0.04705  1.0000
  H   H1210     1.0  0.56168  0.90688  0.20357  1.0000
  S   S417      1.0  0.48924  0.64280  0.00318  1.0000
  H   H1211     1.0  0.43459  0.82489  0.07186  1.0000
  H   H1212     1.0  0.52514  0.88712  0.07342  1.0000
  H   H1213     1.0  0.43677  0.80364  0.08563  1.0000
  C   C1202     1.0  0.53034  0.61404  0.98885  1.0000
  S   S418      1.0  0.54693  0.90829  0.14999  1.0000
  H   H1214     1.0  0.54006  0.75130  0.04261  1.0000
  S   S419      1.0  0.63412  0.95532  0.22348  1.0000
  Fe  Fe206     1.0  0.47221  0.86234  0.10430  1.0000
  S   S420      1.0  0.48957  0.88006  0.10215  1.0000
  S   S421      1.0  0.46802  0.85861  0.07955  1.0000
  Fe  Fe207     1.0  0.46303  0.85539  0.14381  1.0000
  S   S422      1.0  0.47967  0.87205  0.14501  1.0000
  Fe  Fe208     1.0  0.46868  0.89091  0.12298  1.0000
  S   S423      1.0  0.45821  0.91854  0.12610  1.0000
  Fe  Fe209     1.0  0.49890  0.85977  0.12436  1.0000
  S   S424      1.0  0.52656  0.85102  0.12699  1.0000
  S   S425      1.0  0.45035  0.87511  0.12325  1.0000
  S   S426      1.0  0.48334  0.84110  0.12499  1.0000
  H   H1215     1.0  0.55765  0.90828  0.18278  1.0000
  H   H1216     1.0  0.45525  0.87008  0.17641  1.0000
  C   C1203     1.0  0.47003  0.93389  0.11264  1.0000
  C   C1204     1.0  0.48526  0.92899  0.10070  1.0000
  C   C1205     1.0  0.49470  0.94146  0.09036  1.0000
  C   C1206     1.0  0.48910  0.95873  0.09223  1.0000
  H   H1217     1.0  0.56106  0.97881  0.11250  1.0000
  C   C1207     1.0  0.46440  0.95120  0.11441  1.0000
  H   H1218     1.0  0.48974  0.91566  0.09936  1.0000
  H   H1219     1.0  0.50639  0.93768  0.08099  1.0000
  C   C1208     1.0  0.54432  0.96150  0.12747  1.0000
  H   H1220     1.0  0.45264  0.95500  0.12370  1.0000
  C   C1209     1.0  0.59919  0.86310  0.20264  1.0000
  Fe  Fe210     1.0  0.37599  0.56086  0.00334  1.0000
  H   H1221     1.0  0.53257  0.74177  0.00720  1.0000
  C   C1210     1.0  0.56197  0.84571  0.07356  1.0000
  C   C1211     1.0  0.54054  0.89216  0.14471  1.0000
  C   C1212     1.0  0.52526  0.89617  0.13860  1.0000
  C   C1213     1.0  0.52102  0.88361  0.13292  1.0000
  C   C1214     1.0  0.53192  0.86696  0.13363  1.0000
  C   C1215     1.0  0.54701  0.86288  0.14005  1.0000
  C   C1216     1.0  0.55134  0.87548  0.14554  1.0000
  H   H1222     1.0  0.51703  0.90913  0.13769  1.0000
  H   H1223     1.0  0.50952  0.88698  0.12763  1.0000
  H   H1224     1.0  0.55537  0.84998  0.14079  1.0000
  H   H1225     1.0  0.56306  0.87224  0.15043  1.0000
  C   C1217     1.0  0.53553  0.87551  0.07328  1.0000
  C   C1218     1.0  0.60019  0.97377  0.11327  1.0000
  H   H1226     1.0  0.57241  0.83412  0.07343  1.0000
  S   S427      1.0  0.59109  0.88587  0.12424  1.0000
  H   H1227     1.0  0.41543  0.81790  0.08584  1.0000
  C   C1219     1.0  0.41528  0.60362  0.02409  1.0000
  C   C1220     1.0  0.40222  0.59426  0.03239  1.0000
  C   C1221     1.0  0.39568  0.58663  0.02287  1.0000
  C   C1222     1.0  0.40209  0.58849  0.00496  1.0000
  C   C1223     1.0  0.41457  0.59849  0.99658  1.0000
  C   C1224     1.0  0.42119  0.60599  0.00609  1.0000
  H   H1228     1.0  0.39748  0.59249  0.04631  1.0000
  H   H1229     1.0  0.45123  0.72212  0.00502  1.0000
  C   C1225     1.0  0.46354  0.93195  0.16612  1.0000
  C   C1226     1.0  0.62760  0.75387  0.00069  1.0000
  C   C1227     1.0  0.53688  0.79309  0.04394  1.0000
  C   C1228     1.0  0.64689  0.95396  0.12469  1.0000
  S   S428      1.0  0.34239  0.53182  0.01358  1.0000
  H   H1230     1.0  0.45872  0.92010  0.17002  1.0000
  H   H1231     1.0  0.57450  0.88749  0.16590  1.0000
  H   H1232     1.0  0.54890  0.89315  0.20161  1.0000
  C   C1229     1.0  0.49228  0.83900  0.20579  1.0000
  H   H1233     1.0  0.57598  0.59027  0.01932  1.0000
  C   C1230     1.0  0.57011  0.85042  0.09824  1.0000
  Fe  Fe211     1.0  0.59587  0.93398  0.10944  1.0000
  C   C1231     1.0  0.58133  0.88067  0.17630  1.0000
  C   C1232     1.0  0.63440  0.88049  0.16049  1.0000
  C   C1233     1.0  0.47489  0.72336  0.01056  1.0000
  C   C1234     1.0  0.54746  0.63396  0.04606  1.0000
  C   C1235     1.0  0.54121  0.62166  0.06034  1.0000
  C   C1236     1.0  0.52712  0.61525  0.06040  1.0000
  C   C1237     1.0  0.51881  0.62138  0.04636  1.0000
  C   C1238     1.0  0.52467  0.63410  0.03217  1.0000
  C   C1239     1.0  0.53915  0.64023  0.03192  1.0000
  H   H1234     1.0  0.54752  0.61677  0.07130  1.0000
  H   H1235     1.0  0.52266  0.60544  0.07141  1.0000
  H   H1236     1.0  0.51834  0.63891  0.02125  1.0000
  H   H1237     1.0  0.54384  0.64978  0.02083  1.0000
  C   C1240     1.0  0.48399  0.69276  0.05632  1.0000
  C   C1241     1.0  0.58461  0.74774  0.02533  1.0000
  C   C1242     1.0  0.58559  0.72976  0.03131  1.0000
  C   C1243     1.0  0.58551  0.71965  0.02007  1.0000
  C   C1244     1.0  0.58422  0.72756  0.00286  1.0000
  C   C1245     1.0  0.58263  0.74562  0.99704  1.0000
  C   C1246     1.0  0.58298  0.75565  0.00818  1.0000
  C   C1247     1.0  0.58939  0.87466  0.05376  1.0000
  H   H1238     1.0  0.58676  0.70571  0.02466  1.0000
  H   H1239     1.0  0.56881  0.98601  0.08239  1.0000
  H   H1240     1.0  0.58239  0.76940  0.00336  1.0000
  C   C1248     1.0  0.47282  0.80514  0.06953  1.0000
  C   C1249     1.0  0.47142  0.82007  0.05612  1.0000
  C   C1250     1.0  0.47032  0.83636  0.05929  1.0000
  C   C1251     1.0  0.47098  0.83777  0.07575  1.0000
  C   C1252     1.0  0.47296  0.82274  0.08900  1.0000
  C   C1253     1.0  0.47370  0.80650  0.08594  1.0000
  H   H1241     1.0  0.47075  0.81918  0.04343  1.0000
  H   H1242     1.0  0.46886  0.84795  0.04896  1.0000
  H   H1243     1.0  0.47336  0.82372  0.10175  1.0000
  H   H1244     1.0  0.47470  0.79500  0.09640  1.0000
  C   C1254     1.0  0.49093  0.71396  0.01452  1.0000
  C   C1255     1.0  0.49608  0.69607  0.01497  1.0000
  C   C1256     1.0  0.48482  0.68745  0.01231  1.0000
  H   H1245     1.0  0.52142  0.86970  0.17543  1.0000
  C   C1257     1.0  0.48562  0.65815  0.05792  1.0000
  C   C1258     1.0  0.49116  0.82836  0.18100  1.0000
  H   H1246     1.0  0.50850  0.68874  0.01799  1.0000
  H   H1247     1.0  0.48860  0.67355  0.01337  1.0000
  S   S429      1.0  0.45041  0.64311  0.99844  1.0000
  H   H1248     1.0  0.62307  0.83679  0.07467  1.0000
  C   C1259     1.0  0.55597  0.97855  0.23130  1.0000
  C   C1260     1.0  0.50797  0.82016  0.00876  1.0000
  C   C1261     1.0  0.51369  0.82883  0.01783  1.0000
  C   C1262     1.0  0.52968  0.83359  0.01120  1.0000
  H   H1249     1.0  0.51087  0.85088  0.16366  1.0000
  H   H1250     1.0  0.63333  0.60949  0.00695  1.0000
  H   H1251     1.0  0.49592  0.81597  0.01428  1.0000
  H   H1252     1.0  0.50603  0.83126  0.03025  1.0000
  Fe  Fe212     1.0  0.61157  0.89771  0.12679  1.0000
  H   H1253     1.0  0.61456  0.90380  0.16335  1.0000
  H   H1254     1.0  0.51062  0.68413  0.05937  1.0000
  H   H1255     1.0  0.60049  0.86388  0.16068  1.0000
  C   C1263     1.0  0.46378  0.71481  0.00765  1.0000
  H   H1256     1.0  0.51187  0.65308  0.06122  1.0000
  S   S430      1.0  0.61586  0.91238  0.09878  1.0000
  C   C1264     1.0  0.62416  0.89160  0.18697  1.0000
  H   H1257     1.0  0.38600  0.57901  0.02945  1.0000
  C   C1265     1.0  0.53967  0.76403  0.98810  1.0000
  C   C1266     1.0  0.53976  0.96040  0.09557  1.0000
  C   C1267     1.0  0.54630  0.87044  0.08526  1.0000
  N   N102      1.0  0.52414  0.79431  0.05859  1.0000
  H   H1258     1.0  0.60641  0.85669  0.21287  1.0000
  C   C1268     1.0  0.51815  0.81061  0.06468  1.0000
  H   H1259     1.0  0.54273  0.80401  0.03687  1.0000
  H   H1260     1.0  0.52826  0.81842  0.06009  1.0000
  H   H1261     1.0  0.50647  0.81861  0.05967  1.0000
  H   H1262     1.0  0.51485  0.80801  0.07911  1.0000
  C   C1269     1.0  0.47506  0.96270  0.15588  1.0000
  C   C1270     1.0  0.56499  0.60100  0.02297  1.0000
  H   H1263     1.0  0.51340  0.86856  0.20722  1.0000
  H   H1264     1.0  0.47364  0.98713  0.05576  1.0000
  H   H1265     1.0  0.58057  0.88052  0.21747  1.0000
  C   C1271     1.0  0.64603  0.86672  0.16870  1.0000
  H   H1266     1.0  0.62831  0.75752  0.01217  1.0000
  H   H1267     1.0  0.43434  0.84311  0.13575  1.0000
  C   C1272     1.0  0.65586  0.61900  0.99133  1.0000
  H   H1268     1.0  0.65455  0.85703  0.16173  1.0000
  C   C1273     1.0  0.56030  0.89908  0.19513  1.0000
  H   H1269     1.0  0.48291  0.92398  0.14448  1.0000
  C   C1274     1.0  0.45389  0.70119  0.05247  1.0000
  H   H1270     1.0  0.40913  0.74662  0.99651  1.0000
  H   H1271     1.0  0.53464  0.77275  0.99699  1.0000
  N   N103      1.0  0.46996  0.68805  0.05457  1.0000
  H   H1272     1.0  0.45708  0.57678  0.02156  1.0000
  Fe  Fe213     1.0  0.47758  0.62701  0.99313  1.0000
  S   S431      1.0  0.43455  0.78447  0.00116  1.0000
  H   H1273     1.0  0.58985  0.85745  0.03789  1.0000
  H   H1274     1.0  0.46967  0.97690  0.10589  1.0000
  S   S432      1.0  0.63572  0.87388  0.21745  1.0000
  C   C1275     1.0  0.53824  0.86548  0.06119  1.0000
  H   H1275     1.0  0.52721  0.94375  0.13879  1.0000
  C   C1276     1.0  0.59588  0.86717  0.17334  1.0000
  S   S433      1.0  0.48476  0.76968  0.99426  1.0000
  C   C1277     1.0  0.44811  0.85148  0.21974  1.0000
  C   C1278     1.0  0.44279  0.83384  0.20324  1.0000
  H   H1276     1.0  0.46396  0.97792  0.18361  1.0000
  H   H1277     1.0  0.64211  0.98498  0.22933  1.0000
  C   C1279     1.0  0.62351  0.89305  0.16960  1.0000
  H   H1278     1.0  0.62222  0.71998  0.98828  1.0000
  H   H1279     1.0  0.33916  0.51092  0.05907  1.0000
  S   S434      1.0  0.59308  0.91998  0.13745  1.0000
  C   C1280     1.0  0.49814  0.84939  0.21284  1.0000
  Fe  Fe214     1.0  0.58950  0.68593  0.99627  1.0000
  S   S435      1.0  0.58766  0.89652  0.07426  1.0000
  H   H1280     1.0  0.45945  0.66724  0.05412  1.0000
  H   H1281     1.0  0.50236  0.81806  0.17676  1.0000
  N   N104      1.0  0.44166  0.56289  0.01599  1.0000
  C   C1281     1.0  0.55617  0.61677  0.99546  1.0000
  H   H1282     1.0  0.60458  0.95153  0.13433  1.0000
  C   C1282     1.0  0.54303  0.71748  0.98865  1.0000
  N   N105      1.0  0.43103  0.82437  0.09876  1.0000
  C   C1283     1.0  0.42957  0.84189  0.09621  1.0000
  C   C1284     1.0  0.43336  0.81348  0.11442  1.0000
  C   C1285     1.0  0.43069  0.84889  0.10944  1.0000
  C   C1286     1.0  0.43464  0.82005  0.12792  1.0000
  C   C1287     1.0  0.43329  0.83788  0.12538  1.0000
  C   C1288     1.0  0.42929  0.81736  0.08489  1.0000
  H   H1283     1.0  0.42804  0.85054  0.08372  1.0000
  H   H1284     1.0  0.43447  0.79959  0.11646  1.0000
  H   H1285     1.0  0.42992  0.86275  0.10713  1.0000
  H   H1286     1.0  0.43675  0.81142  0.14027  1.0000
  H   H1287     1.0  0.44724  0.98605  0.17103  1.0000
  C   C1289     1.0  0.48292  0.94964  0.14651  1.0000
  C   C1290     1.0  0.50007  0.66287  0.05944  1.0000
  H   H1288     1.0  0.57273  0.86199  0.10072  1.0000
  H   H1289     1.0  0.42024  0.55559  0.03569  1.0000
  H   H1290     1.0  0.44419  0.97045  0.19147  1.0000
  C   C1291     1.0  0.46856  0.69679  0.00882  1.0000
  H   H1291     1.0  0.53792  0.95989  0.08315  1.0000
  C   C1292     1.0  0.45390  0.57261  0.01162  1.0000
  C   C1293     1.0  0.47057  0.67098  0.05548  1.0000
  N   N106      1.0  0.64397  0.95405  0.10902  1.0000
  H   H1292     1.0  0.61137  0.96786  0.15191  1.0000
  S   S436      1.0  0.57391  0.92558  0.10542  1.0000
  Fe  Fe215     1.0  0.57294  0.90959  0.13245  1.0000
  H   H1293     1.0  0.64748  0.96594  0.12746  1.0000
  C   C1294     1.0  0.54269  0.77768  0.03793  1.0000
  N   N107      1.0  0.55285  0.60571  0.01134  1.0000
  H   H1294     1.0  0.48361  0.70631  0.05540  1.0000
  H   H1295     1.0  0.35684  0.50081  0.99762  1.0000
  C   C1295     1.0  0.60403  0.96531  0.12959  1.0000
  S   S437      1.0  0.38570  0.49564  0.01389  1.0000
  H   H1296     1.0  0.61556  0.90112  0.19404  1.0000
  C   C1296     1.0  0.60700  0.84514  0.05570  1.0000
  Fe  Fe216     1.0  0.37132  0.52374  0.00999  1.0000
  S   S438      1.0  0.50107  0.97409  0.07935  1.0000
  N   N108      1.0  0.46186  0.96036  0.17009  1.0000
  H   H1297     1.0  0.48098  0.82205  0.19051  1.0000
  C   C1297     1.0  0.55272  0.97090  0.11195  1.0000
  C   C1298     1.0  0.45598  0.94528  0.17520  1.0000
  H   H1298     1.0  0.64449  0.91133  0.11530  1.0000
  C   C1299     1.0  0.55158  0.85053  0.06127  1.0000
  C   C1300     1.0  0.53858  0.74654  0.99379  1.0000
  H   H1299     1.0  0.56333  0.84308  0.11054  1.0000
  C   C1301     1.0  0.64644  0.86510  0.18604  1.0000
  N   N109      1.0  0.49684  0.83965  0.18831  1.0000
  C   C1302     1.0  0.64711  0.60603  0.00166  1.0000
  C   C1303     1.0  0.53111  0.95088  0.11083  1.0000
  N   N110      1.0  0.55056  0.97005  0.09627  1.0000
  C   C1304     1.0  0.59495  0.85893  0.04809  1.0000
  Fe  Fe217     1.0  0.62284  0.89581  0.23121  1.0000
  C   C1305     1.0  0.45386  0.97437  0.17952  1.0000
  H   H1300     1.0  0.48608  0.64464  0.05854  1.0000
  H   H1301     1.0  0.65558  0.97069  0.08670  1.0000
  Fe  Fe218     1.0  0.34443  0.54930  0.02908  1.0000
  C   C1306     1.0  0.60799  0.97458  0.13949  1.0000
  H   H1302     1.0  0.48543  0.83611  0.16960  1.0000
  H   H1303     1.0  0.64948  0.57861  0.01350  1.0000
  H   H1304     1.0  0.50594  0.78172  0.07846  1.0000
  H   H1305     1.0  0.45657  0.71437  0.04633  1.0000
  H   H1306     1.0  0.44732  0.69822  0.04381  1.0000
  H   H1307     1.0  0.58289  0.84201  0.09380  1.0000
  C   C1307     1.0  0.53937  0.83073  0.99493  1.0000
  H   H1308     1.0  0.48386  0.83062  0.21440  1.0000
  N   N111      1.0  0.57595  0.88535  0.19200  1.0000
  Fe  Fe219     1.0  0.59974  0.81412  0.99639  1.0000
  C   C1308     1.0  0.51646  0.78061  0.06721  1.0000
  S   S439      1.0  0.45343  0.68625  0.00712  1.0000
  C   C1309     1.0  0.43353  0.55732  0.03432  1.0000
  H   H1309     1.0  0.44542  0.94344  0.18639  1.0000
  S   S440      1.0  0.63395  0.88114  0.13897  1.0000
  C   C1310     1.0  0.52711  0.60267  0.00500  1.0000
  H   H1310     1.0  0.58682  0.72356  0.04458  1.0000
  C   C1311     1.0  0.50879  0.86041  0.20190  1.0000
  H   H1311     1.0  0.55162  0.83462  0.98971  1.0000
  N   N112      1.0  0.55939  0.85578  0.08519  1.0000
  H   H1312     1.0  0.44497  0.70151  0.06533  1.0000
  C   C1312     1.0  0.44314  0.83673  0.21916  1.0000
  S   S441      1.0  0.44819  0.84058  0.16793  1.0000
  Fe  Fe220     1.0  0.61599  0.65088  0.99553  1.0000
  H   H1313     1.0  0.63791  0.98185  0.10119  1.0000
  C   C1313     1.0  0.47716  0.93413  0.15177  1.0000
  H   H1314     1.0  0.61639  0.84815  0.18436  1.0000
  C   C1314     1.0  0.61366  0.84736  0.06880  1.0000
  C   C1315     1.0  0.52201  0.76494  0.06160  1.0000
  H   H1315     1.0  0.55296  0.77676  0.02646  1.0000
  C   C1316     1.0  0.51330  0.86104  0.18409  1.0000
  C   C1317     1.0  0.59581  0.87678  0.06707  1.0000
  C   C1318     1.0  0.53540  0.76342  0.04699  1.0000
  C   C1319     1.0  0.58466  0.87673  0.20510  1.0000
  H   H1316     1.0  0.61314  0.86460  0.08473  1.0000
  C   C1320     1.0  0.60804  0.86309  0.07453  1.0000
  H   H1317     1.0  0.51583  0.75414  0.06848  1.0000
  S   S442      1.0  0.37320  0.53955  0.02747  1.0000
  H   H1318     1.0  0.55847  0.59687  0.03677  1.0000
  C   C1321     1.0  0.60480  0.85831  0.18664  1.0000
  Fe  Fe221     1.0  0.49349  0.78942  0.00179  1.0000
  H   H1319     1.0  0.54410  0.87824  0.09468  1.0000
  C   C1322     1.0  0.45218  0.86060  0.18824  1.0000
  C   C1323     1.0  0.50724  0.85044  0.17749  1.0000
  Fe  Fe222     1.0  0.59353  0.90251  0.09718  1.0000
  C   C1324     1.0  0.44747  0.84563  0.18770  1.0000
  H   H1320     1.0  0.42747  0.55042  0.00683  1.0000
  H   H1321     1.0  0.57998  0.88522  0.04787  1.0000
  S   S443      1.0  0.34731  0.57216  0.00665  1.0000
  H   H1322     1.0  0.45624  0.87503  0.20461  1.0000
  H   H1323     1.0  0.53007  0.86924  0.05174  1.0000
  C   C1325     1.0  0.45256  0.86351  0.20426  1.0000
  H   H1324     1.0  0.43907  0.82229  0.20298  1.0000
  S   S444      1.0  0.60841  0.92226  0.21956  1.0000
  H   H1325     1.0  0.62508  0.72776  0.01423  1.0000
  H   H1326     1.0  0.57015  0.61238  0.02228  1.0000
  H   H1327     1.0  0.52279  0.94303  0.11013  1.0000
  H   H1328     1.0  0.43207  0.56735  0.04166  1.0000
  H   H1329     1.0  0.54478  0.71219  0.00228  1.0000
  C   C1326     1.0  0.64270  0.97016  0.09545  1.0000
  C   C1327     1.0  0.53865  0.59850  0.01609  1.0000
  C   C1328     1.0  0.65630  0.58855  0.00535  1.0000
  C   C1329     1.0  0.53353  0.95136  0.12686  1.0000
  H   H1330     1.0  0.63325  0.97090  0.08765  1.0000
  C   C1330     1.0  0.64774  0.92314  0.13418  1.0000
  C   C1331     1.0  0.51790  0.81687  0.99272  1.0000
  H   H1331     1.0  0.44152  0.54484  0.04028  1.0000
  H   H1332     1.0  0.55127  0.96895  0.22813  1.0000
  H   H1333     1.0  0.51562  0.59731  0.00902  1.0000
  S   S445      1.0  0.64502  0.64118  0.98653  1.0000
  H   H1334     1.0  0.56787  0.97012  0.07175  1.0000
  C   C1332     1.0  0.43741  0.55786  0.00344  1.0000
  H   H1335     1.0  0.43112  0.61327  0.99955  1.0000
  C   C1333     1.0  0.53341  0.82250  0.98561  1.0000
  C   C1334     1.0  0.64504  0.92331  0.11807  1.0000
  H   H1336     1.0  0.52988  0.71682  0.98812  1.0000
  C   C1335     1.0  0.55986  0.97939  0.08000  1.0000
  C   C1336     1.0  0.33104  0.50454  0.05566  1.0000
  C   C1337     1.0  0.46044  0.96756  0.22868  1.0000
  C   C1338     1.0  0.64305  0.93899  0.10560  1.0000
  H   H1337     1.0  0.46554  0.97249  0.21508  1.0000
  H   H1338     1.0  0.49428  0.84904  0.22668  1.0000
  H   H1339     1.0  0.64064  0.93907  0.09321  1.0000
  H   H1340     1.0  0.54629  0.96201  0.13983  1.0000
  S   S446      1.0  0.39628  0.57724  0.99273  1.0000
  H   H1341     1.0  0.42818  0.71602  0.99416  1.0000
  S   S447      1.0  0.47696  0.89110  0.22160  1.0000
  H   H1342     1.0  0.65052  0.93858  0.15015  1.0000
  C   C1339     1.0  0.64860  0.93856  0.13759  1.0000
  S   S448      1.0  0.45428  0.94096  0.21880  1.0000
  Fe  Fe223     1.0  0.34747  0.55384  0.99092  1.0000
  C   C1340     1.0  0.33849  0.49228  0.04538  1.0000
  H   H1343     1.0  0.35249  0.48893  0.04086  1.0000
  H   H1344     1.0  0.65523  0.85414  0.19234  1.0000
  C   C1341     1.0  0.62413  0.73286  0.98713  1.0000
  H   H1345     1.0  0.43078  0.75055  0.98984  1.0000
  H   H1346     1.0  0.43965  0.82740  0.23107  1.0000
  C   C1342     1.0  0.62826  0.76589  0.98476  1.0000
  C   C1343     1.0  0.46201  0.57784  0.99422  1.0000
  C   C1344     1.0  0.41934  0.75052  0.98512  1.0000
  H   H1347     1.0  0.47145  0.58586  0.99074  1.0000
  S   S449      1.0  0.37634  0.54419  0.98559  1.0000
  Fe  Fe224     1.0  0.62240  0.93192  0.23354  1.0000
  C   C1345     1.0  0.44512  0.56302  0.98590  1.0000
  H   H1348     1.0  0.51167  0.91410  0.23401  1.0000
  C   C1346     1.0  0.45329  0.95285  0.23384  1.0000
  Fe  Fe225     1.0  0.46084  0.91344  0.23367  1.0000
  S   S450      1.0  0.32510  0.55204  0.05404  1.0000
  S   S451      1.0  0.45902  0.97697  0.27496  1.0000
  H   H1349     1.0  0.40725  0.95907  0.28582  1.0000
  H   H1350     1.0  0.60142  0.97233  0.24601  1.0000
  C   C1347     1.0  0.37565  0.97423  0.43882  1.0000
  Fe  Fe226     1.0  0.45932  0.89268  0.27073  1.0000
  S   S452      1.0  0.44150  0.89876  0.25238  1.0000
  S   S453      1.0  0.45145  0.89362  0.29923  1.0000
  C   C1348     1.0  0.63550  0.94731  0.25787  1.0000
  C   C1349     1.0  0.40342  0.95783  0.47997  1.0000
  H   H1351     1.0  0.37449  0.97715  0.42505  1.0000
  C   C1350     1.0  0.40880  0.94299  0.31142  1.0000
  S   S454      1.0  0.47564  0.86844  0.26204  1.0000
  S   S455      1.0  0.47740  0.90913  0.25278  1.0000
  Fe  Fe227     1.0  0.36207  0.89445  0.36507  1.0000
  S   S456      1.0  0.34533  0.91997  0.37053  1.0000
  S   S457      1.0  0.37345  0.89291  0.33694  1.0000
  Fe  Fe228     1.0  0.35468  0.87614  0.40340  1.0000
  H   H1352     1.0  0.39771  0.86798  0.42463  1.0000
  S   S458      1.0  0.36090  0.85129  0.42325  1.0000
  H   H1353     1.0  0.53903  0.94388  0.27782  1.0000
  C   C1351     1.0  0.64863  0.95718  0.32629  1.0000
  Fe  Fe229     1.0  0.35787  0.91314  0.39339  1.0000
  S   S459      1.0  0.36765  0.93052  0.40326  1.0000
  S   S460      1.0  0.34213  0.87908  0.38121  1.0000
  S   S461      1.0  0.37621  0.88893  0.38658  1.0000
  H   H1354     1.0  0.64386  0.86098  0.31163  1.0000
  C   C1352     1.0  0.41409  0.94101  0.32676  1.0000
  C   C1353     1.0  0.52440  0.90914  0.23705  1.0000
  H   H1355     1.0  0.58587  0.96980  0.26641  1.0000
  C   C1354     1.0  0.63421  0.95201  0.27337  1.0000
  Fe  Fe230     1.0  0.45923  0.87580  0.24214  1.0000
  C   C1355     1.0  0.52426  0.91876  0.28051  1.0000
  C   C1356     1.0  0.36904  0.83805  0.45517  1.0000
  S   S462      1.0  0.60277  0.89156  0.25594  1.0000
  N   N113      1.0  0.42359  0.96795  0.31518  1.0000
  C   C1357     1.0  0.36069  0.87030  0.46417  1.0000
  S   S463      1.0  0.44922  0.85380  0.24007  1.0000
  C   C1358     1.0  0.37661  0.94573  0.38609  1.0000
  C   C1359     1.0  0.37612  0.94651  0.36898  1.0000
  C   C1360     1.0  0.38149  0.96001  0.35554  1.0000
  C   C1361     1.0  0.38781  0.97239  0.35919  1.0000
  C   C1362     1.0  0.38942  0.97089  0.37611  1.0000
  C   C1363     1.0  0.38357  0.95771  0.38963  1.0000
  H   H1356     1.0  0.37125  0.93702  0.36609  1.0000
  H   H1357     1.0  0.38022  0.96118  0.34244  1.0000
  H   H1358     1.0  0.51936  0.96033  0.27984  1.0000
  H   H1359     1.0  0.38422  0.95700  0.40280  1.0000
  C   C1364     1.0  0.42932  0.89577  0.30944  1.0000
  C   C1365     1.0  0.42429  0.89419  0.32752  1.0000
  C   C1366     1.0  0.40690  0.89434  0.33613  1.0000
  C   C1367     1.0  0.39451  0.89600  0.32664  1.0000
  C   C1368     1.0  0.39940  0.89848  0.30850  1.0000
  C   C1369     1.0  0.41673  0.89833  0.29994  1.0000
  H   H1360     1.0  0.43397  0.89231  0.33495  1.0000
  H   H1361     1.0  0.40325  0.89241  0.35013  1.0000
  H   H1362     1.0  0.38983  0.89995  0.30107  1.0000
  H   H1363     1.0  0.42035  0.89981  0.28602  1.0000
  C   C1370     1.0  0.42152  0.95368  0.32843  1.0000
  H   H1364     1.0  0.33335  0.85085  0.47671  1.0000
  H   H1365     1.0  0.42071  0.98095  0.28932  1.0000
  C   C1371     1.0  0.45612  0.96839  0.25896  1.0000
  C   C1372     1.0  0.51469  0.90606  0.28395  1.0000
  H   H1366     1.0  0.47509  0.93301  0.28175  1.0000
  C   C1373     1.0  0.33160  0.97696  0.38583  1.0000
  H   H1367     1.0  0.44156  0.93493  0.25554  1.0000
  H   H1368     1.0  0.42532  0.95222  0.34051  1.0000
  C   C1374     1.0  0.40209  0.86676  0.44974  1.0000
  H   H1369     1.0  0.63383  0.85661  0.28823  1.0000
  H   H1370     1.0  0.64421  0.98449  0.34095  1.0000
  H   H1371     1.0  0.37756  0.92723  0.43879  1.0000
  H   H1372     1.0  0.63790  0.95609  0.33737  1.0000
  H   H1373     1.0  0.52111  0.89236  0.28576  1.0000
  Fe  Fe231     1.0  0.49207  0.88560  0.24230  1.0000
  H   H1374     1.0  0.39592  0.92663  0.42067  1.0000
  C   C1375     1.0  0.35870  0.86933  0.44799  1.0000
  C   C1376     1.0  0.52652  0.94931  0.27345  1.0000
  H   H1375     1.0  0.48922  0.90151  0.28734  1.0000
  C   C1377     1.0  0.64608  0.85872  0.27968  1.0000
  C   C1378     1.0  0.36711  0.85513  0.47574  1.0000
  H   H1376     1.0  0.46796  0.98632  0.23729  1.0000
  H   H1377     1.0  0.63732  0.86081  0.25642  1.0000
  H   H1378     1.0  0.63068  0.89426  0.32609  1.0000
  H   H1379     1.0  0.41224  0.92984  0.33738  1.0000
  H   H1380     1.0  0.39197  0.90016  0.41615  1.0000
  C   C1379     1.0  0.39512  0.89356  0.42873  1.0000
  C   C1380     1.0  0.39175  0.92200  0.43495  1.0000
  S   S464      1.0  0.63885  0.90579  0.24275  1.0000
  S   S465      1.0  0.60173  0.93099  0.25794  1.0000
  C   C1381     1.0  0.63525  0.96881  0.27292  1.0000
  Fe  Fe232     1.0  0.61748  0.90419  0.26651  1.0000
  H   H1381     1.0  0.63170  0.94286  0.28570  1.0000
  H   H1382     1.0  0.40301  0.93326  0.30998  1.0000
  H   H1383     1.0  0.52952  0.95438  0.25916  1.0000
  H   H1384     1.0  0.39872  0.92745  0.44126  1.0000
  S   S466      1.0  0.33728  0.90009  0.41165  1.0000
  C   C1382     1.0  0.64065  0.89859  0.29839  1.0000
  C   C1383     1.0  0.40200  0.87643  0.46130  1.0000
  C   C1384     1.0  0.49686  0.91119  0.28466  1.0000
  H   H1385     1.0  0.57054  0.89180  0.24698  1.0000
  H   H1386     1.0  0.49265  0.95496  0.27519  1.0000
  C   C1385     1.0  0.64180  0.89638  0.31570  1.0000
  H   H1387     1.0  0.53818  0.91468  0.27967  1.0000
  C   C1386     1.0  0.53339  0.92069  0.23855  1.0000
  C   C1387     1.0  0.54880  0.88518  0.24250  1.0000
  C   C1388     1.0  0.48889  0.92888  0.28156  1.0000
  C   C1389     1.0  0.39849  0.87535  0.43339  1.0000
  H   H1388     1.0  0.35753  0.88280  0.46746  1.0000
  H   H1389     1.0  0.35409  0.88110  0.43903  1.0000
  H   H1390     1.0  0.44435  0.94842  0.27764  1.0000
  H   H1391     1.0  0.37229  0.82552  0.45177  1.0000
  H   H1392     1.0  0.44613  0.97742  0.31128  1.0000
  C   C1390     1.0  0.44706  0.94631  0.25149  1.0000
  Fe  Fe233     1.0  0.58917  0.91875  0.24496  1.0000
  C   C1391     1.0  0.49889  0.94123  0.27792  1.0000
  H   H1393     1.0  0.36854  0.97328  0.47261  1.0000
  C   C1392     1.0  0.37118  0.83903  0.47121  1.0000
  N   N114      1.0  0.51629  0.93609  0.27771  1.0000
  C   C1393     1.0  0.44851  0.95405  0.26402  1.0000
  C   C1394     1.0  0.36292  0.85318  0.44343  1.0000
  C   C1395     1.0  0.39865  0.89463  0.45617  1.0000
  S   S467      1.0  0.63005  0.97595  0.29221  1.0000
  S   S468      1.0  0.62197  0.89540  0.29403  1.0000
  S   S469      1.0  0.52121  0.87663  0.23703  1.0000
  N   N115      1.0  0.41298  0.85578  0.31486  1.0000
  C   C1396     1.0  0.42874  0.85471  0.30350  1.0000
  C   C1397     1.0  0.39801  0.85966  0.30889  1.0000
  C   C1398     1.0  0.42978  0.85765  0.28563  1.0000
  C   C1399     1.0  0.39859  0.86285  0.29106  1.0000
  C   C1400     1.0  0.41461  0.86178  0.27939  1.0000
  C   C1401     1.0  0.41225  0.85193  0.33359  1.0000
  H   H1394     1.0  0.44061  0.85182  0.30817  1.0000
  H   H1395     1.0  0.38549  0.86078  0.31788  1.0000
  H   H1396     1.0  0.44226  0.85679  0.27663  1.0000
  H   H1397     1.0  0.38670  0.86624  0.28634  1.0000
  H   H1398     1.0  0.41535  0.86418  0.26551  1.0000
  H   H1399     1.0  0.41440  0.83764  0.33893  1.0000
  H   H1400     1.0  0.42223  0.85699  0.33625  1.0000
  H   H1401     1.0  0.39945  0.85832  0.34063  1.0000
  N   N116      1.0  0.39558  0.90293  0.43995  1.0000
  C   C1402     1.0  0.63910  0.98034  0.25694  1.0000
  H   H1402     1.0  0.63444  0.93440  0.25839  1.0000
  H   H1403     1.0  0.39501  0.98002  0.37883  1.0000
  H   H1404     1.0  0.40418  0.85267  0.45374  1.0000
  H   H1405     1.0  0.34453  0.97727  0.38649  1.0000
  S   S470      1.0  0.56067  0.92904  0.24488  1.0000
  H   H1406     1.0  0.38960  0.97230  0.43886  1.0000
  H   H1407     1.0  0.39935  0.96690  0.46868  1.0000
  C   C1403     1.0  0.41862  0.96989  0.30000  1.0000
  C   C1404     1.0  0.41105  0.95752  0.29793  1.0000
  C   C1405     1.0  0.55777  0.89671  0.24405  1.0000
  C   C1406     1.0  0.46195  0.97529  0.24128  1.0000
  H   H1408     1.0  0.39842  0.90209  0.46529  1.0000
  C   C1407     1.0  0.43201  0.98076  0.31685  1.0000
  C   C1408     1.0  0.64002  0.97574  0.24149  1.0000
  C   C1409     1.0  0.55007  0.91449  0.24211  1.0000
  C   C1410     1.0  0.53205  0.89134  0.23911  1.0000
  H   H1409     1.0  0.57506  0.95940  0.24400  1.0000
  H   H1410     1.0  0.55474  0.87140  0.24416  1.0000
  C   C1411     1.0  0.32768  0.96116  0.38694  1.0000
  S   S471      1.0  0.38626  0.93609  0.47499  1.0000
  H   H1411     1.0  0.37136  0.96193  0.44574  1.0000
  H   H1412     1.0  0.42998  0.98129  0.33067  1.0000
  H   H1413     1.0  0.40402  0.86987  0.47432  1.0000
  C   C1412     1.0  0.58954  0.97907  0.25395  1.0000
  H   H1414     1.0  0.37610  0.82724  0.48009  1.0000
  Fe  Fe234     1.0  0.32640  0.90434  0.38821  1.0000
  C   C1413     1.0  0.56946  0.97321  0.24029  1.0000
  C   C1414     1.0  0.63744  0.95949  0.24201  1.0000
  N   N117      1.0  0.57538  0.98516  0.24450  1.0000
  C   C1415     1.0  0.64792  0.86115  0.26174  1.0000
  H   H1415     1.0  0.65304  0.93042  0.32464  1.0000
  H   H1416     1.0  0.33747  0.94915  0.38870  1.0000
  H   H1417     1.0  0.65446  0.90302  0.27173  1.0000
  C   C1416     1.0  0.65513  0.90126  0.28509  1.0000
  N   N118      1.0  0.65362  0.97269  0.31925  1.0000
  H   H1418     1.0  0.52736  0.93444  0.23696  1.0000
  C   C1417     1.0  0.36334  0.98591  0.46499  1.0000
  C   C1418     1.0  0.65715  0.94262  0.31915  1.0000
  C   C1419     1.0  0.65749  0.85595  0.30523  1.0000
  C   C1420     1.0  0.65747  0.89619  0.31973  1.0000
  Fe  Fe235     1.0  0.45029  0.89822  0.59239  1.0000
  S   S472      1.0  0.44820  0.92541  0.59448  1.0000
  S   S473      1.0  0.44585  0.89462  0.56781  1.0000
  Fe  Fe236     1.0  0.46236  0.88213  0.62655  1.0000
  S   S474      1.0  0.46143  0.90780  0.63122  1.0000
  S   S475      1.0  0.46956  0.85778  0.64656  1.0000
  Fe  Fe237     1.0  0.43632  0.91617  0.62235  1.0000
  S   S476      1.0  0.41400  0.93250  0.63729  1.0000
  Fe  Fe238     1.0  0.47358  0.91458  0.60300  1.0000
  S   S477      1.0  0.49327  0.93115  0.59488  1.0000
  S   S478      1.0  0.43609  0.88980  0.61981  1.0000
  S   S479      1.0  0.47683  0.88791  0.59876  1.0000
  Fe  Fe239     1.0  0.58628  0.90671  0.60368  1.0000
  S   S480      1.0  0.57263  0.92924  0.61610  1.0000
  S   S481      1.0  0.56992  0.89023  0.60097  1.0000
  Fe  Fe240     1.0  0.62193  0.91230  0.60118  1.0000
  S   S482      1.0  0.61085  0.93500  0.61420  1.0000
  H   H1419     1.0  0.46316  0.93171  0.70460  1.0000
  Fe  Fe241     1.0  0.59253  0.91900  0.63261  1.0000
  S   S483      1.0  0.58067  0.91684  0.66130  1.0000
  Fe  Fe242     1.0  0.59204  0.94286  0.59664  1.0000
  C   C1421     1.0  0.39360  0.94125  0.58741  1.0000
  S   S484      1.0  0.60526  0.89536  0.62134  1.0000
  S   S485      1.0  0.60412  0.92139  0.58240  1.0000
  C   C1422     1.0  0.47198  0.87100  0.67330  1.0000
  C   C1423     1.0  0.51357  0.91985  0.73177  1.0000
  S   S486      1.0  0.60889  0.94795  0.70768  1.0000
  H   H1420     1.0  0.43775  0.85135  0.64005  1.0000
  Fe  Fe243     1.0  0.36660  0.89752  0.53222  1.0000
  S   S487      1.0  0.38563  0.89091  0.50823  1.0000
  S   S488      1.0  0.37158  0.89467  0.55884  1.0000
  H   H1421     1.0  0.52645  0.89034  0.63853  1.0000
  C   C1424     1.0  0.46288  0.96260  0.56994  1.0000
  Fe  Fe244     1.0  0.36472  0.88118  0.50364  1.0000
  H   H1422     1.0  0.55397  0.96418  0.72073  1.0000
  Fe  Fe245     1.0  0.37197  0.91689  0.49462  1.0000
  S   S489      1.0  0.34694  0.88496  0.52912  1.0000
  H   H1423     1.0  0.55733  0.88416  0.63909  1.0000
  C   C1425     1.0  0.60044  0.98042  0.58323  1.0000
  H   H1424     1.0  0.40314  0.91655  0.50348  1.0000
  H   H1425     1.0  0.41879  0.92520  0.52018  1.0000
  S   S490      1.0  0.37052  0.85562  0.49585  1.0000
  H   H1426     1.0  0.45887  0.96144  0.63562  1.0000
  C   C1426     1.0  0.45104  0.85034  0.69841  1.0000
  S   S491      1.0  0.58409  0.97068  0.58340  1.0000
  N   N119      1.0  0.43957  0.90754  0.68745  1.0000
  C   C1427     1.0  0.65052  0.89586  0.56315  1.0000
  H   H1427     1.0  0.44288  0.84232  0.70802  1.0000
  C   C1428     1.0  0.43843  0.84796  0.60528  1.0000
  C   C1429     1.0  0.42715  0.97220  0.57336  1.0000
  H   H1428     1.0  0.64401  0.97094  0.58100  1.0000
  H   H1429     1.0  0.42812  0.89837  0.71404  1.0000
  H   H1430     1.0  0.39792  0.94017  0.59914  1.0000
  C   C1430     1.0  0.45441  0.84970  0.68090  1.0000
  C   C1431     1.0  0.43873  0.94933  0.63597  1.0000
  H   H1431     1.0  0.55290  0.95212  0.69651  1.0000
  H   H1432     1.0  0.35712  0.95383  0.57103  1.0000
  H   H1433     1.0  0.62589  0.97302  0.67908  1.0000
  C   C1432     1.0  0.45844  0.86090  0.70363  1.0000
  N   N120      1.0  0.38248  0.94340  0.55757  1.0000
  H   H1434     1.0  0.46379  0.95697  0.54552  1.0000
  C   C1433     1.0  0.58964  0.92440  0.67416  1.0000
  C   C1434     1.0  0.58236  0.92243  0.69201  1.0000
  C   C1435     1.0  0.58851  0.92921  0.70249  1.0000
  C   C1436     1.0  0.60202  0.93797  0.69516  1.0000
  C   C1437     1.0  0.60969  0.93943  0.67744  1.0000
  C   C1438     1.0  0.60347  0.93273  0.66692  1.0000
  H   H1435     1.0  0.57189  0.91567  0.69774  1.0000
  H   H1436     1.0  0.58266  0.92784  0.71619  1.0000
  H   H1437     1.0  0.62055  0.94561  0.67185  1.0000
  H   H1438     1.0  0.60938  0.93399  0.65325  1.0000
  C   C1439     1.0  0.42517  0.89435  0.56570  1.0000
  C   C1440     1.0  0.42280  0.89462  0.54932  1.0000
  C   C1441     1.0  0.40643  0.89472  0.54706  1.0000
  C   C1442     1.0  0.39236  0.89432  0.56123  1.0000
  C   C1443     1.0  0.39479  0.89382  0.57768  1.0000
  C   C1444     1.0  0.41115  0.89382  0.57993  1.0000
  H   H1439     1.0  0.43362  0.89498  0.53827  1.0000
  H   H1440     1.0  0.40471  0.89509  0.53435  1.0000
  H   H1441     1.0  0.38392  0.89351  0.58869  1.0000
  H   H1442     1.0  0.41286  0.89356  0.59262  1.0000
  C   C1445     1.0  0.51480  0.91959  0.59522  1.0000
  C   C1446     1.0  0.51903  0.90136  0.59959  1.0000
  C   C1447     1.0  0.53612  0.89243  0.60083  1.0000
  C   C1448     1.0  0.54895  0.90169  0.59803  1.0000
  C   C1449     1.0  0.54475  0.91991  0.59347  1.0000
  C   C1450     1.0  0.52772  0.92882  0.59198  1.0000
  H   H1443     1.0  0.50916  0.89412  0.60213  1.0000
  H   H1444     1.0  0.53935  0.87833  0.60424  1.0000
  H   H1445     1.0  0.55467  0.92713  0.59085  1.0000
  H   H1446     1.0  0.52451  0.94289  0.58837  1.0000
  H   H1447     1.0  0.55109  0.88538  0.66180  1.0000
  H   H1448     1.0  0.40323  0.94534  0.66870  1.0000
  H   H1449     1.0  0.48027  0.87881  0.66361  1.0000
  S   S492      1.0  0.35423  0.92422  0.51881  1.0000
  N   N121      1.0  0.53857  0.90694  0.64475  1.0000
  C   C1451     1.0  0.52543  0.90331  0.64011  1.0000
  C   C1452     1.0  0.53724  0.92329  0.64680  1.0000
  C   C1453     1.0  0.51077  0.91636  0.63678  1.0000
  C   C1454     1.0  0.52294  0.93677  0.64319  1.0000
  C   C1455     1.0  0.50967  0.93323  0.63808  1.0000
  H   H1450     1.0  0.54749  0.92609  0.65085  1.0000
  H   H1451     1.0  0.50061  0.91355  0.63260  1.0000
  H   H1452     1.0  0.52228  0.94989  0.64416  1.0000
  H   H1453     1.0  0.49861  0.94353  0.63496  1.0000
  C   C1456     1.0  0.43759  0.96642  0.55856  1.0000
  H   H1454     1.0  0.41911  0.93075  0.57340  1.0000
  H   H1455     1.0  0.63751  0.89417  0.56952  1.0000
  H   H1456     1.0  0.41384  0.97604  0.48633  1.0000
  H   H1457     1.0  0.47684  0.95881  0.56883  1.0000
  N   N122      1.0  0.43443  0.97321  0.58607  1.0000
  H   H1458     1.0  0.43781  0.89497  0.66870  1.0000
  S   S493      1.0  0.35262  0.90667  0.48800  1.0000
  C   C1457     1.0  0.60025  0.97292  0.63407  1.0000
  S   S494      1.0  0.45339  0.86097  0.72597  1.0000
  C   C1458     1.0  0.37683  0.94425  0.54183  1.0000
  H   H1459     1.0  0.63078  0.97228  0.72459  1.0000
  H   H1460     1.0  0.41790  0.90881  0.67749  1.0000
  H   H1461     1.0  0.47475  0.87948  0.69498  1.0000
  C   C1459     1.0  0.53456  0.93665  0.71262  1.0000
  H   H1462     1.0  0.45791  0.96911  0.59465  1.0000
  C   C1460     1.0  0.44298  0.83918  0.63513  1.0000
  C   C1461     1.0  0.61807  0.97184  0.63047  1.0000
  C   C1462     1.0  0.46191  0.85272  0.58058  1.0000
  C   C1463     1.0  0.61776  0.97116  0.58080  1.0000
  C   C1464     1.0  0.42311  0.97878  0.60167  1.0000
  H   H1463     1.0  0.43181  0.96574  0.54841  1.0000
  H   H1464     1.0  0.42641  0.88755  0.69026  1.0000
  H   H1465     1.0  0.44479  0.94606  0.62349  1.0000
  C   C1465     1.0  0.54510  0.94844  0.70940  1.0000
  H   H1466     1.0  0.63840  0.93050  0.52746  1.0000
  H   H1467     1.0  0.45228  0.91901  0.66223  1.0000
  C   C1466     1.0  0.53887  0.97127  0.59341  1.0000
  C   C1467     1.0  0.55377  0.89300  0.64822  1.0000
  H   H1468     1.0  0.56535  0.89832  0.64625  1.0000
  C   C1468     1.0  0.41450  0.93435  0.50901  1.0000
  H   H1469     1.0  0.47306  0.96655  0.72369  1.0000
  C   C1469     1.0  0.40549  0.93604  0.57303  1.0000
  H   H1470     1.0  0.41788  0.96002  0.68130  1.0000
  H   H1471     1.0  0.44289  0.91408  0.72525  1.0000
  H   H1472     1.0  0.36672  0.95190  0.59771  1.0000
  H   H1473     1.0  0.63411  0.93854  0.55561  1.0000
  C   C1470     1.0  0.62301  0.98460  0.72757  1.0000
  C   C1471     1.0  0.45958  0.92580  0.68210  1.0000
  H   H1474     1.0  0.40893  0.93276  0.54721  1.0000
  H   H1475     1.0  0.65109  0.88665  0.54077  1.0000
  C   C1472     1.0  0.43927  0.96181  0.65922  1.0000
  C   C1473     1.0  0.39964  0.93713  0.55819  1.0000
  H   H1476     1.0  0.57607  0.97821  0.65241  1.0000
  C   C1474     1.0  0.63069  0.97825  0.58247  1.0000
  H   H1477     1.0  0.38431  0.95195  0.53033  1.0000
  H   H1478     1.0  0.41773  0.96776  0.61073  1.0000
  C   C1475     1.0  0.43682  0.90620  0.70496  1.0000
  H   H1479     1.0  0.46814  0.93376  0.67300  1.0000
  S   S495      1.0  0.48545  0.98170  0.62507  1.0000
  C   C1476     1.0  0.46481  0.86002  0.66825  1.0000
  C   C1477     1.0  0.45670  0.92471  0.69986  1.0000
  H   H1480     1.0  0.46654  0.85690  0.56666  1.0000
  S   S496      1.0  0.45026  0.97082  0.66870  1.0000
  C   C1478     1.0  0.45063  0.91734  0.67608  1.0000
  C   C1479     1.0  0.37073  0.94870  0.57155  1.0000
  C   C1480     1.0  0.46678  0.84389  0.60983  1.0000
  H   H1481     1.0  0.44188  0.97936  0.73254  1.0000
  H   H1482     1.0  0.45343  0.83096  0.64206  1.0000
  H   H1483     1.0  0.52764  0.96535  0.60066  1.0000
  C   C1481     1.0  0.46897  0.87128  0.69106  1.0000
  C   C1482     1.0  0.44526  0.91486  0.71142  1.0000
  N   N123      1.0  0.44963  0.84347  0.61628  1.0000
  C   C1483     1.0  0.40556  0.92945  0.49955  1.0000
  C   C1484     1.0  0.39964  0.94131  0.48526  1.0000
  H   H1484     1.0  0.36284  0.95058  0.54255  1.0000
  N   N124      1.0  0.61494  0.98101  0.65672  1.0000
  H   H1485     1.0  0.47558  0.84090  0.61854  1.0000
  C   C1485     1.0  0.64829  0.93531  0.52997  1.0000
  C   C1486     1.0  0.41532  0.94894  0.66145  1.0000
  C   C1487     1.0  0.42305  0.94474  0.64528  1.0000
  H   H1486     1.0  0.43260  0.83185  0.63848  1.0000
  H   H1487     1.0  0.48669  0.84914  0.58681  1.0000
  H   H1488     1.0  0.54603  0.96520  0.58221  1.0000
  C   C1488     1.0  0.47318  0.84846  0.59189  1.0000
  C   C1489     1.0  0.41682  0.95138  0.50468  1.0000
  S   S497      1.0  0.42305  0.95907  0.51938  1.0000
  C   C1490     1.0  0.41170  0.96298  0.48990  1.0000
  C   C1491     1.0  0.64588  0.93982  0.54578  1.0000
  H   H1489     1.0  0.42472  0.84829  0.61037  1.0000
  C   C1492     1.0  0.44443  0.85246  0.58728  1.0000
  C   C1493     1.0  0.54571  0.95520  0.72298  1.0000
  C   C1494     1.0  0.44669  0.95811  0.64281  1.0000
  Fe  Fe246     1.0  0.33611  0.91118  0.51372  1.0000
  H   H1490     1.0  0.62110  0.95839  0.57793  1.0000
  C   C1495     1.0  0.45205  0.96837  0.58460  1.0000
  C   C1496     1.0  0.42359  0.95722  0.66856  1.0000
  H   H1491     1.0  0.62627  0.96789  0.61880  1.0000
  C   C1497     1.0  0.45556  0.96157  0.55689  1.0000
  N   N125      1.0  0.52489  0.93179  0.72890  1.0000
  H   H1492     1.0  0.54771  0.96823  0.60252  1.0000
  S   S498      1.0  0.65114  0.90634  0.59206  1.0000
  H   H1493     1.0  0.37900  0.93087  0.53986  1.0000
  H   H1494     1.0  0.53428  0.93132  0.70205  1.0000
  C   C1498     1.0  0.37610  0.94771  0.58666  1.0000
  H   H1495     1.0  0.43549  0.85635  0.57855  1.0000
  H   H1496     1.0  0.44898  0.84107  0.67717  1.0000
  H   H1497     1.0  0.63911  0.97523  0.63895  1.0000
  H   H1498     1.0  0.55706  0.88636  0.73345  1.0000
  C   C1499     1.0  0.58989  0.97768  0.64933  1.0000
  H   H1499     1.0  0.41320  0.97617  0.57449  1.0000
  S   S499      1.0  0.48509  0.89064  0.72759  1.0000
  C   C1500     1.0  0.62525  0.97596  0.64198  1.0000
  H   H1500     1.0  0.59452  0.96993  0.62511  1.0000
  C   C1501     1.0  0.42988  0.89933  0.68070  1.0000
  H   H1501     1.0  0.52077  0.90834  0.72613  1.0000
  C   C1502     1.0  0.59752  0.98160  0.66063  1.0000
  H   H1502     1.0  0.33345  0.86215  0.50168  1.0000
  H   H1503     1.0  0.50219  0.92667  0.72573  1.0000
  S   S500      1.0  0.38816  0.98566  0.54950  1.0000
  H   H1504     1.0  0.44059  0.97681  0.70361  1.0000
  H   H1505     1.0  0.59883  0.97780  0.73072  1.0000
  H   H1506     1.0  0.43025  0.98349  0.60850  1.0000
  Fe  Fe247     1.0  0.40335  0.98366  0.52270  1.0000
  C   C1503     1.0  0.62270  0.98492  0.66888  1.0000
  H   H1507     1.0  0.58947  0.98500  0.67261  1.0000
  H   H1508     1.0  0.65731  0.94797  0.56179  1.0000
  C   C1504     1.0  0.65824  0.89156  0.54691  1.0000
  H   H1509     1.0  0.60037  0.71239  0.83521  1.0000
  Fe  Fe248     1.0  0.61004  0.91347  0.76989  1.0000
  S   S501      1.0  0.59578  0.91201  0.75078  1.0000
  S   S502      1.0  0.62752  0.88775  0.77942  1.0000
  Fe  Fe249     1.0  0.57269  0.92649  0.76692  1.0000
  H   H1510     1.0  0.62225  0.96758  0.77228  1.0000
  S   S503      1.0  0.58646  0.92630  0.78695  1.0000
  H   H1511     1.0  0.49058  0.68372  0.88394  1.0000
  S   S504      1.0  0.48378  0.89071  0.76827  1.0000
  H   H1512     1.0  0.54783  0.78391  0.96623  1.0000
  C   C1505     1.0  0.55259  0.74152  0.96564  1.0000
  S   S505      1.0  0.44947  0.88764  0.75790  1.0000
  C   C1506     1.0  0.53574  0.95022  0.73951  1.0000
  H   H1513     1.0  0.54109  0.81995  0.97323  1.0000
  Fe  Fe250     1.0  0.46686  0.87143  0.77627  1.0000
  S   S506      1.0  0.45621  0.86083  0.80469  1.0000
  C   C1507     1.0  0.48725  0.67361  0.91171  1.0000
  S   S507      1.0  0.48351  0.85457  0.75800  1.0000
  Fe  Fe251     1.0  0.47258  0.76954  0.86889  1.0000
  S   S508      1.0  0.48666  0.74194  0.87861  1.0000
  S   S509      1.0  0.47944  0.78085  0.83989  1.0000
  Fe  Fe252     1.0  0.45446  0.77413  0.90561  1.0000
  S   S510      1.0  0.46690  0.74733  0.91812  1.0000
  S   S511      1.0  0.43616  0.79264  0.92167  1.0000
  Fe  Fe253     1.0  0.49094  0.75264  0.89895  1.0000
  S   S512      1.0  0.51576  0.74719  0.90779  1.0000
  Fe  Fe254     1.0  0.46121  0.73901  0.89683  1.0000
  S   S513      1.0  0.45063  0.71467  0.90641  1.0000
  S   S514      1.0  0.47903  0.78042  0.88788  1.0000
  S   S515      1.0  0.44657  0.76568  0.88562  1.0000
  Fe  Fe255     1.0  0.59383  0.79046  0.89385  1.0000
  S   S516      1.0  0.59038  0.77441  0.87756  1.0000
  H   H1514     1.0  0.59015  0.79245  0.97731  1.0000
  Fe  Fe256     1.0  0.60456  0.81824  0.86243  1.0000
  S   S517      1.0  0.60262  0.80440  0.84327  1.0000
  S   S518      1.0  0.60691  0.84611  0.85719  1.0000
  Fe  Fe257     1.0  0.57804  0.79957  0.86179  1.0000
  S   S519      1.0  0.55493  0.80086  0.85167  1.0000
  Fe  Fe258     1.0  0.61528  0.77998  0.86028  1.0000
  S   S520      1.0  0.63286  0.75798  0.84800  1.0000
  S   S521      1.0  0.57872  0.81515  0.87980  1.0000
  S   S522      1.0  0.61993  0.79434  0.87779  1.0000
  S   S523      1.0  0.61310  0.81636  0.96797  1.0000
  Fe  Fe259     1.0  0.61631  0.66220  0.87251  1.0000
  S   S524      1.0  0.61164  0.65983  0.84762  1.0000
  S   S525      1.0  0.61376  0.68465  0.88455  1.0000
  Fe  Fe260     1.0  0.61626  0.62411  0.88961  1.0000
  S   S526      1.0  0.61144  0.61811  0.86651  1.0000
  S   S527      1.0  0.62006  0.60610  0.91534  1.0000
  Fe  Fe261     1.0  0.63098  0.63410  0.85135  1.0000
  Fe  Fe262     1.0  0.59244  0.64398  0.86434  1.0000
  S   S528      1.0  0.56701  0.65042  0.85596  1.0000
  S   S529      1.0  0.63757  0.63790  0.87456  1.0000
  S   S530      1.0  0.59532  0.64852  0.88884  1.0000
  C   C1508     1.0  0.63364  0.72392  0.84896  1.0000
  Fe  Fe263     1.0  0.46114  0.60231  0.86740  1.0000
  S   S531      1.0  0.47258  0.58861  0.89088  1.0000
  S   S532      1.0  0.45166  0.58756  0.85366  1.0000
  Fe  Fe264     1.0  0.46530  0.63773  0.86832  1.0000
  S   S533      1.0  0.47646  0.62719  0.89215  1.0000
  S   S534      1.0  0.46259  0.66599  0.85455  1.0000
  Fe  Fe265     1.0  0.49219  0.60534  0.87929  1.0000
  S   S535      1.0  0.52009  0.59498  0.88196  1.0000
  Fe  Fe266     1.0  0.45605  0.61150  0.90160  1.0000
  S   S536      1.0  0.44075  0.60785  0.92890  1.0000
  S   S537      1.0  0.48249  0.61692  0.85450  1.0000
  S   S538      1.0  0.44315  0.62423  0.87905  1.0000
  Fe  Fe267     1.0  0.36612  0.55109  0.88253  1.0000
  S   S539      1.0  0.37124  0.52210  0.89290  1.0000
  S   S540      1.0  0.37826  0.56897  0.88983  1.0000
  H   H1515     1.0  0.50303  0.63247  0.93143  1.0000
  Fe  Fe268     1.0  0.36680  0.52068  0.86755  1.0000
  C   C1509     1.0  0.42982  0.73301  0.94498  1.0000
  S   S541      1.0  0.36420  0.54944  0.85628  1.0000
  S   S542      1.0  0.65008  0.62530  0.82843  1.0000
  C   C1510     1.0  0.60906  0.85379  0.91614  1.0000
  S   S543      1.0  0.33105  0.51221  0.92821  1.0000
  H   H1516     1.0  0.61589  0.67970  0.92264  1.0000
  H   H1517     1.0  0.56930  0.83465  0.92289  1.0000
  C   C1511     1.0  0.48422  0.94812  0.76924  1.0000
  H   H1518     1.0  0.60439  0.66460  0.92130  1.0000
  H   H1519     1.0  0.55788  0.73273  0.95683  1.0000
  H   H1520     1.0  0.65642  0.55142  0.91757  1.0000
  Fe  Fe269     1.0  0.34233  0.52583  0.90130  1.0000
  H   H1521     1.0  0.45223  0.81713  0.96008  1.0000
  C   C1512     1.0  0.43129  0.58224  0.86363  1.0000
  C   C1513     1.0  0.42591  0.57035  0.85799  1.0000
  C   C1514     1.0  0.40959  0.56620  0.86573  1.0000
  C   C1515     1.0  0.39848  0.57418  0.87895  1.0000
  C   C1516     1.0  0.40371  0.58642  0.88419  1.0000
  C   C1517     1.0  0.42008  0.59028  0.87672  1.0000
  H   H1522     1.0  0.43447  0.56415  0.84778  1.0000
  H   H1523     1.0  0.40565  0.55679  0.86156  1.0000
  H   H1524     1.0  0.39504  0.59291  0.89414  1.0000
  H   H1525     1.0  0.42394  0.59960  0.88102  1.0000
  C   C1518     1.0  0.44805  0.61577  0.95585  1.0000
  C   C1519     1.0  0.45472  0.60905  0.94093  1.0000
  C   C1520     1.0  0.47270  0.60396  0.93519  1.0000
  C   C1521     1.0  0.48399  0.60610  0.94408  1.0000
  C   C1522     1.0  0.45935  0.61792  0.96472  1.0000
  H   H1526     1.0  0.47794  0.59841  0.92383  1.0000
  C   C1523     1.0  0.60502  0.61625  0.93123  1.0000
  C   C1524     1.0  0.61037  0.61836  0.94517  1.0000
  C   C1525     1.0  0.59938  0.62966  0.95566  1.0000
  C   C1526     1.0  0.58295  0.63856  0.95239  1.0000
  C   C1527     1.0  0.57719  0.63551  0.93923  1.0000
  C   C1528     1.0  0.58822  0.62433  0.92870  1.0000
  H   H1527     1.0  0.62334  0.61223  0.94722  1.0000
  H   H1528     1.0  0.63168  0.57807  0.83662  1.0000
  H   H1529     1.0  0.56444  0.64227  0.93675  1.0000
  H   H1530     1.0  0.58386  0.62233  0.91825  1.0000
  C   C1529     1.0  0.55382  0.63514  0.86396  1.0000
  C   C1530     1.0  0.55864  0.61940  0.87559  1.0000
  C   C1531     1.0  0.54827  0.60706  0.88098  1.0000
  C   C1532     1.0  0.53297  0.61050  0.87493  1.0000
  C   C1533     1.0  0.52811  0.62628  0.86341  1.0000
  C   C1534     1.0  0.53858  0.63852  0.85785  1.0000
  H   H1531     1.0  0.57040  0.61669  0.88034  1.0000
  H   H1532     1.0  0.55202  0.59487  0.88997  1.0000
  H   H1533     1.0  0.51636  0.62899  0.85864  1.0000
  H   H1534     1.0  0.53488  0.65061  0.84873  1.0000
  C   C1535     1.0  0.62847  0.73719  0.85824  1.0000
  H   H1535     1.0  0.43416  0.61986  0.96022  1.0000
  C   C1536     1.0  0.57263  0.84031  0.95207  1.0000
  C   C1537     1.0  0.62023  0.70442  0.87407  1.0000
  C   C1538     1.0  0.61546  0.71754  0.88341  1.0000
  C   C1539     1.0  0.61960  0.73381  0.87557  1.0000
  H   H1536     1.0  0.60852  0.71513  0.89681  1.0000
  H   H1537     1.0  0.61623  0.74362  0.88307  1.0000
  C   C1540     1.0  0.59510  0.79064  0.93534  1.0000
  C   C1541     1.0  0.60750  0.80072  0.92751  1.0000
  C   C1542     1.0  0.61349  0.80803  0.93772  1.0000
  C   C1543     1.0  0.60676  0.80565  0.95568  1.0000
  C   C1544     1.0  0.59481  0.79508  0.96348  1.0000
  H   H1538     1.0  0.56721  0.74782  0.87823  1.0000
  H   H1539     1.0  0.61246  0.80295  0.91360  1.0000
  H   H1540     1.0  0.62310  0.81581  0.93161  1.0000
  C   C1545     1.0  0.45328  0.70179  0.89158  1.0000
  C   C1546     1.0  0.45975  0.70740  0.87379  1.0000
  C   C1547     1.0  0.46235  0.69646  0.86241  1.0000
  C   C1548     1.0  0.45880  0.67979  0.86883  1.0000
  C   C1549     1.0  0.45232  0.67422  0.88661  1.0000
  C   C1550     1.0  0.44941  0.68526  0.89791  1.0000
  H   H1541     1.0  0.46276  0.72014  0.86881  1.0000
  H   H1542     1.0  0.46735  0.70082  0.84866  1.0000
  H   H1543     1.0  0.44937  0.66147  0.89165  1.0000
  H   H1544     1.0  0.44437  0.68086  0.91165  1.0000
  C   C1551     1.0  0.52747  0.76127  0.89209  1.0000
  C   C1552     1.0  0.53811  0.76897  0.89680  1.0000
  C   C1553     1.0  0.54617  0.78151  0.88442  1.0000
  C   C1554     1.0  0.54411  0.78585  0.86722  1.0000
  C   C1555     1.0  0.53382  0.77780  0.86245  1.0000
  C   C1556     1.0  0.52528  0.76570  0.87496  1.0000
  H   H1545     1.0  0.53983  0.76556  0.91004  1.0000
  H   H1546     1.0  0.55384  0.78797  0.88825  1.0000
  H   H1547     1.0  0.53253  0.78070  0.84912  1.0000
  H   H1548     1.0  0.51712  0.75966  0.87127  1.0000
  C   C1557     1.0  0.46286  0.83860  0.81442  1.0000
  C   C1558     1.0  0.47514  0.82707  0.80501  1.0000
  C   C1559     1.0  0.48028  0.80947  0.81312  1.0000
  C   C1560     1.0  0.47313  0.80321  0.83064  1.0000
  C   C1561     1.0  0.46099  0.81473  0.84015  1.0000
  C   C1562     1.0  0.45586  0.83239  0.83203  1.0000
  H   H1549     1.0  0.48075  0.83166  0.79152  1.0000
  H   H1550     1.0  0.48976  0.80061  0.80573  1.0000
  H   H1551     1.0  0.45540  0.81000  0.85369  1.0000
  H   H1552     1.0  0.44639  0.84124  0.83943  1.0000
  C   C1563     1.0  0.62164  0.87631  0.80107  1.0000
  C   C1564     1.0  0.61105  0.88498  0.81397  1.0000
  C   C1565     1.0  0.60683  0.87559  0.83119  1.0000
  C   C1566     1.0  0.61273  0.85743  0.83551  1.0000
  C   C1567     1.0  0.62312  0.84869  0.82257  1.0000
  C   C1568     1.0  0.62777  0.85816  0.80545  1.0000
  H   H1553     1.0  0.60656  0.89898  0.81082  1.0000
  H   H1554     1.0  0.59892  0.88244  0.84117  1.0000
  H   H1555     1.0  0.50749  0.65546  0.87694  1.0000
  H   H1556     1.0  0.62791  0.83471  0.82584  1.0000
  C   C1569     1.0  0.54346  0.90398  0.76918  1.0000
  C   C1570     1.0  0.52968  0.89588  0.77781  1.0000
  C   C1571     1.0  0.52575  0.88440  0.77049  1.0000
  C   C1572     1.0  0.45752  0.57305  0.98131  1.0000
  H   H1557     1.0  0.34733  0.49750  0.82904  1.0000
  C   C1573     1.0  0.55363  0.90024  0.75337  1.0000
  H   H1558     1.0  0.46191  0.82669  0.75145  1.0000
  H   H1559     1.0  0.51523  0.87810  0.77736  1.0000
  H   H1560     1.0  0.57910  0.83965  0.96259  1.0000
  H   H1561     1.0  0.45408  0.62323  0.97607  1.0000
  C   C1574     1.0  0.61272  0.66675  0.92879  1.0000
  H   H1562     1.0  0.34025  0.54294  0.83291  1.0000
  C   C1575     1.0  0.50306  0.65657  0.89038  1.0000
  C   C1576     1.0  0.65388  0.56474  0.91976  1.0000
  H   H1563     1.0  0.44946  0.82122  0.93831  1.0000
  C   C1577     1.0  0.50031  0.64377  0.92105  1.0000
  C   C1578     1.0  0.63840  0.65088  0.94107  1.0000
  C   C1579     1.0  0.42364  0.84674  0.79808  1.0000
  H   H1564     1.0  0.57488  0.70885  0.89820  1.0000
  N   N126      1.0  0.51001  0.82401  0.82907  1.0000
  C   C1580     1.0  0.49993  0.83933  0.82190  1.0000
  C   C1581     1.0  0.52543  0.81681  0.81942  1.0000
  C   C1582     1.0  0.50486  0.84748  0.80444  1.0000
  C   C1583     1.0  0.53081  0.82465  0.80193  1.0000
  C   C1584     1.0  0.52035  0.83999  0.79436  1.0000
  C   C1585     1.0  0.50433  0.81499  0.84710  1.0000
  H   H1565     1.0  0.48770  0.84513  0.82949  1.0000
  H   H1566     1.0  0.53363  0.80488  0.82521  1.0000
  H   H1567     1.0  0.49646  0.85930  0.79872  1.0000
  H   H1568     1.0  0.54295  0.81879  0.79427  1.0000
  H   H1569     1.0  0.52422  0.84600  0.78070  1.0000
  H   H1570     1.0  0.49147  0.82195  0.85338  1.0000
  H   H1571     1.0  0.50303  0.80175  0.84745  1.0000
  H   H1572     1.0  0.51395  0.81376  0.85486  1.0000
  C   C1586     1.0  0.44122  0.81686  0.80046  1.0000
  C   C1587     1.0  0.45375  0.62360  0.82046  1.0000
  N   N127      1.0  0.43673  0.83316  0.79034  1.0000
  C   C1588     1.0  0.43354  0.70899  0.96965  1.0000
  H   H1573     1.0  0.42400  0.61355  0.83699  1.0000
  S   S544      1.0  0.51150  0.80480  0.98204  1.0000
  C   C1589     1.0  0.61766  0.98101  0.77345  1.0000
  C   C1590     1.0  0.47607  0.93901  0.76296  1.0000
  C   C1591     1.0  0.55380  0.75896  0.95950  1.0000
  H   H1574     1.0  0.34733  0.53489  0.81321  1.0000
  H   H1575     1.0  0.65358  0.62195  0.90757  1.0000
  C   C1592     1.0  0.48594  0.80122  0.95366  1.0000
  H   H1576     1.0  0.55428  0.72377  0.89536  1.0000
  H   H1577     1.0  0.61312  0.73094  0.96075  1.0000
  C   C1593     1.0  0.48377  0.97084  0.74295  1.0000
  S   S545      1.0  0.52852  0.86911  0.74396  1.0000
  H   H1578     1.0  0.46009  0.76739  0.97477  1.0000
  H   H1579     1.0  0.56026  0.70362  0.88855  1.0000
  C   C1594     1.0  0.42514  0.74459  0.95601  1.0000
  C   C1595     1.0  0.51056  0.97143  0.80359  1.0000
  C   C1596     1.0  0.52736  0.96224  0.79781  1.0000
  C   C1597     1.0  0.43611  0.78658  0.97887  1.0000
  H   H1580     1.0  0.61482  0.75225  0.94815  1.0000
  C   C1598     1.0  0.60540  0.85022  0.90203  1.0000
  C   C1599     1.0  0.33403  0.50415  0.83324  1.0000
  C   C1600     1.0  0.63423  0.64310  0.91703  1.0000
  S   S546      1.0  0.58438  0.97630  0.77936  1.0000
  S   S547      1.0  0.49949  0.97430  0.76706  1.0000
  H   H1581     1.0  0.41952  0.59998  0.98273  1.0000
  C   C1601     1.0  0.54716  0.77029  0.97081  1.0000
  C   C1602     1.0  0.53860  0.98552  0.79997  1.0000
  C   C1603     1.0  0.47182  0.94572  0.74663  1.0000
  C   C1604     1.0  0.45352  0.80366  0.79325  1.0000
  N   N128      1.0  0.49069  0.65935  0.92481  1.0000
  H   H1582     1.0  0.63423  0.73499  0.94896  1.0000
  H   H1583     1.0  0.51557  0.77014  0.93444  1.0000
  H   H1584     1.0  0.41406  0.76409  0.97850  1.0000
  C   C1605     1.0  0.33788  0.53193  0.96520  1.0000
  S   S548      1.0  0.57618  0.95276  0.75112  1.0000
  H   H1585     1.0  0.61379  0.85257  0.88920  1.0000
  H   H1586     1.0  0.58811  0.84057  0.89357  1.0000
  H   H1587     1.0  0.50976  0.78376  0.95963  1.0000
  S   S549      1.0  0.60417  0.67189  0.97508  1.0000
  H   H1588     1.0  0.41239  0.80851  0.94801  1.0000
  H   H1589     1.0  0.51394  0.62964  0.90089  1.0000
  H   H1590     1.0  0.46343  0.57733  0.96774  1.0000
  N   N129      1.0  0.54503  0.73554  0.98260  1.0000
  C   C1606     1.0  0.50091  0.78812  0.95081  1.0000
  C   C1607     1.0  0.47808  0.79969  0.92845  1.0000
  N   N130      1.0  0.60366  0.61684  0.82728  1.0000
  C   C1608     1.0  0.61891  0.60454  0.82668  1.0000
  C   C1609     1.0  0.58840  0.61237  0.83665  1.0000
  C   C1610     1.0  0.61938  0.58754  0.83665  1.0000
  C   C1611     1.0  0.58831  0.59543  0.84660  1.0000
  C   C1612     1.0  0.60395  0.58303  0.84676  1.0000
  C   C1613     1.0  0.60359  0.63475  0.81730  1.0000
  H   H1591     1.0  0.63088  0.60791  0.81868  1.0000
  H   H1592     1.0  0.57623  0.62198  0.83663  1.0000
  H   H1593     1.0  0.47947  0.68595  0.91461  1.0000
  H   H1594     1.0  0.57618  0.59207  0.85429  1.0000
  H   H1595     1.0  0.60410  0.56994  0.85468  1.0000
  H   H1596     1.0  0.59303  0.64422  0.82380  1.0000
  H   H1597     1.0  0.61599  0.63830  0.81635  1.0000
  H   H1598     1.0  0.60177  0.63617  0.80402  1.0000
  H   H1599     1.0  0.48335  0.80691  0.96482  1.0000
  H   H1600     1.0  0.63428  0.65897  0.95050  1.0000
  C   C1614     1.0  0.58033  0.84023  0.92106  1.0000
  C   C1615     1.0  0.62948  0.70754  0.85684  1.0000
  C   C1616     1.0  0.59094  0.84345  0.90448  1.0000
  S   S550      1.0  0.49149  0.61744  0.96885  1.0000
  Fe  Fe270     1.0  0.46740  0.87206  0.73888  1.0000
  N   N131      1.0  0.43905  0.63248  0.83199  1.0000
  C   C1617     1.0  0.42467  0.62562  0.83949  1.0000
  C   C1618     1.0  0.44012  0.64735  0.83568  1.0000
  C   C1619     1.0  0.41085  0.63372  0.85096  1.0000
  C   C1620     1.0  0.42645  0.65591  0.84693  1.0000
  C   C1621     1.0  0.41175  0.64899  0.85464  1.0000
  H   H1601     1.0  0.60018  0.74401  0.82836  1.0000
  H   H1602     1.0  0.45175  0.65250  0.83021  1.0000
  H   H1603     1.0  0.39970  0.62792  0.85720  1.0000
  H   H1604     1.0  0.42757  0.66749  0.85008  1.0000
  H   H1605     1.0  0.40127  0.65524  0.86376  1.0000
  H   H1606     1.0  0.58312  0.76182  0.84988  1.0000
  N   N132      1.0  0.40581  0.57699  0.93148  1.0000
  C   C1622     1.0  0.40041  0.58636  0.94414  1.0000
  C   C1623     1.0  0.39446  0.56971  0.92791  1.0000
  C   C1624     1.0  0.38325  0.58867  0.95357  1.0000
  C   C1625     1.0  0.37718  0.57185  0.93703  1.0000
  C   C1626     1.0  0.37159  0.58140  0.94994  1.0000
  C   C1627     1.0  0.42370  0.57539  0.92139  1.0000
  H   H1607     1.0  0.40940  0.59210  0.94704  1.0000
  H   H1608     1.0  0.39861  0.56236  0.91781  1.0000
  H   H1609     1.0  0.37910  0.59591  0.96376  1.0000
  H   H1610     1.0  0.36818  0.56620  0.93403  1.0000
  H   H1611     1.0  0.35826  0.58309  0.95717  1.0000
  H   H1612     1.0  0.42553  0.58831  0.91310  1.0000
  H   H1613     1.0  0.43299  0.57087  0.93022  1.0000
  H   H1614     1.0  0.42704  0.56608  0.91280  1.0000
  N   N133      1.0  0.58869  0.86363  0.79166  1.0000
  C   C1628     1.0  0.57862  0.87980  0.79310  1.0000
  C   C1629     1.0  0.58966  0.85034  0.80612  1.0000
  C   C1630     1.0  0.56897  0.88294  0.80926  1.0000
  C   C1631     1.0  0.58014  0.85301  0.82250  1.0000
  C   C1632     1.0  0.56980  0.86944  0.82405  1.0000
  H   H1615     1.0  0.57813  0.89043  0.78175  1.0000
  H   H1616     1.0  0.59822  0.83772  0.80515  1.0000
  H   H1617     1.0  0.56115  0.89587  0.81024  1.0000
  H   H1618     1.0  0.58130  0.84259  0.83401  1.0000
  H   H1619     1.0  0.56280  0.87179  0.83675  1.0000
  H   H1620     1.0  0.47852  0.67411  0.94448  1.0000
  H   H1621     1.0  0.46026  0.76985  0.94378  1.0000
  H   H1622     1.0  0.63616  0.85141  0.79556  1.0000
  C   C1633     1.0  0.65379  0.63802  0.94141  1.0000
  C   C1634     1.0  0.49289  0.78652  0.92529  1.0000
  S   S551      1.0  0.54688  0.91952  0.77797  1.0000
  N   N134      1.0  0.33012  0.52149  0.83326  1.0000
  C   C1635     1.0  0.43638  0.78947  0.94375  1.0000
  H   H1623     1.0  0.49965  0.96606  0.80440  1.0000
  C   C1636     1.0  0.44979  0.77775  0.95138  1.0000
  C   C1637     1.0  0.50425  0.78060  0.93664  1.0000
  H   H1624     1.0  0.53602  0.95533  0.75025  1.0000
  H   H1625     1.0  0.41186  0.80552  0.97896  1.0000
  C   C1638     1.0  0.42283  0.79949  0.95378  1.0000
  H   H1626     1.0  0.60077  0.84733  0.77349  1.0000
  N   N135      1.0  0.57422  0.72272  0.87232  1.0000
  C   C1639     1.0  0.58344  0.71284  0.86046  1.0000
  C   C1640     1.0  0.57409  0.74009  0.86867  1.0000
  C   C1641     1.0  0.59266  0.72039  0.84435  1.0000
  C   C1642     1.0  0.58312  0.74807  0.85267  1.0000
  C   C1643     1.0  0.59256  0.73810  0.84052  1.0000
  C   C1644     1.0  0.56547  0.71436  0.88948  1.0000
  H   H1627     1.0  0.58418  0.69891  0.86364  1.0000
  S   S552      1.0  0.33732  0.55493  0.89292  1.0000
  H   H1628     1.0  0.42433  0.84524  0.81181  1.0000
  H   H1629     1.0  0.48763  0.94277  0.78184  1.0000
  H   H1630     1.0  0.46473  0.61742  0.82721  1.0000
  C   C1645     1.0  0.44980  0.77652  0.96888  1.0000
  Fe  Fe271     1.0  0.59221  0.95151  0.76975  1.0000
  H   H1631     1.0  0.65714  0.59973  0.86010  1.0000
  Fe  Fe272     1.0  0.46834  0.90515  0.74794  1.0000
  N   N136      1.0  0.50786  0.98722  0.80758  1.0000
  H   H1632     1.0  0.49787  0.60225  0.93950  1.0000
  C   C1646     1.0  0.58910  0.78753  0.95338  1.0000
  S   S553      1.0  0.33827  0.52195  0.87682  1.0000
  H   H1633     1.0  0.41047  0.84613  0.79761  1.0000
  H   H1634     1.0  0.47256  0.65355  0.94835  1.0000
  C   C1647     1.0  0.45893  0.82022  0.94618  1.0000
  H   H1635     1.0  0.49349  0.65406  0.95093  1.0000
  S   S554      1.0  0.58674  0.78176  0.92311  1.0000
  H   H1636     1.0  0.43568  0.81410  0.81431  1.0000
  H   H1637     1.0  0.42597  0.85992  0.79114  1.0000
  C   C1648     1.0  0.53533  0.88120  0.75435  1.0000
  N   N137      1.0  0.47461  0.80663  0.94270  1.0000
  C   C1649     1.0  0.43405  0.71511  0.95187  1.0000
  S   S555      1.0  0.33088  0.56484  0.97109  1.0000
  Fe  Fe273     1.0  0.49940  0.87489  0.74872  1.0000
  C   C1650     1.0  0.59814  0.85048  0.93256  1.0000
  H   H1638     1.0  0.35590  0.52286  0.83237  1.0000
  H   H1639     1.0  0.34458  0.52745  0.97585  1.0000
  S   S556      1.0  0.61733  0.93884  0.75426  1.0000
  H   H1640     1.0  0.56915  0.82753  0.95479  1.0000
  H   H1641     1.0  0.44012  0.84946  0.76479  1.0000
  C   C1651     1.0  0.59932  0.86083  0.77471  1.0000
  C   C1652     1.0  0.34406  0.53101  0.82761  1.0000
  H   H1642     1.0  0.48704  0.98295  0.73506  1.0000
  C   C1653     1.0  0.44384  0.83663  0.77291  1.0000
  N   N138      1.0  0.62874  0.65313  0.92909  1.0000
  C   C1654     1.0  0.45617  0.82375  0.76527  1.0000
  H   H1643     1.0  0.59340  0.86988  0.76388  1.0000
  C   C1655     1.0  0.49348  0.67246  0.89432  1.0000
  H   H1644     1.0  0.63335  0.69743  0.84959  1.0000
  H   H1645     1.0  0.45802  0.63296  0.80833  1.0000
  C   C1656     1.0  0.47731  0.61343  0.95867  1.0000
  H   H1646     1.0  0.56061  0.85079  0.95275  1.0000
  H   H1647     1.0  0.57995  0.77930  0.95958  1.0000
  H   H1648     1.0  0.64071  0.72639  0.83561  1.0000
  Fe  Fe274     1.0  0.60080  0.93840  0.73669  1.0000
  C   C1657     1.0  0.62666  0.76112  0.97028  1.0000
  H   H1649     1.0  0.61242  0.86312  0.77313  1.0000
  C   C1658     1.0  0.50662  0.64212  0.90381  1.0000
  H   H1650     1.0  0.49550  0.78074  0.91424  1.0000
  C   C1659     1.0  0.52536  0.93845  0.74225  1.0000
  C   C1660     1.0  0.42258  0.79788  0.97128  1.0000
  H   H1651     1.0  0.51792  0.93448  0.75523  1.0000
  H   H1652     1.0  0.45044  0.61303  0.81687  1.0000
  H   H1653     1.0  0.46913  0.80393  0.91971  1.0000
  C   C1661     1.0  0.46109  0.80719  0.77555  1.0000
  H   H1654     1.0  0.45744  0.79092  0.80147  1.0000
  H   H1655     1.0  0.55998  0.76363  0.94609  1.0000
  H   H1656     1.0  0.39869  0.48860  0.89193  1.0000
  H   H1657     1.0  0.60392  0.63199  0.96579  1.0000
  H   H1658     1.0  0.56411  0.90671  0.74645  1.0000
  H   H1659     1.0  0.60477  0.66671  0.94210  1.0000
  H   H1660     1.0  0.47285  0.92693  0.77090  1.0000
  C   C1662     1.0  0.48343  0.66040  0.94302  1.0000
  S   S557      1.0  0.38398  0.50180  0.85133  1.0000
  H   H1661     1.0  0.52940  0.94989  0.79432  1.0000
  C   C1663     1.0  0.62150  0.74056  0.95665  1.0000
  H   H1662     1.0  0.62039  0.85887  0.91442  1.0000
  Fe  Fe275     1.0  0.33582  0.55081  0.86766  1.0000
  C   C1664     1.0  0.48807  0.96404  0.75929  1.0000
  H   H1663     1.0  0.47080  0.79714  0.76983  1.0000
  H   H1664     1.0  0.52185  0.89867  0.79009  1.0000
  N   N139      1.0  0.62399  0.74500  0.97176  1.0000
  N   N140      1.0  0.58408  0.84364  0.93486  1.0000
  H   H1665     1.0  0.42212  0.75850  0.95045  1.0000
  N   N141      1.0  0.42437  0.73844  0.97350  1.0000
  H   H1666     1.0  0.60130  0.85291  0.94355  1.0000
  C   C1665     1.0  0.54959  0.88878  0.74597  1.0000
  S   S558      1.0  0.56978  0.65415  0.96401  1.0000
  H   H1667     1.0  0.62722  0.77051  0.95792  1.0000
  H   H1668     1.0  0.54751  0.63008  0.97152  1.0000
  H   H1669     1.0  0.43778  0.70603  0.94340  1.0000
  C   C1666     1.0  0.33003  0.54959  0.96034  1.0000
  H   H1670     1.0  0.62646  0.64487  0.90768  1.0000
  H   H1671     1.0  0.43030  0.73786  0.93112  1.0000
  H   H1672     1.0  0.64543  0.58935  0.93757  1.0000
  H   H1673     1.0  0.34418  0.50660  0.95921  1.0000
  H   H1674     1.0  0.46240  0.83303  0.94318  1.0000
  S   S559      1.0  0.46166  0.93440  0.73853  1.0000
  H   H1675     1.0  0.44112  0.55967  0.97595  1.0000
  C   C1667     1.0  0.47580  0.96159  0.73658  1.0000
  H   H1676     1.0  0.50868  0.91484  0.74585  1.0000
  H   H1677     1.0  0.43700  0.69510  0.97519  1.0000
  C   C1668     1.0  0.42860  0.72091  0.98033  1.0000
  H   H1678     1.0  0.52150  0.61741  0.98012  1.0000
  Fe  Fe276     1.0  0.58267  0.65793  0.98290  1.0000
  C   C1669     1.0  0.32955  0.52610  0.94155  1.0000
  C   C1670     1.0  0.64953  0.63009  0.91699  1.0000
  C   C1671     1.0  0.54145  0.96929  0.79612  1.0000
  H   H1679     1.0  0.63956  0.56966  0.92288  1.0000
  H   H1680     1.0  0.64337  0.98556  0.76866  1.0000
  C   C1672     1.0  0.33754  0.52012  0.95586  1.0000
  C   C1673     1.0  0.65598  0.57881  0.94148  1.0000
  H   H1681     1.0  0.55295  0.70887  0.98066  1.0000
  H   H1682     1.0  0.55454  0.96227  0.79163  1.0000
  H   H1683     1.0  0.62974  0.77893  0.98365  1.0000
  H   H1684     1.0  0.58179  0.75176  0.98368  1.0000
  C   C1674     1.0  0.54494  0.62115  0.98402  1.0000
  C   C1675     1.0  0.80086  0.38640  0.04323  1.0000
  H   H1685     1.0  0.95607  0.40960  0.15540  1.0000
  C   C1676     1.0  0.80422  0.48182  0.00110  1.0000
  Fe  Fe277     1.0  0.76804  0.37572  0.99203  1.0000
  S   S560      1.0  0.74449  0.38279  0.01242  1.0000
  S   S561      1.0  0.79145  0.35484  0.99781  1.0000
  Fe  Fe278     1.0  0.72904  0.38189  0.99401  1.0000
  S   S562      1.0  0.70484  0.37081  0.00445  1.0000
  Fe  Fe279     1.0  0.74458  0.41023  0.99735  1.0000
  S   S563      1.0  0.73998  0.43098  0.01210  1.0000
  H   H1686     1.0  0.79259  0.47773  0.00165  1.0000
  C   C1677     1.0  0.96141  0.35477  0.19696  1.0000
  H   H1687     1.0  0.81818  0.47987  0.08520  1.0000
  H   H1688     1.0  0.92342  0.46990  0.98634  1.0000
  Fe  Fe280     1.0  0.85367  0.40028  0.01554  1.0000
  S   S564      1.0  0.87742  0.40719  0.99613  1.0000
  S   S565      1.0  0.84860  0.37338  0.02324  1.0000
  Fe  Fe281     1.0  0.84003  0.43613  0.02299  1.0000
  S   S566      1.0  0.86213  0.44617  0.00381  1.0000
  S   S567      1.0  0.81839  0.45147  0.03987  1.0000
  C   C1678     1.0  0.97928  0.33912  0.21789  1.0000
  N   N142      1.0  0.78614  0.38613  0.03866  1.0000
  Fe  Fe282     1.0  0.87886  0.42114  0.01557  1.0000
  S   S568      1.0  0.90244  0.42584  0.02117  1.0000
  S   S569      1.0  0.83472  0.42365  0.00465  1.0000
  S   S570      1.0  0.85684  0.41205  0.03582  1.0000
  H   H1689     1.0  0.98980  0.32860  0.22197  1.0000
  C   C1679     1.0  0.97484  0.34105  0.20209  1.0000
  C   C1680     1.0  0.79439  0.41781  0.03479  1.0000
  H   H1690     1.0  0.96063  0.45708  0.19724  1.0000
  H   H1691     1.0  0.98197  0.33213  0.19366  1.0000
  H   H1692     1.0  0.79769  0.43016  0.03320  1.0000
  H   H1693     1.0  0.76353  0.40120  0.02900  1.0000
  H   H1694     1.0  0.67555  0.20692  0.01311  1.0000
  C   C1681     1.0  0.97088  0.40731  0.19122  1.0000
  H   H1695     1.0  0.78788  0.48120  0.03663  1.0000
  H   H1696     1.0  0.93995  0.47053  0.13489  1.0000
  H   H1697     1.0  0.94187  0.47704  0.07426  1.0000
  H   H1698     1.0  0.67665  0.35347  0.01333  1.0000
  Fe  Fe283     1.0  0.98703  0.40881  0.08967  1.0000
  C   C1682     1.0  0.67905  0.23936  0.00847  1.0000
  H   H1699     1.0  0.89710  0.46297  0.08844  1.0000
  Fe  Fe284     1.0  0.95183  0.42693  0.10693  1.0000
  S   S571      1.0  0.94288  0.40220  0.12018  1.0000
  S   S572      1.0  0.93644  0.45321  0.11059  1.0000
  C   C1683     1.0  0.97016  0.35099  0.22837  1.0000
  H   H1700     1.0  0.95713  0.44730  0.22929  1.0000
  H   H1701     1.0  0.80050  0.38822  0.99286  1.0000
  Fe  Fe285     1.0  0.95477  0.39533  0.09408  1.0000
  S   S573      1.0  0.93978  0.38267  0.08362  1.0000
  Fe  Fe286     1.0  0.96972  0.39179  0.12565  1.0000
  S   S574      1.0  0.96198  0.42100  0.08059  1.0000
  S   S575      1.0  0.97746  0.41732  0.11479  1.0000
  H   H1702     1.0  0.66874  0.23533  0.01975  1.0000
  C   C1684     1.0  0.89267  0.41900  0.08395  1.0000
  C   C1685     1.0  0.96133  0.41389  0.17806  1.0000
  H   H1703     1.0  0.95826  0.35674  0.18441  1.0000
  N   N143      1.0  0.88430  0.43427  0.07475  1.0000
  C   C1686     1.0  0.95296  0.48442  0.19766  1.0000
  H   H1704     1.0  0.91029  0.40698  0.10148  1.0000
  H   H1705     1.0  0.80958  0.37433  0.04799  1.0000
  C   C1687     1.0  0.67998  0.21292  0.99959  1.0000
  H   H1706     1.0  0.96891  0.45633  0.08681  1.0000
  H   H1707     1.0  0.85006  0.46353  0.02948  1.0000
  N   N144      1.0  0.95692  0.36435  0.22328  1.0000
  H   H1708     1.0  0.95289  0.38909  0.22860  1.0000
  H   H1709     1.0  0.87869  0.46204  0.06942  1.0000
  H   H1710     1.0  0.96396  0.48262  0.13579  1.0000
  C   C1688     1.0  0.96759  0.46253  0.09727  1.0000
  H   H1711     1.0  0.98972  0.42399  0.15220  1.0000
  C   C1689     1.0  0.96372  0.40455  0.16532  1.0000
  H   H1712     1.0  0.89153  0.40655  0.08280  1.0000
  C   C1690     1.0  0.90324  0.41916  0.09466  1.0000
  H   H1713     1.0  0.77070  0.42945  0.02528  1.0000
  C   C1691     1.0  0.95266  0.36649  0.20769  1.0000
  C   C1692     1.0  0.77533  0.40137  0.03243  1.0000
  C   C1693     1.0  0.98308  0.39146  0.19140  1.0000
  C   C1694     1.0  0.90496  0.43506  0.09618  1.0000
  H   H1714     1.0  0.79292  0.35840  0.04169  1.0000
  H   H1715     1.0  0.77615  0.36953  0.02999  1.0000
  H   H1716     1.0  0.86223  0.47960  0.04243  1.0000
  C   C1695     1.0  0.98554  0.38215  0.17860  1.0000
  Fe  Fe287     1.0  0.85844  0.43146  0.98651  1.0000
  H   H1717     1.0  0.85958  0.43871  0.06889  1.0000
  C   C1696     1.0  0.91261  0.41343  0.03853  1.0000
  C   C1697     1.0  0.90970  0.39698  0.04772  1.0000
  C   C1698     1.0  0.91842  0.38747  0.06127  1.0000
  C   C1699     1.0  0.92980  0.39449  0.06591  1.0000
  C   C1700     1.0  0.93253  0.41101  0.05678  1.0000
  C   C1701     1.0  0.92406  0.42037  0.04310  1.0000
  H   H1718     1.0  0.90099  0.39146  0.04421  1.0000
  H   H1719     1.0  0.91627  0.37468  0.06824  1.0000
  H   H1720     1.0  0.94125  0.41654  0.06015  1.0000
  H   H1721     1.0  0.92640  0.43307  0.03603  1.0000
  H   H1722     1.0  0.68010  0.19059  0.99053  1.0000
  C   C1702     1.0  0.97926  0.47789  0.11102  1.0000
  C   C1703     1.0  0.84997  0.47608  0.04900  1.0000
  S   S576      1.0  0.96715  0.41920  0.20720  1.0000
  C   C1704     1.0  0.77931  0.41742  0.03033  1.0000
  C   C1705     1.0  0.88564  0.44994  0.07642  1.0000
  H   H1723     1.0  0.77150  0.36726  0.05328  1.0000
  C   C1706     1.0  0.95445  0.46113  0.22329  1.0000
  H   H1724     1.0  0.91321  0.43534  0.10437  1.0000
  C   C1707     1.0  0.96469  0.47770  0.12468  1.0000
  C   C1708     1.0  0.84310  0.46683  0.04164  1.0000
  C   C1709     1.0  0.95264  0.46313  0.11054  1.0000
  H   H1725     1.0  0.80569  0.46384  0.07177  1.0000
  C   C1710     1.0  0.82711  0.46247  0.04970  1.0000
  C   C1711     1.0  0.81809  0.46717  0.06545  1.0000
  S   S577      1.0  0.98099  0.38236  0.10082  1.0000
  C   C1712     1.0  0.95642  0.46662  0.20527  1.0000
  H   H1726     1.0  0.95191  0.42619  0.17780  1.0000
  C   C1713     1.0  0.81898  0.47790  0.98821  1.0000
  H   H1727     1.0  0.90530  0.46131  0.00028  1.0000
  S   S578      1.0  0.97783  0.37598  0.15071  1.0000
  H   H1728     1.0  0.67423  0.25356  0.00358  1.0000
  C   C1714     1.0  0.68480  0.35062  0.00120  1.0000
  C   C1715     1.0  0.70004  0.35699  0.99417  1.0000
  H   H1729     1.0  0.66789  0.33640  0.99775  1.0000
  C   C1716     1.0  0.78143  0.36951  0.04111  1.0000
  C   C1717     1.0  0.91668  0.45910  0.98943  1.0000
  C   C1718     1.0  0.87352  0.43401  0.06328  1.0000
  C   C1719     1.0  0.74367  0.45114  0.99903  1.0000
  C   C1720     1.0  0.97570  0.38856  0.16567  1.0000
  C   C1721     1.0  0.82519  0.47611  0.07310  1.0000
  C   C1722     1.0  0.80528  0.40221  0.04124  1.0000
  C   C1723     1.0  0.98078  0.47020  0.09734  1.0000
  C   C1724     1.0  0.73689  0.46617  0.00576  1.0000
  H   H1730     1.0  0.92571  0.44669  0.99400  1.0000
  C   C1725     1.0  0.84105  0.48076  0.06471  1.0000
  H   H1731     1.0  0.72936  0.46527  0.01894  1.0000
  C   C1726     1.0  0.80792  0.36061  0.00336  1.0000
  C   C1727     1.0  0.81956  0.34744  0.01213  1.0000
  C   C1728     1.0  0.83219  0.35156  0.01778  1.0000
  C   C1729     1.0  0.83364  0.36884  0.01429  1.0000
  C   C1730     1.0  0.82242  0.38202  0.00490  1.0000
  C   C1731     1.0  0.80938  0.37795  0.99967  1.0000
  H   H1732     1.0  0.81853  0.33401  0.01498  1.0000
  H   H1733     1.0  0.84082  0.34130  0.02500  1.0000
  H   H1734     1.0  0.82344  0.39538  0.00206  1.0000
  H   H1735     1.0  0.87543  0.42073  0.06119  1.0000
  Fe  Fe288     1.0  0.97813  0.40643  0.23136  1.0000
  H   H1736     1.0  0.81721  0.40231  0.04445  1.0000
  C   C1732     1.0  0.67983  0.34092  0.99242  1.0000
  C   C1733     1.0  0.89600  0.45057  0.08714  1.0000
  H   H1737     1.0  0.94272  0.37755  0.20328  1.0000
  C   C1734     1.0  0.73936  0.48246  0.99531  1.0000
  H   H1738     1.0  0.87709  0.44247  0.05023  1.0000
  H   H1739     1.0  0.69120  0.23726  0.01295  1.0000
  C   C1735     1.0  0.95121  0.47064  0.12429  1.0000
  N   N145      1.0  0.68208  0.22970  0.99497  1.0000
  C   C1736     1.0  0.68264  0.20356  0.98688  1.0000
  C   C1737     1.0  0.83408  0.48279  0.98766  1.0000
  H   H1740     1.0  0.90668  0.43250  0.98561  1.0000
  C   C1738     1.0  0.94905  0.47357  0.23348  1.0000
  H   H1741     1.0  0.99063  0.38636  0.20137  1.0000
  C   C1739     1.0  0.94782  0.37705  0.23406  1.0000
  H   H1742     1.0  0.78705  0.08761  0.46210  1.0000
  C   C1740     1.0  0.85499  0.08507  0.37528  1.0000
  S   S579      1.0  0.95930  0.40147  0.25684  1.0000
  C   C1741     1.0  0.95848  0.17178  0.42016  1.0000
  H   H1743     1.0  0.68494  0.99595  0.34533  1.0000
  H   H1744     1.0  0.69942  0.02474  0.29956  1.0000
  C   C1742     1.0  0.78378  0.08940  0.47531  1.0000
  Fe  Fe289     1.0  0.97873  0.37647  0.26351  1.0000
  S   S580      1.0  0.96909  0.35165  0.27598  1.0000
  H   H1745     1.0  0.93095  0.20330  0.40040  1.0000
  C   C1743     1.0  0.66090  0.07874  0.30369  1.0000
  C   C1744     1.0  0.94786  0.15734  0.44974  1.0000
  C   C1745     1.0  0.98092  0.11331  0.43648  1.0000
  C   C1746     1.0  0.98394  0.30803  0.31204  1.0000
  H   H1746     1.0  0.98856  0.41832  0.30772  1.0000
  Fe  Fe290     1.0  0.97472  0.41373  0.26665  1.0000
  C   C1747     1.0  0.98678  0.17269  0.34876  1.0000
  H   H1747     1.0  0.83391  0.04594  0.32731  1.0000
  S   S581      1.0  0.86983  0.07724  0.47636  1.0000
  S   S582      1.0  0.96669  0.22468  0.36548  1.0000
  S   S583      1.0  0.89433  0.99833  0.40498  1.0000
  S   S584      1.0  0.97649  0.26932  0.36263  1.0000
  Fe  Fe291     1.0  0.95865  0.12408  0.39761  1.0000
  S   S585      1.0  0.95585  0.12615  0.37065  1.0000
  H   H1748     1.0  0.90038  0.00728  0.45494  1.0000
  Fe  Fe292     1.0  0.98565  0.24043  0.36396  1.0000
  Fe  Fe293     1.0  0.98266  0.13176  0.36281  1.0000
  H   H1749     1.0  0.87770  0.09102  0.39987  1.0000
  H   H1750     1.0  0.70535  0.05360  0.26388  1.0000
  C   C1748     1.0  0.74889  0.02030  0.42844  1.0000
  N   N146      1.0  0.66746  0.07083  0.28852  1.0000
  S   S586      1.0  0.96244  0.07438  0.37243  1.0000
  C   C1749     1.0  0.84098  0.00571  0.31950  1.0000
  S   S587      1.0  0.69525  0.04337  0.47504  1.0000
  Fe  Fe294     1.0  0.72062  0.02906  0.34913  1.0000
  H   H1751     1.0  0.97381  0.34950  0.24057  1.0000
  S   S588      1.0  0.71309  0.03456  0.32318  1.0000
  Fe  Fe295     1.0  0.72594  0.03867  0.38034  1.0000
  S   S589      1.0  0.73705  0.01104  0.39242  1.0000
  S   S590      1.0  0.72680  0.05851  0.39407  1.0000
  Fe  Fe296     1.0  0.75219  0.00968  0.36554  1.0000
  N   N147      1.0  0.82417  0.00424  0.32273  1.0000
  Fe  Fe297     1.0  0.71587  0.00502  0.38453  1.0000
  H   H1752     1.0  0.93393  0.13772  0.45279  1.0000
  S   S591      1.0  0.74245  0.03775  0.35357  1.0000
  S   S592      1.0  0.70305  0.03284  0.37483  1.0000
  C   C1750     1.0  0.91392  0.99975  0.45155  1.0000
  C   C1751     1.0  0.96721  0.21462  0.47078  1.0000
  C   C1752     1.0  0.97290  0.46106  0.26780  1.0000
  H   H1753     1.0  0.91201  0.11722  0.41138  1.0000
  H   H1754     1.0  0.94761  0.46921  0.24746  1.0000
  H   H1755     1.0  0.78511  0.03090  0.44247  1.0000
  H   H1756     1.0  0.97209  0.12235  0.42866  1.0000
  S   S593      1.0  0.88833  0.06517  0.43104  1.0000
  Fe  Fe298     1.0  0.88698  0.04786  0.35500  1.0000
  S   S594      1.0  0.86980  0.03975  0.38076  1.0000
  S   S595      1.0  0.89504  0.07350  0.34910  1.0000
  Fe  Fe299     1.0  0.88589  0.01626  0.34305  1.0000
  S   S596      1.0  0.86893  0.00550  0.36804  1.0000
  S   S597      1.0  0.98391  0.13222  0.38955  1.0000
  Fe  Fe300     1.0  0.85404  0.03318  0.36618  1.0000
  S   S598      1.0  0.82487  0.04207  0.37248  1.0000
  Fe  Fe301     1.0  0.88618  0.01298  0.38016  1.0000
  H   H1757     1.0  0.97351  0.47831  0.30634  1.0000
  S   S599      1.0  0.86972  0.04363  0.34020  1.0000
  S   S600      1.0  0.90467  0.02140  0.35544  1.0000
  C   C1753     1.0  0.67992  0.05628  0.25946  1.0000
  S   S601      1.0  0.96093  0.43104  0.28538  1.0000
  H   H1758     1.0  0.97865  0.29699  0.32002  1.0000
  H   H1759     1.0  0.80338  0.04369  0.33162  1.0000
  H   H1760     1.0  0.93470  0.45842  0.29690  1.0000
  S   S602      1.0  0.73211  0.00085  0.35868  1.0000
  H   H1761     1.0  0.96516  0.18140  0.41105  1.0000
  H   H1762     1.0  0.68026  0.04196  0.34749  1.0000
  C   C1754     1.0  0.83118  0.03444  0.32552  1.0000
  C   C1755     1.0  0.69147  0.05816  0.26815  1.0000
  C   C1756     1.0  0.89383  0.01582  0.41334  1.0000
  C   C1757     1.0  0.88039  0.02033  0.42711  1.0000
  C   C1758     1.0  0.87878  0.03551  0.43252  1.0000
  C   C1759     1.0  0.89049  0.04626  0.42411  1.0000
  C   C1760     1.0  0.90375  0.04194  0.41014  1.0000
  C   C1761     1.0  0.90538  0.02672  0.40472  1.0000
  H   H1763     1.0  0.87087  0.01243  0.43317  1.0000
  H   H1764     1.0  0.86801  0.03926  0.44272  1.0000
  H   H1765     1.0  0.91271  0.05035  0.40347  1.0000
  H   H1766     1.0  0.91543  0.02355  0.39368  1.0000
  H   H1767     1.0  0.86170  0.09133  0.36273  1.0000
  C   C1762     1.0  0.71788  0.05430  0.41652  1.0000
  C   C1763     1.0  0.72360  0.06086  0.42748  1.0000
  C   C1764     1.0  0.71704  0.05719  0.44552  1.0000
  C   C1765     1.0  0.70424  0.04749  0.45258  1.0000
  C   C1766     1.0  0.69854  0.04090  0.44164  1.0000
  C   C1767     1.0  0.70553  0.04407  0.42367  1.0000
  H   H1768     1.0  0.73323  0.06869  0.42199  1.0000
  H   H1769     1.0  0.72152  0.06228  0.45388  1.0000
  H   H1770     1.0  0.68867  0.03336  0.44706  1.0000
  H   H1771     1.0  0.70108  0.03897  0.41529  1.0000
  H   H1772     1.0  0.79741  0.01687  0.32870  1.0000
  H   H1773     1.0  0.81982  0.06709  0.39302  1.0000
  N   N148      1.0  0.95970  0.24064  0.48170  1.0000
  C   C1768     1.0  0.87809  0.08598  0.38851  1.0000
  H   H1774     1.0  0.72653  0.01461  0.46322  1.0000
  C   C1769     1.0  0.95947  0.45361  0.27933  1.0000
  N   N149      1.0  0.86158  0.08168  0.38982  1.0000
  H   H1775     1.0  0.98424  0.45292  0.26136  1.0000
  H   H1776     1.0  0.85882  0.07025  0.41692  1.0000
  H   H1777     1.0  0.91484  0.11181  0.45452  1.0000
  C   C1770     1.0  0.79248  0.00747  0.36732  1.0000
  H   H1778     1.0  0.73401  0.99679  0.45233  1.0000
  C   C1771     1.0  0.82040  0.01135  0.36848  1.0000
  C   C1772     1.0  0.81260  0.02812  0.37138  1.0000
  C   C1773     1.0  0.79465  0.03426  0.37282  1.0000
  C   C1774     1.0  0.78463  0.02399  0.37077  1.0000
  C   C1775     1.0  0.98708  0.08785  0.45838  1.0000
  H   H1779     1.0  0.83420  0.00646  0.36738  1.0000
  H   H1780     1.0  0.78852  0.04721  0.37502  1.0000
  H   H1781     1.0  0.77088  0.02908  0.37143  1.0000
  C   C1776     1.0  0.94349  0.07467  0.36599  1.0000
  C   C1777     1.0  0.93297  0.09016  0.35864  1.0000
  C   C1778     1.0  0.91819  0.08966  0.35341  1.0000
  C   C1779     1.0  0.91377  0.07372  0.35562  1.0000
  C   C1780     1.0  0.92411  0.05830  0.36328  1.0000
  C   C1781     1.0  0.93895  0.05878  0.36835  1.0000
  H   H1782     1.0  0.93643  0.10246  0.35663  1.0000
  H   H1783     1.0  0.91027  0.10165  0.34744  1.0000
  H   H1784     1.0  0.92082  0.04597  0.36510  1.0000
  H   H1785     1.0  0.94702  0.04674  0.37403  1.0000
  C   C1782     1.0  0.97489  0.20471  0.35903  1.0000
  C   C1783     1.0  0.96583  0.19138  0.36673  1.0000
  C   C1784     1.0  0.97184  0.17538  0.36173  1.0000
  S   S603      1.0  0.90629  0.04709  0.47201  1.0000
  C   C1785     1.0  0.79593  0.09288  0.48211  1.0000
  Fe  Fe302     1.0  0.97547  0.16312  0.46973  1.0000
  H   H1786     1.0  0.76472  0.01433  0.46386  1.0000
  H   H1787     1.0  0.89580  0.98830  0.29277  1.0000
  H   H1788     1.0  0.95411  0.19339  0.37655  1.0000
  H   H1789     1.0  0.75879  0.03418  0.40260  1.0000
  C   C1786     1.0  0.98115  0.33553  0.29029  1.0000
  H   H1790     1.0  0.66984  0.07337  0.31292  1.0000
  C   C1787     1.0  0.94323  0.14875  0.42578  1.0000
  C   C1788     1.0  0.69047  0.99168  0.37059  1.0000
  C   C1789     1.0  0.98564  0.46890  0.30357  1.0000
  H   H1791     1.0  0.93945  0.06535  0.40664  1.0000
  H   H1792     1.0  0.74390  0.99652  0.46931  1.0000
  S   S604      1.0  0.96710  0.18097  0.44576  1.0000
  C   C1790     1.0  0.83819  0.06801  0.40695  1.0000
  H   H1793     1.0  0.87325  0.00362  0.48094  1.0000
  C   C1791     1.0  0.97435  0.32120  0.30084  1.0000
  H   H1794     1.0  0.96463  0.16525  0.36757  1.0000
  C   C1792     1.0  0.98330  0.28187  0.43590  1.0000
  H   H1795     1.0  0.66921  0.02771  0.29713  1.0000
  C   C1793     1.0  0.95197  0.16113  0.41401  1.0000
  H   H1796     1.0  0.96165  0.32026  0.30030  1.0000
  C   C1794     1.0  0.76042  0.02954  0.41596  1.0000
  H   H1797     1.0  0.92732  0.09589  0.39300  1.0000
  C   C1795     1.0  0.66083  0.04036  0.33519  1.0000
  C   C1796     1.0  0.68498  0.06566  0.28266  1.0000
  C   C1797     1.0  0.98713  0.31281  0.36522  1.0000
  H   H1798     1.0  0.93366  0.38043  0.23449  1.0000
  C   C1798     1.0  0.67794  0.03852  0.33667  1.0000
  H   H1799     1.0  0.97940  0.30408  0.37532  1.0000
  C   C1799     1.0  0.98997  0.20201  0.34617  1.0000
  H   H1800     1.0  0.69355  0.00426  0.36784  1.0000
  N   N150      1.0  0.75068  0.01459  0.44534  1.0000
  C   C1800     1.0  0.95691  0.16948  0.43804  1.0000
  C   C1801     1.0  0.73821  0.00517  0.45817  1.0000
  H   H1801     1.0  0.93638  0.05646  0.43875  1.0000
  C   C1802     1.0  0.93115  0.06980  0.43268  1.0000
  C   C1803     1.0  0.69188  0.03333  0.32360  1.0000
  C   C1804     1.0  0.68866  0.02889  0.30964  1.0000
  H   H1802     1.0  0.94954  0.37185  0.24773  1.0000
  C   C1805     1.0  0.77367  0.03322  0.42093  1.0000
  H   H1803     1.0  0.88869  0.07408  0.38808  1.0000
  H   H1804     1.0  0.83201  0.06095  0.41931  1.0000
  Fe  Fe303     1.0  0.88302  0.05781  0.46003  1.0000
  H   H1805     1.0  0.96135  0.26667  0.46890  1.0000
  H   H1806     1.0  0.94905  0.10616  0.45831  1.0000
  H   H1807     1.0  0.98300  0.07700  0.46826  1.0000
  C   C1806     1.0  0.90641  0.11136  0.44621  1.0000
  S   S605      1.0  0.77561  0.04310  0.47796  1.0000
  C   C1807     1.0  0.92249  0.08214  0.44279  1.0000
  C   C1808     1.0  0.83136  0.07146  0.39221  1.0000
  N   N151      1.0  0.91563  0.09890  0.43516  1.0000
  C   C1809     1.0  0.81406  0.03320  0.32791  1.0000
  H   H1808     1.0  0.89451  0.10733  0.45479  1.0000
  C   C1810     1.0  0.93279  0.07475  0.41468  1.0000
  S   S606      1.0  0.97465  0.27649  0.40811  1.0000
  C   C1811     1.0  0.83980  0.08001  0.37625  1.0000
  H   H1809     1.0  0.92117  0.07829  0.45680  1.0000
  H   H1810     1.0  0.98157  0.23479  0.46146  1.0000
  S   S607      1.0  0.78035  0.99563  0.36237  1.0000
  H   H1811     1.0  0.68469  0.05037  0.24826  1.0000
  H   H1812     1.0  0.91947  0.00495  0.43769  1.0000
  C   C1812     1.0  0.67155  0.03049  0.30829  1.0000
  C   C1813     1.0  0.85341  0.07324  0.40549  1.0000
  H   H1813     1.0  0.94626  0.15572  0.46354  1.0000
  C   C1814     1.0  0.94503  0.46413  0.28786  1.0000
  C   C1815     1.0  0.95839  0.09682  0.45081  1.0000
  S   S608      1.0  0.89514  0.00383  0.31999  1.0000
  C   C1816     1.0  0.94385  0.48198  0.28498  1.0000
  C   C1817     1.0  0.84477  0.02072  0.32103  1.0000
  H   H1814     1.0  0.85155  0.99516  0.31590  1.0000
  H   H1815     1.0  0.83492  0.08216  0.36462  1.0000
  H   H1816     1.0  0.88137  0.09596  0.37651  1.0000
  S   S609      1.0  0.97120  0.09568  0.40263  1.0000
  H   H1817     1.0  0.95375  0.16242  0.40018  1.0000
  Fe  Fe304     1.0  0.96991  0.09790  0.37510  1.0000
  C   C1818     1.0  0.91719  0.10387  0.41750  1.0000
  C   C1819     1.0  0.92586  0.09190  0.40701  1.0000
  H   H1818     1.0  0.98801  0.30989  0.35251  1.0000
  H   H1819     1.0  0.90269  0.12480  0.43844  1.0000
  H   H1820     1.0  0.97327  0.44779  0.30797  1.0000
  H   H1821     1.0  0.92128  0.00202  0.45992  1.0000
  H   H1822     1.0  0.81078  0.04642  0.46363  1.0000
  C   C1820     1.0  0.98558  0.45165  0.30438  1.0000
  C   C1821     1.0  0.97191  0.47904  0.26524  1.0000
  S   S610      1.0  0.93709  0.13381  0.41846  1.0000
  H   H1823     1.0  0.78261  0.04047  0.41134  1.0000
  H   H1824     1.0  0.83211  0.05316  0.47562  1.0000
  H   H1825     1.0  0.75858  0.08386  0.48078  1.0000
  H   H1826     1.0  0.80875  0.09384  0.47424  1.0000
  C   C1822     1.0  0.80767  0.04739  0.47707  1.0000
  C   C1823     1.0  0.94075  0.14721  0.44363  1.0000
  H   H1827     1.0  0.85816  0.02159  0.31894  1.0000
  C   C1824     1.0  0.98609  0.27056  0.42491  1.0000
  H   H1828     1.0  0.95476  0.09932  0.43812  1.0000
  C   C1825     1.0  0.77514  0.02777  0.43830  1.0000
  S   S611      1.0  0.86845  0.03773  0.47700  1.0000
  C   C1826     1.0  0.66212  0.06193  0.26530  1.0000
  C   C1827     1.0  0.76347  0.01841  0.45040  1.0000
  N   N152      1.0  0.93608  0.22589  0.40430  1.0000
  C   C1828     1.0  0.94044  0.21754  0.41999  1.0000
  C   C1829     1.0  0.93904  0.24216  0.39634  1.0000
  C   C1830     1.0  0.94855  0.22522  0.42782  1.0000
  C   C1831     1.0  0.94704  0.25026  0.40386  1.0000
  C   C1832     1.0  0.95191  0.24166  0.41966  1.0000
  C   C1833     1.0  0.92733  0.21776  0.39642  1.0000
  H   H1829     1.0  0.93781  0.20479  0.42650  1.0000
  H   H1830     1.0  0.93570  0.24875  0.38382  1.0000
  H   H1831     1.0  0.95229  0.21834  0.44007  1.0000
  H   H1832     1.0  0.94965  0.26304  0.39739  1.0000
  H   H1833     1.0  0.95833  0.24771  0.42549  1.0000
  H   H1834     1.0  0.91305  0.22221  0.40035  1.0000
  H   H1835     1.0  0.93123  0.22118  0.38198  1.0000
  H   H1836     1.0  0.97581  0.20655  0.46203  1.0000
  C   C1834     1.0  0.97037  0.23058  0.47050  1.0000
  C   C1835     1.0  0.81077  0.01795  0.32630  1.0000
  C   C1836     1.0  0.81033  0.00100  0.36656  1.0000
  H   H1837     1.0  0.69403  0.06670  0.28961  1.0000
  H   H1838     1.0  0.95715  0.08340  0.45797  1.0000
  H   H1839     1.0  0.73827  0.01803  0.42459  1.0000
  Fe  Fe305     1.0  0.98831  0.26316  0.38586  1.0000
  N   N153      1.0  0.97600  0.09917  0.44832  1.0000
  H   H1840     1.0  0.98013  0.32656  0.36500  1.0000
  H   H1841     1.0  0.98230  0.48482  0.25652  1.0000
  H   H1842     1.0  0.97360  0.29397  0.43444  1.0000
  H   H1843     1.0  0.65942  0.09307  0.29950  1.0000
  C   C1837     1.0  0.96355  0.25718  0.48119  1.0000
  H   H1844     1.0  0.97728  0.25505  0.48210  1.0000
  C   C1838     1.0  0.95308  0.20892  0.48270  1.0000
  H   H1845     1.0  0.95077  0.19631  0.48340  1.0000
  C   C1839     1.0  0.82046  0.98806  0.32192  1.0000
  C   C1840     1.0  0.81980  0.05109  0.48388  1.0000
  H   H1846     1.0  0.81795  0.98931  0.30895  1.0000
  S   S612      1.0  0.99059  0.17121  0.48377  1.0000
  H   H1847     1.0  0.81648  0.98820  0.36395  1.0000
  C   C1841     1.0  0.95847  0.41593  0.64604  1.0000
  H   H1848     1.0  0.70006  0.03619  0.60598  1.0000
  S   S613      1.0  0.90121  0.08892  0.49118  1.0000
  H   H1849     1.0  0.98975  0.16100  0.54851  1.0000
  H   H1850     1.0  0.98873  0.46691  0.71988  1.0000
  H   H1851     1.0  0.82786  0.01574  0.50965  1.0000
  Fe  Fe306     1.0  0.89066  0.02825  0.49053  1.0000
  Fe  Fe307     1.0  0.97463  0.15745  0.50768  1.0000
  S   S614      1.0  0.96158  0.16866  0.53121  1.0000
  C   C1842     1.0  0.98946  0.46921  0.67761  1.0000
  Fe  Fe308     1.0  0.99049  0.39639  0.59534  1.0000
  C   C1843     1.0  0.97481  0.46541  0.61016  1.0000
  S   S615      1.0  0.73646  0.02236  0.49257  1.0000
  H   H1852     1.0  0.91255  0.11917  0.48951  1.0000
  S   S616      1.0  0.90190  0.99907  0.49760  1.0000
  H   H1853     1.0  0.97368  0.43574  0.65955  1.0000
  Fe  Fe309     1.0  0.98182  0.25748  0.52000  1.0000
  C   C1844     1.0  0.77559  0.09212  0.50968  1.0000
  S   S617      1.0  0.95735  0.24750  0.52835  1.0000
  Fe  Fe310     1.0  0.72733  0.01758  0.52136  1.0000
  H   H1854     1.0  0.67376  0.02214  0.50201  1.0000
  H   H1855     1.0  0.94045  0.12386  0.49131  1.0000
  C   C1845     1.0  0.99099  0.18532  0.55298  1.0000
  C   C1846     1.0  0.66969  0.01097  0.52959  1.0000
  H   H1856     1.0  0.73664  0.08997  0.50646  1.0000
  S   S618      1.0  0.74236  0.03503  0.52449  1.0000
  C   C1847     1.0  0.66086  0.04164  0.51713  1.0000
  C   C1848     1.0  0.96501  0.38506  0.67050  1.0000
  H   H1857     1.0  0.68012  0.02972  0.63482  1.0000
  S   S619      1.0  0.72741  0.98976  0.53457  1.0000
  H   H1858     1.0  0.93146  0.21480  0.50363  1.0000
  C   C1849     1.0  0.92336  0.10813  0.49131  1.0000
  C   C1850     1.0  0.66731  0.09030  0.70964  1.0000
  S   S620      1.0  0.97334  0.09961  0.49579  1.0000
  C   C1851     1.0  0.96342  0.38456  0.65416  1.0000
  H   H1859     1.0  0.96802  0.37304  0.68003  1.0000
  S   S621      1.0  0.87900  0.04571  0.50968  1.0000
  C   C1852     1.0  0.71228  0.99157  0.50813  1.0000
  C   C1853     1.0  0.68739  0.07831  0.54955  1.0000
  H   H1860     1.0  0.97225  0.48338  0.69658  1.0000
  H   H1861     1.0  0.74253  0.09356  0.52429  1.0000
  C   C1854     1.0  0.66347  0.06586  0.56891  1.0000
  C   C1855     1.0  0.79948  0.05055  0.51155  1.0000
  C   C1856     1.0  0.76766  0.08731  0.48596  1.0000
  C   C1857     1.0  0.98378  0.47320  0.69399  1.0000
  C   C1858     1.0  0.96060  0.43285  0.66530  1.0000
  H   H1862     1.0  0.79622  0.05191  0.52488  1.0000
  Fe  Fe311     1.0  0.89247  0.06563  0.48957  1.0000
  H   H1863     1.0  0.96510  0.37214  0.65095  1.0000
  C   C1859     1.0  0.84950  0.01086  0.52152  1.0000
  C   C1860     1.0  0.67829  0.09471  0.55264  1.0000
  H   H1864     1.0  0.95864  0.39992  0.62913  1.0000
  Fe  Fe312     1.0  0.85757  0.05607  0.49485  1.0000
  H   H1865     1.0  0.95605  0.42790  0.63632  1.0000
  C   C1861     1.0  0.66843  0.02461  0.51497  1.0000
  Fe  Fe313     1.0  0.71807  0.05573  0.52119  1.0000
  C   C1862     1.0  0.95120  0.07981  0.49630  1.0000
  H   H1866     1.0  0.77484  0.04545  0.51281  1.0000
  H   H1867     1.0  0.66430  0.00396  0.55761  1.0000
  S   S622      1.0  0.70248  0.03762  0.52075  1.0000
  C   C1863     1.0  0.66324  0.01444  0.54614  1.0000
  S   S623      1.0  0.98556  0.37119  0.61335  1.0000
  N   N154      1.0  0.66112  0.07202  0.62097  1.0000
  H   H1868     1.0  0.98795  0.22268  0.54583  1.0000
  Fe  Fe314     1.0  0.97782  0.12654  0.49246  1.0000
  C   C1864     1.0  0.93914  0.11084  0.49239  1.0000
  H   H1869     1.0  0.87189  0.00197  0.53320  1.0000
  H   H1870     1.0  0.98295  0.21181  0.56840  1.0000
  C   C1865     1.0  0.94217  0.21934  0.49396  1.0000
  H   H1871     1.0  0.80155  0.09610  0.50501  1.0000
  C   C1866     1.0  0.68927  0.04631  0.61031  1.0000
  C   C1867     1.0  0.67813  0.04268  0.62647  1.0000
  H   H1872     1.0  0.98956  0.30455  0.57926  1.0000
  H   H1873     1.0  0.70090  0.99310  0.48685  1.0000
  C   C1868     1.0  0.96075  0.19064  0.52955  1.0000
  C   C1869     1.0  0.94735  0.19967  0.54059  1.0000
  C   C1870     1.0  0.94654  0.21706  0.54013  1.0000
  C   C1871     1.0  0.95939  0.22543  0.52895  1.0000
  C   C1872     1.0  0.97294  0.21637  0.51795  1.0000
  C   C1873     1.0  0.97356  0.19901  0.51815  1.0000
  H   H1874     1.0  0.93748  0.19322  0.54951  1.0000
  H   H1875     1.0  0.93597  0.22400  0.54858  1.0000
  H   H1876     1.0  0.98262  0.22284  0.50886  1.0000
  H   H1877     1.0  0.98412  0.19202  0.50978  1.0000
  S   S624      1.0  0.82969  0.05939  0.50945  1.0000
  C   C1874     1.0  0.68631  0.06296  0.59962  1.0000
  H   H1878     1.0  0.70688  0.00511  0.50850  1.0000
  S   S625      1.0  0.98553  0.28081  0.49825  1.0000
  C   C1875     1.0  0.79186  0.09422  0.49941  1.0000
  C   C1876     1.0  0.67990  0.06385  0.55753  1.0000
  H   H1879     1.0  0.66968  0.08854  0.59667  1.0000
  H   H1880     1.0  0.93730  0.24316  0.50230  1.0000
  H   H1881     1.0  0.95949  0.45949  0.59585  1.0000
  C   C1877     1.0  0.97804  0.43658  0.60523  1.0000
  C   C1878     1.0  0.74703  0.08594  0.51401  1.0000
  H   H1882     1.0  0.95079  0.44372  0.65950  1.0000
  C   C1879     1.0  0.94558  0.23536  0.49316  1.0000
  H   H1883     1.0  0.96854  0.47912  0.60831  1.0000
  N   N155      1.0  0.76367  0.08893  0.50284  1.0000
  S   S626      1.0  0.97191  0.42268  0.59621  1.0000
  H   H1884     1.0  0.68401  0.10591  0.54655  1.0000
  C   C1880     1.0  0.96974  0.45431  0.60308  1.0000
  H   H1885     1.0  0.74826  0.07189  0.52037  1.0000
  C   C1881     1.0  0.95991  0.40010  0.64191  1.0000
  H   H1886     1.0  0.95779  0.43232  0.67948  1.0000
  S   S627      1.0  0.70856  0.07638  0.53674  1.0000
  C   C1882     1.0  0.92142  0.09130  0.49265  1.0000
  C   C1883     1.0  0.66180  0.09678  0.56354  1.0000
  C   C1884     1.0  0.96335  0.40114  0.67423  1.0000
  H   H1887     1.0  0.68700  0.05108  0.55540  1.0000
  H   H1888     1.0  0.96503  0.40136  0.68683  1.0000
  H   H1889     1.0  0.97708  0.18892  0.55783  1.0000
  H   H1890     1.0  0.77272  0.09266  0.52325  1.0000
  C   C1885     1.0  0.81560  0.05296  0.50106  1.0000
  H   H1891     1.0  0.69470  0.06589  0.58689  1.0000
  Fe  Fe315     1.0  0.74921  0.04180  0.49531  1.0000
  C   C1886     1.0  0.78736  0.04686  0.50474  1.0000
  N   N156      1.0  0.96040  0.41628  0.66195  1.0000
  C   C1887     1.0  0.79131  0.04558  0.48740  1.0000
  S   S628      1.0  0.95781  0.15156  0.49364  1.0000
  H   H1892     1.0  0.68792  0.07028  0.71951  1.0000
  C   C1888     1.0  0.83758  0.00577  0.51576  1.0000
  C   C1889     1.0  0.67211  0.07574  0.60522  1.0000
  Fe  Fe316     1.0  0.99057  0.40617  0.71762  1.0000
  H   H1893     1.0  0.66772  0.08441  0.69919  1.0000
  H   H1894     1.0  0.96191  0.06877  0.49845  1.0000
  H   H1895     1.0  0.67592  0.99779  0.52808  1.0000
  H   H1896     1.0  0.82157  0.99338  0.50006  1.0000
  C   C1890     1.0  0.93544  0.07713  0.49503  1.0000
  C   C1891     1.0  0.99097  0.43000  0.61490  1.0000
  C   C1892     1.0  0.67854  0.08235  0.72109  1.0000
  C   C1893     1.0  0.95311  0.09668  0.49496  1.0000
  H   H1897     1.0  0.93403  0.06410  0.49623  1.0000
  C   C1894     1.0  0.66402  0.05577  0.63160  1.0000
  H   H1898     1.0  0.84906  0.02457  0.51982  1.0000
  H   H1899     1.0  0.98243  0.47623  0.66734  1.0000
  C   C1895     1.0  0.86216  0.99817  0.52926  1.0000
  S   S629      1.0  0.98907  0.33659  0.58693  1.0000
  H   H1900     1.0  0.66052  0.05222  0.50565  1.0000
  C   C1896     1.0  0.98832  0.45876  0.61921  1.0000
  C   C1897     1.0  0.87772  0.99002  0.48607  1.0000
  H   H1901     1.0  0.95533  0.26303  0.49226  1.0000
  S   S630      1.0  0.97434  0.42616  0.73275  1.0000
  Fe  Fe317     1.0  0.71257  0.04360  0.49191  1.0000
  S   S631      1.0  0.72596  0.06386  0.49205  1.0000
  N   N157      1.0  0.83837  0.98848  0.51753  1.0000
  C   C1898     1.0  0.99135  0.31396  0.56701  1.0000
  C   C1899     1.0  0.69008  0.32114  0.88299  1.0000
  Fe  Fe318     1.0  0.72589  0.40227  0.85168  1.0000
  S   S632      1.0  0.71683  0.40883  0.87771  1.0000
  S   S633      1.0  0.74901  0.41357  0.83633  1.0000
  Fe  Fe319     1.0  0.69532  0.38514  0.85764  1.0000
  S   S634      1.0  0.68376  0.39108  0.88408  1.0000
  S   S635      1.0  0.68424  0.37015  0.84550  1.0000
  Fe  Fe320     1.0  0.69044  0.41724  0.87188  1.0000
  S   S636      1.0  0.67472  0.44379  0.87566  1.0000
  Fe  Fe321     1.0  0.71138  0.38227  0.88714  1.0000
  S   S637      1.0  0.71834  0.36600  0.91199  1.0000
  S   S638      1.0  0.69959  0.41230  0.84495  1.0000
  S   S639      1.0  0.72278  0.37459  0.86167  1.0000
  H   H1902     1.0  0.89532  0.38244  0.90722  1.0000
  C   C1900     1.0  0.69053  0.40911  0.94063  1.0000
  Fe  Fe322     1.0  0.87227  0.39864  0.85463  1.0000
  S   S640      1.0  0.84897  0.41054  0.84231  1.0000
  S   S641      1.0  0.90057  0.38846  0.84318  1.0000
  Fe  Fe323     1.0  0.85077  0.39936  0.89151  1.0000
  S   S642      1.0  0.82577  0.41144  0.88264  1.0000
  S   S643      1.0  0.85220  0.39027  0.91967  1.0000
  Fe  Fe324     1.0  0.83530  0.39292  0.86493  1.0000
  S   S644      1.0  0.81755  0.37660  0.86496  1.0000
  Fe  Fe325     1.0  0.84132  0.42809  0.86112  1.0000
  S   S645      1.0  0.82973  0.45665  0.85557  1.0000
  S   S646      1.0  0.85920  0.37926  0.87554  1.0000
  S   S647      1.0  0.86560  0.41772  0.87169  1.0000
  H   H1903     1.0  0.79036  0.35354  0.96311  1.0000
  H   H1904     1.0  0.77305  0.35136  0.94370  1.0000
  C   C1901     1.0  0.85174  0.43547  0.93101  1.0000
  H   H1905     1.0  0.76401  0.46934  0.95870  1.0000
  N   N158      1.0  0.89558  0.42525  0.89182  1.0000
  C   C1902     1.0  0.90256  0.47206  0.94696  1.0000
  C   C1903     1.0  0.77519  0.43641  0.87880  1.0000
  H   H1906     1.0  0.75686  0.48589  0.87436  1.0000
  H   H1907     1.0  0.90629  0.43702  0.86580  1.0000
  H   H1908     1.0  0.73199  0.45122  0.84088  1.0000
  H   H1909     1.0  0.66302  0.25066  0.85314  1.0000
  C   C1904     1.0  0.85403  0.40041  0.94784  1.0000
  C   C1905     1.0  0.85033  0.42357  0.92231  1.0000
  H   H1910     1.0  0.67187  0.23626  0.93008  1.0000
  S   S648      1.0  0.72713  0.41020  0.98058  1.0000
  H   H1911     1.0  0.69708  0.41905  0.93194  1.0000
  H   H1912     1.0  0.85511  0.38681  0.95439  1.0000
  H   H1913     1.0  0.72582  0.48116  0.84350  1.0000
  C   C1906     1.0  0.75216  0.46036  0.88683  1.0000
  H   H1914     1.0  0.79781  0.47260  0.84358  1.0000
  S   S649      1.0  0.66754  0.28559  0.97597  1.0000
  H   H1915     1.0  0.88259  0.35460  0.84643  1.0000
  H   H1916     1.0  0.89227  0.38042  0.79249  1.0000
  C   C1907     1.0  0.85294  0.48602  0.86991  1.0000
  H   H1917     1.0  0.78049  0.42250  0.87999  1.0000
  C   C1908     1.0  0.90899  0.40996  0.79125  1.0000
  H   H1918     1.0  0.79752  0.44362  0.86016  1.0000
  S   S650      1.0  0.76940  0.40318  0.97833  1.0000
  H   H1919     1.0  0.82960  0.39177  0.82475  1.0000
  H   H1920     1.0  0.90329  0.36362  0.81908  1.0000
  C   C1909     1.0  0.70545  0.34370  0.96968  1.0000
  S   S651      1.0  0.66964  0.26897  0.93795  1.0000
  C   C1910     1.0  0.68990  0.22846  0.96481  1.0000
  C   C1911     1.0  0.76201  0.47199  0.87544  1.0000
  H   H1921     1.0  0.83267  0.38067  0.80759  1.0000
  C   C1912     1.0  0.89830  0.39427  0.89817  1.0000
  H   H1922     1.0  0.66493  0.36530  0.88158  1.0000
  C   C1913     1.0  0.91036  0.40933  0.86948  1.0000
  C   C1914     1.0  0.89707  0.45734  0.94733  1.0000
  C   C1915     1.0  0.84525  0.46643  0.85749  1.0000
  C   C1916     1.0  0.86285  0.45994  0.85111  1.0000
  C   C1917     1.0  0.87550  0.46636  0.85424  1.0000
  C   C1918     1.0  0.68746  0.21147  0.96938  1.0000
  C   C1919     1.0  0.87056  0.47920  0.86387  1.0000
  H   H1923     1.0  0.86672  0.44992  0.84373  1.0000
  H   H1924     1.0  0.88907  0.46142  0.84915  1.0000
  C   C1920     1.0  0.84026  0.47973  0.86660  1.0000
  H   H1925     1.0  0.82886  0.36915  0.82983  1.0000
  H   H1926     1.0  0.71484  0.44574  0.85926  1.0000
  H   H1927     1.0  0.68736  0.32107  0.87080  1.0000
  H   H1928     1.0  0.91688  0.40919  0.85605  1.0000
  H   H1929     1.0  0.73320  0.45126  0.95825  1.0000
  H   H1930     1.0  0.72234  0.35785  0.97314  1.0000
  Fe  Fe326     1.0  0.96540  0.40350  0.75278  1.0000
  N   N159      1.0  0.77791  0.46596  0.86573  1.0000
  C   C1921     1.0  0.67481  0.38282  0.96256  1.0000
  C   C1922     1.0  0.68365  0.45442  0.88585  1.0000
  C   C1923     1.0  0.69458  0.44495  0.89737  1.0000
  C   C1924     1.0  0.70164  0.45368  0.90527  1.0000
  C   C1925     1.0  0.69802  0.47193  0.90143  1.0000
  C   C1926     1.0  0.66261  0.21173  0.84653  1.0000
  C   C1927     1.0  0.67988  0.47267  0.88222  1.0000
  H   H1931     1.0  0.69723  0.43090  0.90053  1.0000
  H   H1932     1.0  0.70991  0.44630  0.91433  1.0000
  C   C1928     1.0  0.67482  0.37156  0.93790  1.0000
  C   C1929     1.0  0.68731  0.48142  0.88972  1.0000
  C   C1930     1.0  0.73032  0.37704  0.91792  1.0000
  C   C1931     1.0  0.72634  0.37893  0.93500  1.0000
  C   C1932     1.0  0.73418  0.38950  0.93960  1.0000
  C   C1933     1.0  0.74660  0.39766  0.92729  1.0000
  C   C1934     1.0  0.75092  0.39554  0.91018  1.0000
  C   C1935     1.0  0.74268  0.38527  0.90547  1.0000
  H   H1933     1.0  0.71656  0.37287  0.94448  1.0000
  H   H1934     1.0  0.73026  0.39156  0.95266  1.0000
  H   H1935     1.0  0.76075  0.40152  0.90064  1.0000
  H   H1936     1.0  0.74595  0.38362  0.89225  1.0000
  C   C1936     1.0  0.76752  0.40389  0.84538  1.0000
  C   C1937     1.0  0.78094  0.41272  0.84140  1.0000
  C   C1938     1.0  0.79609  0.40476  0.84800  1.0000
  C   C1939     1.0  0.79801  0.38775  0.85819  1.0000
  C   C1940     1.0  0.78448  0.37908  0.86241  1.0000
  C   C1941     1.0  0.76918  0.38721  0.85620  1.0000
  H   H1937     1.0  0.77968  0.42564  0.83304  1.0000
  H   H1938     1.0  0.80648  0.41154  0.84472  1.0000
  H   H1939     1.0  0.78588  0.36594  0.87031  1.0000
  H   H1940     1.0  0.75890  0.38032  0.85933  1.0000
  S   S652      1.0  0.75276  0.37222  0.97499  1.0000
  C   C1942     1.0  0.93657  0.39299  0.79801  1.0000
  C   C1943     1.0  0.92838  0.38886  0.81565  1.0000
  C   C1944     1.0  0.91051  0.39531  0.82116  1.0000
  C   C1945     1.0  0.90085  0.40608  0.80894  1.0000
  C   C1946     1.0  0.75879  0.44247  0.88847  1.0000
  H   H1941     1.0  0.95030  0.38778  0.79385  1.0000
  H   H1942     1.0  0.93592  0.38044  0.82502  1.0000
  H   H1943     1.0  0.88708  0.41112  0.81304  1.0000
  C   C1947     1.0  0.92685  0.40339  0.78570  1.0000
  N   N160      1.0  0.91072  0.45824  0.97447  1.0000
  H   H1944     1.0  0.85721  0.40778  0.96975  1.0000
  H   H1945     1.0  0.68649  0.36068  0.93691  1.0000
  C   C1948     1.0  0.69988  0.33258  0.88296  1.0000
  C   C1949     1.0  0.70315  0.33309  0.89859  1.0000
  C   C1950     1.0  0.89267  0.41013  0.90337  1.0000
  C   C1951     1.0  0.68705  0.31079  0.91354  1.0000
  H   H1946     1.0  0.68879  0.20462  0.95940  1.0000
  H   H1947     1.0  0.85083  0.44905  0.92450  1.0000
  H   H1948     1.0  0.70458  0.34125  0.87090  1.0000
  H   H1949     1.0  0.71066  0.34196  0.89874  1.0000
  S   S653      1.0  0.75703  0.40982  0.93382  1.0000
  H   H1950     1.0  0.68902  0.25065  0.97413  1.0000
  H   H1951     1.0  0.81885  0.47079  0.97892  1.0000
  N   N161      1.0  0.85415  0.37454  0.81995  1.0000
  C   C1952     1.0  0.86013  0.36554  0.83474  1.0000
  C   C1953     1.0  0.86544  0.38002  0.80495  1.0000
  C   C1954     1.0  0.87788  0.36139  0.83462  1.0000
  C   C1955     1.0  0.88329  0.37595  0.80433  1.0000
  C   C1956     1.0  0.88951  0.36649  0.81926  1.0000
  H   H1952     1.0  0.80803  0.38133  0.96141  1.0000
  C   C1957     1.0  0.83544  0.37929  0.82049  1.0000
  H   H1953     1.0  0.86068  0.38767  0.79337  1.0000
  C   C1958     1.0  0.97004  0.48214  0.77073  1.0000
  H   H1954     1.0  0.68915  0.39850  0.92004  1.0000
  C   C1959     1.0  0.66596  0.22829  0.84290  1.0000
  C   C1960     1.0  0.73217  0.45576  0.94439  1.0000
  H   H1955     1.0  0.95086  0.46858  0.77137  1.0000
  C   C1961     1.0  0.97685  0.45426  0.76290  1.0000
  C   C1962     1.0  0.90429  0.42501  0.87505  1.0000
  H   H1956     1.0  0.66902  0.30182  0.88560  1.0000
  H   H1957     1.0  0.66078  0.30057  0.90831  1.0000
  C   C1963     1.0  0.88820  0.44198  0.89701  1.0000
  C   C1964     1.0  0.75340  0.45233  0.98201  1.0000
  H   H1958     1.0  0.89115  0.45717  0.93708  1.0000
  H   H1959     1.0  0.67118  0.48008  0.87360  1.0000
  S   S654      1.0  0.85750  0.44433  0.95852  1.0000
  C   C1965     1.0  0.96457  0.46828  0.76877  1.0000
  C   C1966     1.0  0.69673  0.32213  0.91401  1.0000
  S   S655      1.0  0.93626  0.40763  0.76323  1.0000
  C   C1967     1.0  0.77094  0.48448  0.91732  1.0000
  N   N162      1.0  0.80603  0.36885  0.94292  1.0000
  C   C1968     1.0  0.80934  0.37698  0.92570  1.0000
  H   H1960     1.0  0.68588  0.45998  0.83927  1.0000
  C   C1969     1.0  0.79997  0.37569  0.91438  1.0000
  C   C1970     1.0  0.78343  0.35836  0.93847  1.0000
  C   C1971     1.0  0.78696  0.36630  0.92084  1.0000
  H   H1961     1.0  0.90114  0.48340  0.93631  1.0000
  H   H1962     1.0  0.81929  0.38448  0.92062  1.0000
  N   N163      1.0  0.68355  0.31066  0.89821  1.0000
  H   H1963     1.0  0.80273  0.38198  0.90069  1.0000
  H   H1964     1.0  0.82666  0.48467  0.87168  1.0000
  H   H1965     1.0  0.77950  0.36532  0.91222  1.0000
  C   C1972     1.0  0.79319  0.35973  0.94939  1.0000
  C   C1973     1.0  0.90722  0.39389  0.88111  1.0000
  N   N164      1.0  0.67818  0.38454  0.94495  1.0000
  H   H1966     1.0  0.84847  0.42795  0.90907  1.0000
  H   H1967     1.0  0.88642  0.44039  0.91125  1.0000
  C   C1974     1.0  0.75616  0.46854  0.97170  1.0000
  N   N165      1.0  0.74536  0.46576  0.93456  1.0000
  H   H1968     1.0  0.97258  0.44367  0.76118  1.0000
  H   H1969     1.0  0.91132  0.38176  0.87674  1.0000
  C   C1975     1.0  0.81562  0.37063  0.95475  1.0000
  H   H1970     1.0  0.90142  0.41806  0.78177  1.0000
  S   S656      1.0  0.98632  0.39869  0.76748  1.0000
  H   H1971     1.0  0.73946  0.46519  0.89434  1.0000
  C   C1976     1.0  0.85179  0.40594  0.93066  1.0000
  C   C1977     1.0  0.68592  0.39749  0.93398  1.0000
  C   C1978     1.0  0.85445  0.42977  0.94807  1.0000
  H   H1972     1.0  0.75124  0.43333  0.89728  1.0000
  C   C1979     1.0  0.85531  0.41229  0.95654  1.0000
  C   C1980     1.0  0.78795  0.47843  0.85390  1.0000
  C   C1981     1.0  0.78469  0.44841  0.86751  1.0000
  H   H1973     1.0  0.76436  0.44341  0.92813  1.0000
  H   H1974     1.0  0.71889  0.46381  0.94365  1.0000
  H   H1975     1.0  0.87534  0.44780  0.89340  1.0000
  C   C1982     1.0  0.76144  0.45737  0.92708  1.0000
  H   H1976     1.0  0.88570  0.41027  0.91663  1.0000
  C   C1983     1.0  0.66861  0.35776  0.85751  1.0000
  C   C1984     1.0  0.66388  0.34739  0.84935  1.0000
  H   H1977     1.0  0.67181  0.37729  0.92480  1.0000
  H   H1978     1.0  0.66939  0.34760  0.83572  1.0000
  S   S657      1.0  0.68326  0.32798  0.96351  1.0000
  H   H1979     1.0  0.66374  0.36599  0.94648  1.0000
  H   H1980     1.0  0.82849  0.37348  0.94773  1.0000
  H   H1981     1.0  0.67167  0.23430  0.82976  1.0000
  H   H1982     1.0  0.71340  0.34128  0.95732  1.0000
  H   H1983     1.0  0.81806  0.35838  0.96479  1.0000
  H   H1984     1.0  0.89675  0.45131  0.89039  1.0000
  H   H1985     1.0  0.85115  0.36164  0.84678  1.0000
  H   H1986     1.0  0.69326  0.23494  0.95123  1.0000
  C   C1985     1.0  0.67297  0.29897  0.89821  1.0000
  C   C1986     1.0  0.77440  0.46662  0.91819  1.0000
  N   N166      1.0  0.70714  0.46894  0.84112  1.0000
  Fe  Fe327     1.0  0.75206  0.40056  0.96288  1.0000
  C   C1987     1.0  0.71791  0.45132  0.84508  1.0000
  H   H1987     1.0  0.73373  0.44421  0.93909  1.0000
  H   H1988     1.0  0.69916  0.32250  0.92627  1.0000
  H   H1989     1.0  0.78715  0.45992  0.91232  1.0000
  H   H1990     1.0  0.71557  0.44264  0.83815  1.0000
  C   C1988     1.0  0.71306  0.48296  0.84103  1.0000
  C   C1989     1.0  0.69081  0.47118  0.83856  1.0000
  C   C1990     1.0  0.89878  0.44296  0.96122  1.0000
  H   H1991     1.0  0.68225  0.30215  0.92552  1.0000
  H   H1992     1.0  0.79480  0.48282  0.86128  1.0000
  S   S658      1.0  0.88650  0.48637  0.86860  1.0000
  S   S659      1.0  0.98040  0.38377  0.73653  1.0000
  S   S660      1.0  0.70692  0.48275  0.91137  1.0000
  C   C1991     1.0  0.66139  0.35742  0.87512  1.0000
  H   H1993     1.0  0.68550  0.08334  0.74426  1.0000
  C   C1992     1.0  0.66107  0.23750  0.85606  1.0000
  H   H1994     1.0  0.84572  0.47943  0.97798  1.0000
  H   H1995     1.0  0.66887  0.37244  0.97125  1.0000
  C   C1993     1.0  0.90932  0.47232  0.96077  1.0000
  C   C1994     1.0  0.66459  0.10490  0.73717  1.0000
  H   H1996     1.0  0.66574  0.20475  0.83624  1.0000
  H   H1997     1.0  0.68024  0.28521  0.90103  1.0000
  H   H1998     1.0  0.89436  0.43151  0.96173  1.0000
  C   C1995     1.0  0.98776  0.48172  0.76745  1.0000
  C   C1996     1.0  0.67719  0.08967  0.73497  1.0000
  C   C1997     1.0  0.74193  0.48322  0.93392  1.0000
  C   C1998     1.0  0.68999  0.33774  0.97643  1.0000
  C   C1999     1.0  0.90567  0.44364  0.97475  1.0000
  C   C2000     1.0  0.68733  0.23737  0.97786  1.0000
  Fe  Fe328     1.0  0.66067  0.31477  0.97068  1.0000
  H   H1999     1.0  0.91297  0.48406  0.96071  1.0000
  C   C2001     1.0  0.68740  0.40723  0.95859  1.0000
  H   H2000     1.0  0.66326  0.11018  0.74832  1.0000
  H   H2001     1.0  0.75893  0.44076  0.97684  1.0000
  C   C2002     1.0  0.67942  0.39406  0.96964  1.0000
  C   C2003     1.0  0.71052  0.35316  0.97857  1.0000
  C   C2004     1.0  0.74886  0.48367  0.97820  1.0000
  H   H2002     1.0  0.69143  0.41574  0.96397  1.0000
  H   H2003     1.0  0.67728  0.39221  0.98366  1.0000
  C   C2005     1.0  0.65904  0.24432  0.92938  1.0000
  C   C2006     1.0  0.98519  0.53329  0.20737  1.0000
  H   H2004     1.0  0.92125  0.57718  0.05270  1.0000
  C   C2007     1.0  0.80403  0.56523  0.00098  1.0000
  Fe  Fe329     1.0  0.75098  0.54536  0.99987  1.0000
  S   S661      1.0  0.76570  0.53839  0.02125  1.0000
  N   N167      1.0  0.94557  0.49099  0.22591  1.0000
  C   C2008     1.0  0.91778  0.49939  0.09860  1.0000
  Fe  Fe330     1.0  0.85436  0.54418  0.02181  1.0000
  S   S662      1.0  0.85079  0.51745  0.02503  1.0000
  S   S663      1.0  0.83372  0.56541  0.01024  1.0000
  Fe  Fe331     1.0  0.88968  0.53029  0.03198  1.0000
  C   C2009     1.0  0.88980  0.50313  0.08409  1.0000
  S   S664      1.0  0.91459  0.53405  0.03577  1.0000
  H   H2005     1.0  0.84621  0.49467  0.00009  1.0000
  H   H2006     1.0  0.94660  0.53512  0.07753  1.0000
  Fe  Fe332     1.0  0.86137  0.51083  0.04901  1.0000
  C   C2010     1.0  0.91905  0.54241  0.08717  1.0000
  S   S665      1.0  0.86259  0.53821  0.04735  1.0000
  H   H2007     1.0  0.90846  0.58414  0.08177  1.0000
  H   H2008     1.0  0.87364  0.50992  0.10781  1.0000
  C   C2011     1.0  0.97643  0.57731  0.05602  1.0000
  H   H2009     1.0  0.73365  0.49405  0.00041  1.0000
  C   C2012     1.0  0.72266  0.56248  0.03799  1.0000
  H   H2010     1.0  0.98138  0.58741  0.05865  1.0000
  H   H2011     1.0  0.89878  0.50664  0.12086  1.0000
  C   C2013     1.0  0.81459  0.55826  0.01329  1.0000
  H   H2012     1.0  0.70214  0.54875  0.04365  1.0000
  H   H2013     1.0  0.75261  0.57843  0.01672  1.0000
  H   H2014     1.0  0.81984  0.50120  0.02268  1.0000
  H   H2015     1.0  0.98947  0.57700  0.16729  1.0000
  C   C2014     1.0  0.92939  0.57941  0.05992  1.0000
  H   H2016     1.0  0.79126  0.52977  0.04161  1.0000
  H   H2017     1.0  0.68029  0.57555  0.03485  1.0000
  H   H2018     1.0  0.81775  0.54027  0.03762  1.0000
  H   H2019     1.0  0.74578  0.59155  0.03284  1.0000
  C   C2015     1.0  0.90263  0.54521  0.08352  1.0000
  H   H2020     1.0  0.88833  0.54476  0.06518  1.0000
  Fe  Fe333     1.0  0.87836  0.51173  0.01100  1.0000
  Fe  Fe334     1.0  0.94675  0.54095  0.11355  1.0000
  S   S666      1.0  0.97232  0.53628  0.09493  1.0000
  S   S667      1.0  0.92051  0.54608  0.10685  1.0000
  Fe  Fe335     1.0  0.96430  0.53521  0.14393  1.0000
  C   C2016     1.0  0.92219  0.58337  0.07621  1.0000
  S   S668      1.0  0.95891  0.53255  0.17278  1.0000
  C   C2017     1.0  0.69833  0.59229  0.02758  1.0000
  S   S669      1.0  0.84944  0.49343  0.07288  1.0000
  Fe  Fe336     1.0  0.98051  0.51422  0.11650  1.0000
  H   H2021     1.0  0.98319  0.56432  0.06255  1.0000
  S   S670      1.0  0.95404  0.55914  0.12498  1.0000
  S   S671      1.0  0.95437  0.51773  0.13433  1.0000
  C   C2018     1.0  0.93390  0.53728  0.07491  1.0000
  S   S672      1.0  0.73143  0.52936  0.00421  1.0000
  S   S673      1.0  0.73299  0.57094  0.99128  1.0000
  C   C2019     1.0  0.78912  0.49358  0.02688  1.0000
  C   C2020     1.0  0.71542  0.59300  0.02648  1.0000
  C   C2021     1.0  0.93832  0.49144  0.07253  1.0000
  C   C2022     1.0  0.90104  0.54268  0.06782  1.0000
  N   N168      1.0  0.95765  0.57971  0.06277  1.0000
  H   H2022     1.0  0.95283  0.57383  0.04099  1.0000
  H   H2023     1.0  0.94387  0.53131  0.04955  1.0000
  C   C2023     1.0  0.93289  0.58529  0.08580  1.0000
  H   H2024     1.0  0.89108  0.54926  0.09292  1.0000
  C   C2024     1.0  0.97534  0.53433  0.18168  1.0000
  C   C2025     1.0  0.74522  0.57923  0.03013  1.0000
  C   C2026     1.0  0.95070  0.58342  0.07884  1.0000
  S   S674      1.0  0.88244  0.49664  0.99073  1.0000
  H   H2025     1.0  0.68899  0.60391  0.02301  1.0000
  C   C2027     1.0  0.97254  0.53184  0.19973  1.0000
  H   H2026     1.0  0.80748  0.57532  0.98977  1.0000
  C   C2028     1.0  0.91591  0.53763  0.05553  1.0000
  H   H2027     1.0  0.82346  0.53569  0.98689  1.0000
  H   H2028     1.0  0.96042  0.52909  0.20787  1.0000
  H   H2029     1.0  0.93193  0.51600  0.23105  1.0000
  C   C2029     1.0  0.94729  0.57743  0.05343  1.0000
  C   C2030     1.0  0.68292  0.59684  0.98819  1.0000
  C   C2031     1.0  0.78455  0.54611  0.01765  1.0000
  S   S675      1.0  0.68545  0.56194  0.00407  1.0000
  C   C2032     1.0  0.90088  0.50417  0.10805  1.0000
  C   C2033     1.0  0.80997  0.54536  0.02782  1.0000
  H   H2030     1.0  0.92862  0.49806  0.10436  1.0000
  C   C2034     1.0  0.70569  0.56130  0.03922  1.0000
  S   S676      1.0  0.88162  0.53898  0.00610  1.0000
  C   C2035     1.0  0.78915  0.55897  0.00301  1.0000
  H   H2031     1.0  0.73217  0.55066  0.04168  1.0000
  C   C2036     1.0  0.79492  0.53944  0.03007  1.0000
  Fe  Fe337     1.0  0.71438  0.55471  0.99327  1.0000
  H   H2032     1.0  0.75185  0.56829  0.03934  1.0000
  C   C2037     1.0  0.67423  0.58391  0.99871  1.0000
  C   C2038     1.0  0.93232  0.53516  0.05904  1.0000
  Fe  Fe338     1.0  0.98040  0.55236  0.10805  1.0000
  H   H2033     1.0  0.93947  0.49765  0.05845  1.0000
  H   H2034     1.0  0.92748  0.58763  0.09879  1.0000
  H   H2035     1.0  0.87894  0.50476  0.07820  1.0000
  H   H2036     1.0  0.97995  0.57833  0.04176  1.0000
  N   N169      1.0  0.72724  0.57826  0.03194  1.0000
  C   C2039     1.0  0.90688  0.49845  0.07498  1.0000
  H   H2037     1.0  0.71922  0.60539  0.02103  1.0000
  H   H2038     1.0  0.98283  0.53130  0.22131  1.0000
  H   H2039     1.0  0.90918  0.49657  0.06191  1.0000
  H   H2040     1.0  0.78114  0.56427  0.99341  1.0000
  H   H2041     1.0  0.94780  0.49546  0.07715  1.0000
  H   H2042     1.0  0.94482  0.51026  0.20226  1.0000
  C   C2040     1.0  0.88682  0.50604  0.10072  1.0000
  S   S677      1.0  0.88878  0.50235  0.03536  1.0000
  H   H2043     1.0  0.95896  0.58473  0.08647  1.0000
  C   C2041     1.0  0.69344  0.57635  0.03419  1.0000
  H   H2044     1.0  0.78986  0.50316  0.03372  1.0000
  H   H2045     1.0  0.77723  0.49899  0.02141  1.0000
  N   N170      1.0  0.92058  0.49677  0.08221  1.0000
  C   C2042     1.0  0.83434  0.49137  0.00002  1.0000
  C   C2043     1.0  0.81937  0.49503  0.01277  1.0000
  C   C2044     1.0  0.94751  0.49647  0.20826  1.0000
  N   N171      1.0  0.80453  0.49037  0.01309  1.0000
  H   H2046     1.0  0.95453  0.48894  0.18365  1.0000
  C   C2045     1.0  0.99099  0.53822  0.17124  1.0000
  S   S678      1.0  0.99120  0.52972  0.12775  1.0000
  C   C2046     1.0  0.67377  0.61431  0.98457  1.0000
  S   S679      1.0  0.97862  0.77392  0.34739  1.0000
  C   C2047     1.0  0.94768  0.74715  0.34528  1.0000
  C   C2048     1.0  0.98188  0.60141  0.29540  1.0000
  N   N172      1.0  0.94223  0.76491  0.34180  1.0000
  H   H2047     1.0  0.82796  0.94342  0.41208  1.0000
  C   C2049     1.0  0.87291  0.95875  0.31984  1.0000
  C   C2050     1.0  0.90264  0.97644  0.44848  1.0000
  C   C2051     1.0  0.80808  0.92979  0.41569  1.0000
  H   H2048     1.0  0.65838  0.89388  0.33314  1.0000
  H   H2049     1.0  0.76505  0.95912  0.32680  1.0000
  C   C2052     1.0  0.67682  0.86528  0.25749  1.0000
  C   C2053     1.0  0.66715  0.97413  0.30519  1.0000
  Fe  Fe339     1.0  0.97818  0.52356  0.26441  1.0000
  S   S680      1.0  0.95484  0.51201  0.27105  1.0000
  Fe  Fe340     1.0  0.96927  0.76391  0.37591  1.0000
  H   H2050     1.0  0.73829  0.92632  0.41808  1.0000
  C   C2054     1.0  0.93073  0.66521  0.43155  1.0000
  C   C2055     1.0  0.90230  0.94844  0.36329  1.0000
  H   H2051     1.0  0.67989  0.98103  0.43688  1.0000
  C   C2056     1.0  0.96308  0.81246  0.43713  1.0000
  C   C2057     1.0  0.93723  0.67042  0.45673  1.0000
  C   C2058     1.0  0.94645  0.78487  0.44571  1.0000
  S   S681      1.0  0.95088  0.62689  0.38769  1.0000
  C   C2059     1.0  0.99045  0.58729  0.28747  1.0000
  C   C2060     1.0  0.90141  0.95909  0.37429  1.0000
  H   H2052     1.0  0.68880  0.86815  0.24892  1.0000
  H   H2053     1.0  0.89552  0.93789  0.36828  1.0000
  H   H2054     1.0  0.93277  0.76737  0.36806  1.0000
  C   C2061     1.0  0.80422  0.90807  0.44243  1.0000
  C   C2062     1.0  0.96202  0.62363  0.41784  1.0000
  H   H2055     1.0  0.94023  0.77402  0.44909  1.0000
  H   H2056     1.0  0.98332  0.61764  0.31141  1.0000
  Fe  Fe341     1.0  0.69795  0.90318  0.33281  1.0000
  S   S682      1.0  0.67877  0.91324  0.35516  1.0000
  S   S683      1.0  0.69287  0.89462  0.31095  1.0000
  Fe  Fe342     1.0  0.72846  0.91201  0.34089  1.0000
  S   S684      1.0  0.71178  0.92316  0.36339  1.0000
  S   S685      1.0  0.75687  0.91249  0.33133  1.0000
  Fe  Fe343     1.0  0.69998  0.90002  0.37027  1.0000
  S   S686      1.0  0.69483  0.88649  0.39865  1.0000
  Fe  Fe344     1.0  0.69235  0.93528  0.34656  1.0000
  S   S687      1.0  0.67963  0.96348  0.34384  1.0000
  S   S688      1.0  0.71812  0.88773  0.34873  1.0000
  S   S689      1.0  0.71005  0.92641  0.32322  1.0000
  S   S690      1.0  0.74581  0.89237  0.44131  1.0000
  S   S691      1.0  0.91768  0.89264  0.44343  1.0000
  Fe  Fe345     1.0  0.86425  0.88936  0.37045  1.0000
  S   S692      1.0  0.84573  0.89987  0.39288  1.0000
  S   S693      1.0  0.87650  0.86082  0.37858  1.0000
  Fe  Fe346     1.0  0.85750  0.92448  0.34556  1.0000
  S   S694      1.0  0.83822  0.93741  0.36579  1.0000
  C   C2063     1.0  0.96002  0.73882  0.33294  1.0000
  Fe  Fe347     1.0  0.85771  0.92299  0.38223  1.0000
  S   S695      1.0  0.86395  0.93774  0.39800  1.0000
  Fe  Fe348     1.0  0.82810  0.91310  0.37413  1.0000
  S   S696      1.0  0.79934  0.91458  0.38402  1.0000
  S   S697      1.0  0.87779  0.91154  0.36152  1.0000
  S   S698      1.0  0.84571  0.90108  0.35230  1.0000
  C   C2064     1.0  0.90600  0.90671  0.42802  1.0000
  C   C2065     1.0  0.90444  0.90096  0.41411  1.0000
  C   C2066     1.0  0.89169  0.91057  0.40451  1.0000
  C   C2067     1.0  0.88112  0.92626  0.40839  1.0000
  C   C2068     1.0  0.88380  0.93269  0.42126  1.0000
  C   C2069     1.0  0.89609  0.92281  0.43118  1.0000
  H   H2057     1.0  0.91245  0.88871  0.41134  1.0000
  H   H2058     1.0  0.88984  0.90564  0.39440  1.0000
  H   H2059     1.0  0.87583  0.94495  0.42412  1.0000
  H   H2060     1.0  0.89742  0.92727  0.44181  1.0000
  C   C2070     1.0  0.70849  0.88881  0.41067  1.0000
  C   C2071     1.0  0.70375  0.88579  0.42889  1.0000
  C   C2072     1.0  0.71490  0.88717  0.43854  1.0000
  C   C2073     1.0  0.73101  0.89112  0.42997  1.0000
  C   C2074     1.0  0.73565  0.89416  0.41182  1.0000
  C   C2075     1.0  0.72439  0.89321  0.40219  1.0000
  H   H2061     1.0  0.69145  0.88234  0.43553  1.0000
  H   H2062     1.0  0.71119  0.88478  0.45257  1.0000
  H   H2063     1.0  0.74806  0.89715  0.40519  1.0000
  H   H2064     1.0  0.72826  0.89532  0.38821  1.0000
  C   C2076     1.0  0.76821  0.91446  0.34576  1.0000
  C   C2077     1.0  0.78589  0.91464  0.34000  1.0000
  C   C2078     1.0  0.79556  0.91504  0.35153  1.0000
  C   C2079     1.0  0.78751  0.91540  0.36884  1.0000
  C   C2080     1.0  0.76975  0.91580  0.37444  1.0000
  C   C2081     1.0  0.76013  0.91517  0.36299  1.0000
  H   H2065     1.0  0.79222  0.91411  0.32666  1.0000
  H   H2066     1.0  0.80924  0.91489  0.34705  1.0000
  H   H2067     1.0  0.76347  0.91659  0.38769  1.0000
  H   H2068     1.0  0.74655  0.91505  0.36758  1.0000
  H   H2069     1.0  0.67752  0.93283  0.29906  1.0000
  C   C2082     1.0  0.91789  0.84811  0.33988  1.0000
  C   C2083     1.0  0.90297  0.85767  0.34928  1.0000
  C   C2084     1.0  0.89482  0.84963  0.36575  1.0000
  C   C2085     1.0  0.90157  0.83209  0.37268  1.0000
  C   C2086     1.0  0.91656  0.82270  0.36347  1.0000
  C   C2087     1.0  0.67218  0.89793  0.30645  1.0000
  H   H2070     1.0  0.89779  0.87120  0.34378  1.0000
  H   H2071     1.0  0.89524  0.82573  0.38532  1.0000
  H   H2072     1.0  0.92134  0.80919  0.36900  1.0000
  N   N173      1.0  0.97916  0.57807  0.34197  1.0000
  H   H2073     1.0  0.67995  0.94639  0.37966  1.0000
  H   H2074     1.0  0.89334  0.95536  0.44617  1.0000
  C   C2088     1.0  0.87063  0.96368  0.33548  1.0000
  C   C2089     1.0  0.95388  0.79128  0.42832  1.0000
  H   H2075     1.0  0.74510  0.94920  0.42778  1.0000
  C   C2090     1.0  0.68220  0.97052  0.36095  1.0000
  C   C2091     1.0  0.96078  0.76686  0.31334  1.0000
  Fe  Fe349     1.0  0.73490  0.89886  0.46771  1.0000
  H   H2076     1.0  0.95710  0.81129  0.46458  1.0000
  C   C2092     1.0  0.95894  0.62292  0.43580  1.0000
  C   C2093     1.0  0.92637  0.96875  0.46243  1.0000
  S   S699      1.0  0.96090  0.73833  0.38494  1.0000
  H   H2077     1.0  0.97310  0.68263  0.36814  1.0000
  H   H2078     1.0  0.92602  0.66072  0.40868  1.0000
  C   C2094     1.0  0.67596  0.95982  0.29774  1.0000
  C   C2095     1.0  0.88187  0.96778  0.30446  1.0000
  H   H2079     1.0  0.95927  0.57937  0.32916  1.0000
  C   C2096     1.0  0.79955  0.91692  0.42658  1.0000
  H   H2080     1.0  0.92387  0.92914  0.33601  1.0000
  H   H2081     1.0  0.93254  0.48999  0.29164  1.0000
  H   H2082     1.0  0.93546  0.97249  0.46731  1.0000
  H   H2083     1.0  0.79768  0.89802  0.45100  1.0000
  S   S700      1.0  0.97759  0.63918  0.46990  1.0000
  C   C2097     1.0  0.66341  0.86443  0.25060  1.0000
  N   N174      1.0  0.70129  0.95960  0.43966  1.0000
  H   H2084     1.0  0.96461  0.72474  0.33591  1.0000
  H   H2085     1.0  0.68404  0.94633  0.43622  1.0000
  S   S701      1.0  0.97816  0.55022  0.24720  1.0000
  H   H2086     1.0  0.95671  0.70452  0.38594  1.0000
  C   C2098     1.0  0.87717  0.97768  0.33567  1.0000
  H   H2087     1.0  0.97472  0.62444  0.40980  1.0000
  C   C2099     1.0  0.81753  0.91214  0.44707  1.0000
  H   H2088     1.0  0.96874  0.60803  0.29409  1.0000
  C   C2100     1.0  0.67087  0.90067  0.28913  1.0000
  H   H2089     1.0  0.91662  0.62021  0.44692  1.0000
  C   C2101     1.0  0.93496  0.66403  0.41415  1.0000
  C   C2102     1.0  0.96820  0.70681  0.37616  1.0000
  C   C2103     1.0  0.74083  0.95799  0.37443  1.0000
  C   C2104     1.0  0.67461  0.86261  0.27552  1.0000
  H   H2090     1.0  0.73878  0.94953  0.32390  1.0000
  C   C2105     1.0  0.75834  0.95864  0.36960  1.0000
  H   H2091     1.0  0.78948  0.91368  0.42263  1.0000
  C   C2106     1.0  0.95819  0.67105  0.42877  1.0000
  H   H2092     1.0  0.85823  0.98291  0.47821  1.0000
  C   C2107     1.0  0.67086  0.94400  0.30476  1.0000
  C   C2108     1.0  0.91235  0.94012  0.33506  1.0000
  H   H2093     1.0  0.85210  0.91834  0.43809  1.0000
  C   C2109     1.0  0.73229  0.95799  0.36184  1.0000
  C   C2110     1.0  0.91920  0.97574  0.35084  1.0000
  H   H2094     1.0  0.68219  0.90206  0.27878  1.0000
  N   N175      1.0  0.74095  0.95851  0.34496  1.0000
  C   C2111     1.0  0.95121  0.66615  0.40408  1.0000
  C   C2112     1.0  0.96295  0.66968  0.41139  1.0000
  S   S702      1.0  0.99066  0.76928  0.38425  1.0000
  H   H2095     1.0  0.94394  0.78886  0.32313  1.0000
  C   C2113     1.0  0.68548  0.98703  0.35785  1.0000
  H   H2096     1.0  0.92793  0.68305  0.45775  1.0000
  C   C2114     1.0  0.96671  0.74877  0.31694  1.0000
  H   H2097     1.0  0.82132  0.90506  0.45927  1.0000
  H   H2098     1.0  0.96593  0.77477  0.30098  1.0000
  H   H2099     1.0  0.95481  0.66453  0.39078  1.0000
  C   C2115     1.0  0.92932  0.62118  0.43887  1.0000
  H   H2100     1.0  0.88372  0.96401  0.29234  1.0000
  C   C2116     1.0  0.68708  0.97263  0.44708  1.0000
  H   H2101     1.0  0.95800  0.72018  0.48264  1.0000
  C   C2117     1.0  0.71818  0.96056  0.43720  1.0000
  C   C2118     1.0  0.90999  0.97276  0.36802  1.0000
  C   C2119     1.0  0.91976  0.96491  0.34016  1.0000
  H   H2102     1.0  0.94278  0.73935  0.35783  1.0000
  H   H2103     1.0  0.67812  0.96610  0.45811  1.0000
  C   C2120     1.0  0.88872  0.98151  0.30472  1.0000
  H   H2104     1.0  0.91630  0.77172  0.35558  1.0000
  C   C2121     1.0  0.91514  0.94609  0.45881  1.0000
  C   C2122     1.0  0.94834  0.77476  0.32595  1.0000
  H   H2105     1.0  0.96923  0.62324  0.44148  1.0000
  H   H2106     1.0  0.96734  0.67388  0.43436  1.0000
  C   C2123     1.0  0.75816  0.95890  0.34016  1.0000
  H   H2107     1.0  0.95601  0.59753  0.34795  1.0000
  H   H2108     1.0  0.76513  0.95900  0.37908  1.0000
  C   C2124     1.0  0.68754  0.96385  0.39002  1.0000
  H   H2109     1.0  0.97615  0.60411  0.34356  1.0000
  H   H2110     1.0  0.91544  0.93240  0.46055  1.0000
  H   H2111     1.0  0.89396  0.95690  0.38756  1.0000
  H   H2112     1.0  0.90053  0.93478  0.33864  1.0000
  S   S703      1.0  0.87233  0.90904  0.46849  1.0000
  H   H2113     1.0  0.96929  0.82328  0.43387  1.0000
  Fe  Fe350     1.0  0.95535  0.62604  0.48255  1.0000
  N   N176      1.0  0.82575  0.92483  0.43635  1.0000
  H   H2114     1.0  0.81505  0.87069  0.47234  1.0000
  H   H2115     1.0  0.92415  0.85432  0.32713  1.0000
  Fe  Fe351     1.0  0.89948  0.89385  0.46923  1.0000
  S   S704      1.0  0.93721  0.62206  0.46857  1.0000
  C   C2125     1.0  0.82126  0.93356  0.42077  1.0000
  S   S705      1.0  0.94376  0.81867  0.33541  1.0000
  C   C2126     1.0  0.92490  0.83063  0.34708  1.0000
  C   C2127     1.0  0.71066  0.93478  0.42666  1.0000
  C   C2128     1.0  0.97744  0.69443  0.36615  1.0000
  H   H2116     1.0  0.66130  0.84173  0.31056  1.0000
  H   H2117     1.0  0.86391  0.95671  0.34747  1.0000
  H   H2118     1.0  0.96924  0.58965  0.36392  1.0000
  N   N177      1.0  0.89555  0.86221  0.43019  1.0000
  C   C2129     1.0  0.89607  0.85905  0.41452  1.0000
  C   C2130     1.0  0.90983  0.85595  0.43752  1.0000
  C   C2131     1.0  0.91135  0.84989  0.40552  1.0000
  C   C2132     1.0  0.92531  0.84675  0.42886  1.0000
  C   C2133     1.0  0.92605  0.84370  0.41276  1.0000
  C   C2134     1.0  0.87949  0.87199  0.43939  1.0000
  H   H2119     1.0  0.88472  0.86381  0.40877  1.0000
  H   H2120     1.0  0.90949  0.85848  0.44990  1.0000
  C   C2135     1.0  0.93232  0.62210  0.42102  1.0000
  H   H2121     1.0  0.93670  0.84222  0.43452  1.0000
  N   N178      1.0  0.94230  0.66866  0.43863  1.0000
  H   H2122     1.0  0.87179  0.88148  0.43010  1.0000
  H   H2123     1.0  0.87148  0.86291  0.44838  1.0000
  H   H2124     1.0  0.88240  0.87970  0.44700  1.0000
  S   S706      1.0  0.70158  0.98446  0.40082  1.0000
  H   H2125     1.0  0.71840  0.95709  0.33749  1.0000
  C   C2136     1.0  0.73165  0.95949  0.33167  1.0000
  Fe  Fe352     1.0  0.97360  0.79588  0.38497  1.0000
  C   C2137     1.0  0.73174  0.94851  0.42956  1.0000
  H   H2126     1.0  0.89300  0.98620  0.44218  1.0000
  H   H2127     1.0  0.91833  0.66288  0.43950  1.0000
  H   H2128     1.0  0.68856  0.95473  0.40225  1.0000
  C   C2138     1.0  0.68279  0.95908  0.37717  1.0000
  S   S707      1.0  0.97252  0.81258  0.40276  1.0000
  H   H2129     1.0  0.78074  0.95940  0.34859  1.0000
  C   C2139     1.0  0.97201  0.57263  0.33176  1.0000
  H   H2130     1.0  0.68504  0.86342  0.28080  1.0000
  N   N179      1.0  0.65934  0.85946  0.28634  1.0000
  H   H2131     1.0  0.94859  0.66994  0.46183  1.0000
  N   N180      1.0  0.77533  0.86883  0.38896  1.0000
  C   C2140     1.0  0.75998  0.86407  0.39150  1.0000
  C   C2141     1.0  0.78509  0.87280  0.37254  1.0000
  C   C2142     1.0  0.75352  0.86429  0.37732  1.0000
  C   C2143     1.0  0.77919  0.87279  0.35809  1.0000
  C   C2144     1.0  0.76315  0.86884  0.36050  1.0000
  C   C2145     1.0  0.78158  0.86952  0.40382  1.0000
  H   H2132     1.0  0.75231  0.86066  0.40452  1.0000
  H   H2133     1.0  0.79728  0.87654  0.37051  1.0000
  H   H2134     1.0  0.74091  0.86137  0.37936  1.0000
  H   H2135     1.0  0.78662  0.87660  0.34503  1.0000
  H   H2136     1.0  0.75810  0.86961  0.34932  1.0000
  H   H2137     1.0  0.78600  0.88182  0.40115  1.0000
  H   H2138     1.0  0.77118  0.86935  0.41584  1.0000
  H   H2139     1.0  0.79257  0.85827  0.40632  1.0000
  C   C2146     1.0  0.94073  0.50390  0.23662  1.0000
  C   C2147     1.0  0.90283  0.95889  0.45067  1.0000
  H   H2140     1.0  0.95329  0.78546  0.41826  1.0000
  C   C2148     1.0  0.92942  0.77327  0.35506  1.0000
  H   H2141     1.0  0.92909  0.78741  0.35228  1.0000
  Fe  Fe353     1.0  0.96170  0.79970  0.35228  1.0000
  H   H2142     1.0  0.97653  0.74244  0.30741  1.0000
  S   S708      1.0  0.95095  0.78920  0.38029  1.0000
  H   H2143     1.0  0.71864  0.95791  0.36559  1.0000
  H   H2144     1.0  0.83151  0.97671  0.32426  1.0000
  C   C2149     1.0  0.69744  0.94689  0.43456  1.0000
  C   C2150     1.0  0.76710  0.95901  0.35239  1.0000
  H   H2145     1.0  0.92190  0.62196  0.41541  1.0000
  H   H2146     1.0  0.91182  0.84770  0.39295  1.0000
  Fe  Fe354     1.0  0.97700  0.62998  0.37124  1.0000
  C   C2151     1.0  0.94790  0.79191  0.45878  1.0000
  H   H2147     1.0  0.84264  0.94135  0.43413  1.0000
  S   S709      1.0  0.86484  0.94134  0.31919  1.0000
  H   H2148     1.0  0.83716  0.92795  0.45539  1.0000
  C   C2152     1.0  0.84009  0.92831  0.44125  1.0000
  H   H2149     1.0  0.70750  0.92489  0.42239  1.0000
  S   S710      1.0  0.98188  0.64282  0.34264  1.0000
  H   H2150     1.0  0.93801  0.83661  0.40586  1.0000
  H   H2151     1.0  0.93115  0.65957  0.46518  1.0000
  S   S711      1.0  0.71149  0.95894  0.47986  1.0000
  C   C2153     1.0  0.97352  0.72238  0.37326  1.0000
  H   H2152     1.0  0.92659  0.96763  0.32669  1.0000
  C   C2154     1.0  0.95611  0.80576  0.45449  1.0000
  H   H2153     1.0  0.93647  0.94116  0.47133  1.0000
  C   C2155     1.0  0.92698  0.95102  0.46479  1.0000
  C   C2156     1.0  0.96963  0.59305  0.34972  1.0000
  C   C2157     1.0  0.94248  0.62182  0.44631  1.0000
  C   C2158     1.0  0.94856  0.62358  0.41036  1.0000
  C   C2159     1.0  0.96231  0.80498  0.42411  1.0000
  Fe  Fe355     1.0  0.98995  0.55503  0.26668  1.0000
  C   C2160     1.0  0.98138  0.55880  0.32377  1.0000
  S   S712      1.0  0.74814  0.91619  0.47398  1.0000
  H   H2154     1.0  0.97568  0.67122  0.40368  1.0000
  S   S713      1.0  0.94089  0.78257  0.48057  1.0000
  C   C2161     1.0  0.72790  0.93564  0.42416  1.0000
  H   H2155     1.0  0.73370  0.95809  0.38766  1.0000
  H   H2156     1.0  0.91320  0.94745  0.32130  1.0000
  H   H2157     1.0  0.80472  0.93659  0.40321  1.0000
  N   N181      1.0  0.91127  0.95154  0.34640  1.0000
  H   H2158     1.0  0.68661  0.96098  0.28658  1.0000
  S   S714      1.0  0.98740  0.52937  0.28504  1.0000
  H   H2159     1.0  0.72122  0.97069  0.44114  1.0000
  S   S715      1.0  0.70800  0.91434  0.47587  1.0000
  S   S716      1.0  0.97902  0.57992  0.27664  1.0000
  H   H2160     1.0  0.97599  0.55509  0.31501  1.0000
  H   H2161     1.0  0.93386  0.49885  0.25004  1.0000
  H   H2162     1.0  0.66568  0.86266  0.30867  1.0000
  H   H2163     1.0  0.90935  0.98113  0.37642  1.0000
  N   N182      1.0  0.91424  0.98120  0.45440  1.0000
  C   C2162     1.0  0.69196  0.97994  0.38650  1.0000
  H   H2164     1.0  0.92557  0.98660  0.34567  1.0000
  H   H2165     1.0  0.73021  0.97270  0.32297  1.0000
  H   H2166     1.0  0.87545  0.98128  0.34778  1.0000
  S   S717      1.0  0.98343  0.80783  0.35717  1.0000
  S   S718      1.0  0.96212  0.68455  0.48249  1.0000
  H   H2167     1.0  0.67121  0.98634  0.29974  1.0000
  C   C2163     1.0  0.88632  0.98656  0.32029  1.0000
  C   C2164     1.0  0.98824  0.72540  0.36045  1.0000
  H   H2168     1.0  0.69193  0.98118  0.45212  1.0000
  S   S719      1.0  0.84527  0.87490  0.48021  1.0000
  H   H2169     1.0  0.95258  0.50736  0.23744  1.0000
  C   C2165     1.0  0.99007  0.60682  0.30529  1.0000
  H   H2170     1.0  0.66481  0.86664  0.23663  1.0000
  C   C2166     1.0  0.95736  0.48947  0.27397  1.0000
  H   H2171     1.0  0.80897  0.98505  0.33217  1.0000
  C   C2167     1.0  0.81086  0.87626  0.48370  1.0000
  S   S720      1.0  0.96020  0.54814  0.62685  1.0000
  H   H2172     1.0  0.88889  0.82934  0.54434  1.0000
  H   H2173     1.0  0.96681  0.54894  0.66094  1.0000
  Fe  Fe356     1.0  0.95742  0.53223  0.61000  1.0000
  H   H2174     1.0  0.68849  0.94304  0.51173  1.0000
  C   C2168     1.0  0.70324  0.85735  0.55254  1.0000
  H   H2175     1.0  0.91230  0.52583  0.66742  1.0000
  S   S721      1.0  0.94168  0.54350  0.58928  1.0000
  H   H2176     1.0  0.95504  0.68725  0.55315  1.0000
  Fe  Fe357     1.0  0.70883  0.89664  0.50228  1.0000
  Fe  Fe358     1.0  0.97357  0.78665  0.52134  1.0000
  S   S722      1.0  0.94234  0.64405  0.50085  1.0000
  S   S723      1.0  0.96506  0.80378  0.54053  1.0000
  H   H2177     1.0  0.94601  0.65722  0.53161  1.0000
  C   C2169     1.0  0.94157  0.71125  0.53914  1.0000
  S   S724      1.0  0.95761  0.76842  0.52174  1.0000
  H   H2178     1.0  0.69750  0.90081  0.54078  1.0000
  H   H2179     1.0  0.92818  0.73302  0.52224  1.0000
  S   S725      1.0  0.71999  0.91349  0.51128  1.0000
  S   S726      1.0  0.68475  0.88740  0.51858  1.0000
  C   C2170     1.0  0.98581  0.69219  0.51631  1.0000
  C   C2171     1.0  0.91381  0.55950  0.62366  1.0000
  C   C2172     1.0  0.79310  0.88024  0.49139  1.0000
  S   S727      1.0  0.76564  0.89079  0.51705  1.0000
  C   C2173     1.0  0.65985  0.90182  0.57131  1.0000
  S   S728      1.0  0.89123  0.86976  0.48635  1.0000
  Fe  Fe359     1.0  0.87384  0.91775  0.49143  1.0000
  Fe  Fe360     1.0  0.86406  0.88585  0.48723  1.0000
  Fe  Fe361     1.0  0.89096  0.88136  0.50808  1.0000
  H   H2180     1.0  0.93104  0.57818  0.64375  1.0000
  S   S729      1.0  0.89862  0.86541  0.53315  1.0000
  Fe  Fe362     1.0  0.96580  0.65542  0.48987  1.0000
  Fe  Fe363     1.0  0.98284  0.74920  0.51667  1.0000
  S   S730      1.0  0.96902  0.60528  0.50213  1.0000
  H   H2181     1.0  0.91603  0.80692  0.53943  1.0000
  S   S731      1.0  0.98007  0.63743  0.50990  1.0000
  S   S732      1.0  0.94617  0.52294  0.67593  1.0000
  S   S733      1.0  0.86291  0.89574  0.51044  1.0000
  C   C2174     1.0  0.90911  0.53145  0.64100  1.0000
  C   C2175     1.0  0.67653  0.94217  0.52136  1.0000
  H   H2182     1.0  0.90949  0.58931  0.64007  1.0000
  N   N183      1.0  0.70151  0.86257  0.56748  1.0000
  H   H2183     1.0  0.71876  0.85539  0.52698  1.0000
  H   H2184     1.0  0.86905  0.85489  0.52834  1.0000
  C   C2176     1.0  0.73062  0.86599  0.54087  1.0000
  C   C2177     1.0  0.95472  0.53449  0.68539  1.0000
  H   H2185     1.0  0.88031  0.83138  0.49482  1.0000
  H   H2186     1.0  0.68409  0.90815  0.56943  1.0000
  H   H2187     1.0  0.94230  0.59181  0.53771  1.0000
  C   C2178     1.0  0.96438  0.54668  0.67493  1.0000
  H   H2188     1.0  0.68876  0.84730  0.59024  1.0000
  C   C2179     1.0  0.90974  0.54362  0.62517  1.0000
  C   C2180     1.0  0.82587  0.98334  0.51129  1.0000
  H   H2189     1.0  0.97794  0.56585  0.67448  1.0000
  C   C2181     1.0  0.94215  0.57041  0.56029  1.0000
  N   N184      1.0  0.91728  0.56308  0.63751  1.0000
  C   C2182     1.0  0.80002  0.88994  0.51341  1.0000
  H   H2190     1.0  0.81436  0.98144  0.52191  1.0000
  C   C2183     1.0  0.67515  0.89354  0.53861  1.0000
  H   H2191     1.0  0.68513  0.95372  0.55407  1.0000
  H   H2192     1.0  0.79586  0.89506  0.52505  1.0000
  C   C2184     1.0  0.94728  0.82154  0.53738  1.0000
  C   C2185     1.0  0.93716  0.82817  0.55178  1.0000
  C   C2186     1.0  0.92253  0.84183  0.55009  1.0000
  C   C2187     1.0  0.91805  0.84934  0.53390  1.0000
  C   C2188     1.0  0.92838  0.84309  0.51926  1.0000
  C   C2189     1.0  0.94290  0.82904  0.52105  1.0000
  H   H2193     1.0  0.94045  0.82252  0.56440  1.0000
  H   H2194     1.0  0.91462  0.84657  0.56145  1.0000
  H   H2195     1.0  0.92497  0.84879  0.50671  1.0000
  H   H2196     1.0  0.95071  0.82411  0.50981  1.0000
  C   C2190     1.0  0.66370  0.93648  0.51766  1.0000
  H   H2197     1.0  0.94434  0.52214  0.71167  1.0000
  H   H2198     1.0  0.94547  0.71933  0.54516  1.0000
  C   C2191     1.0  0.97056  0.69420  0.49401  1.0000
  C   C2192     1.0  0.94706  0.69309  0.54351  1.0000
  H   H2199     1.0  0.90775  0.80923  0.48929  1.0000
  S   S734      1.0  0.86205  0.94633  0.49067  1.0000
  H   H2200     1.0  0.73788  0.95520  0.52802  1.0000
  H   H2201     1.0  0.93088  0.68225  0.51560  1.0000
  H   H2202     1.0  0.96364  0.66044  0.53824  1.0000
  S   S735      1.0  0.97757  0.79815  0.49272  1.0000
  C   C2193     1.0  0.68434  0.89972  0.54673  1.0000
  H   H2203     1.0  0.96639  0.73422  0.50101  1.0000
  C   C2194     1.0  0.82319  0.87954  0.49057  1.0000
  H   H2204     1.0  0.82711  0.88910  0.51077  1.0000
  C   C2195     1.0  0.86254  0.98058  0.53150  1.0000
  C   C2196     1.0  0.89746  0.96623  0.50066  1.0000
  H   H2205     1.0  0.74192  0.86748  0.53043  1.0000
  C   C2197     1.0  0.72653  0.95667  0.50668  1.0000
  C   C2198     1.0  0.72884  0.87116  0.55617  1.0000
  H   H2206     1.0  0.90829  0.96155  0.50712  1.0000
  C   C2199     1.0  0.72261  0.98090  0.51983  1.0000
  C   C2200     1.0  0.88898  0.95426  0.49896  1.0000
  H   H2207     1.0  0.94333  0.65863  0.55360  1.0000
  C   C2201     1.0  0.97070  0.55624  0.68260  1.0000
  N   N185      1.0  0.88299  0.83158  0.51992  1.0000
  H   H2208     1.0  0.66590  0.93256  0.50551  1.0000
  H   H2209     1.0  0.95614  0.53852  0.72519  1.0000
  C   C2202     1.0  0.65910  0.94517  0.54918  1.0000
  H   H2210     1.0  0.89319  0.94047  0.50423  1.0000
  C   C2203     1.0  0.97092  0.72034  0.50213  1.0000
  C   C2204     1.0  0.98078  0.68416  0.50604  1.0000
  N   N186      1.0  0.94307  0.68288  0.53523  1.0000
  S   S736      1.0  0.73477  0.87950  0.49340  1.0000
  H   H2211     1.0  0.92745  0.58519  0.62208  1.0000
  C   C2205     1.0  0.78766  0.88691  0.50640  1.0000
  C   C2206     1.0  0.89169  0.98422  0.49444  1.0000
  H   H2212     1.0  0.90766  0.54061  0.61393  1.0000
  H   H2213     1.0  0.73878  0.87674  0.55755  1.0000
  H   H2214     1.0  0.94979  0.57124  0.59861  1.0000
  C   C2207     1.0  0.95842  0.54087  0.71118  1.0000
  H   H2215     1.0  0.68299  0.87047  0.58946  1.0000
  H   H2216     1.0  0.95222  0.60108  0.58268  1.0000
  C   C2208     1.0  0.94818  0.57555  0.58541  1.0000
  H   H2217     1.0  0.91464  0.56869  0.61115  1.0000
  Fe  Fe364     1.0  0.74595  0.89808  0.50029  1.0000
  C   C2209     1.0  0.86682  0.84467  0.52326  1.0000
  C   C2210     1.0  0.71775  0.85906  0.53900  1.0000
  H   H2218     1.0  0.92568  0.79704  0.51162  1.0000
  C   C2211     1.0  0.81772  0.88654  0.50536  1.0000
  S   S737      1.0  0.98592  0.52181  0.60127  1.0000
  C   C2212     1.0  0.94947  0.59253  0.57637  1.0000
  C   C2213     1.0  0.71416  0.86924  0.56950  1.0000
  C   C2214     1.0  0.95174  0.53161  0.70352  1.0000
  C   C2215     1.0  0.94434  0.56448  0.57751  1.0000
  C   C2216     1.0  0.98083  0.71032  0.51440  1.0000
  C   C2217     1.0  0.92785  0.70840  0.51791  1.0000
  C   C2218     1.0  0.94742  0.59842  0.55916  1.0000
  C   C2219     1.0  0.94929  0.66392  0.53990  1.0000
  C   C2220     1.0  0.89271  0.82467  0.53240  1.0000
  S   S738      1.0  0.94915  0.61978  0.54834  1.0000
  C   C2221     1.0  0.93356  0.69028  0.52259  1.0000
  C   C2222     1.0  0.67678  0.90369  0.56308  1.0000
  C   C2223     1.0  0.91238  0.53533  0.65512  1.0000
  C   C2224     1.0  0.71606  0.96731  0.49510  1.0000
  C   C2225     1.0  0.94397  0.58729  0.55100  1.0000
  Fe  Fe365     1.0  0.95936  0.52402  0.64799  1.0000
  C   C2226     1.0  0.68629  0.86047  0.58161  1.0000
  S   S739      1.0  0.95359  0.50903  0.63203  1.0000
  H   H2219     1.0  0.93913  0.56193  0.55410  1.0000
  C   C2227     1.0  0.72960  0.96340  0.51921  1.0000
  C   C2228     1.0  0.93191  0.71892  0.52624  1.0000
  Fe  Fe366     1.0  0.95774  0.62444  0.51931  1.0000
  C   C2229     1.0  0.96773  0.55335  0.70073  1.0000
  H   H2220     1.0  0.69309  0.85237  0.55075  1.0000
  H   H2221     1.0  0.85675  0.83841  0.53299  1.0000
  H   H2222     1.0  0.91929  0.55404  0.66416  1.0000
  S   S740      1.0  0.98797  0.51365  0.64234  1.0000
  H   H2223     1.0  0.83183  0.97100  0.50670  1.0000
  C   C2230     1.0  0.90808  0.81199  0.52971  1.0000
  H   H2224     1.0  0.92092  0.71423  0.50741  1.0000
  Fe  Fe367     1.0  0.98246  0.50014  0.62488  1.0000
  S   S741      1.0  0.98750  0.75804  0.48774  1.0000
  H   H2225     1.0  0.86170  0.85136  0.51126  1.0000
  H   H2226     1.0  0.90642  0.51891  0.64220  1.0000
  C   C2231     1.0  0.68827  0.95141  0.54073  1.0000
  S   S742      1.0  0.97602  0.56520  0.71009  1.0000
  S   S743      1.0  0.98652  0.72031  0.52771  1.0000
  N   N187      1.0  0.67423  0.94620  0.53704  1.0000
  H   H2227     1.0  0.87256  0.97062  0.53718  1.0000
  C   C2232     1.0  0.88806  0.82600  0.50468  1.0000
  C   C2233     1.0  0.91640  0.55133  0.65317  1.0000
  C   C2234     1.0  0.85040  0.97593  0.52561  1.0000
  H   H2228     1.0  0.71283  0.87334  0.58135  1.0000
  C   C2235     1.0  0.87465  0.96029  0.49106  1.0000
  Fe  Fe368     1.0  0.96321  0.77845  0.49299  1.0000
  H   H2229     1.0  0.69089  0.96357  0.53131  1.0000
  C   C2236     1.0  0.92147  0.57980  0.63577  1.0000
  H   H2230     1.0  0.85110  0.96222  0.52692  1.0000
  S   S744      1.0  0.90181  0.90425  0.49084  1.0000
  H   H2231     1.0  0.73265  0.94338  0.50577  1.0000
  H   H2232     1.0  0.67461  0.86224  0.57637  1.0000
  H   H2233     1.0  0.70035  0.94102  0.53952  1.0000
  H   H2234     1.0  0.98480  0.67025  0.50749  1.0000
  Fe  Fe369     1.0  0.98843  0.53635  0.61944  1.0000
  Fe  Fe370     1.0  0.99018  0.62012  0.49100  1.0000
  C   C2237     1.0  0.70892  0.98477  0.49585  1.0000
  H   H2235     1.0  0.78367  0.87768  0.48602  1.0000
  H   H2236     1.0  0.98300  0.57998  0.55162  1.0000
  C   C2238     1.0  0.90349  0.81348  0.50148  1.0000
  C   C2239     1.0  0.91355  0.80652  0.51407  1.0000
  C   C2240     1.0  0.96595  0.71233  0.49186  1.0000
  C   C2241     1.0  0.86923  0.97816  0.48443  1.0000
  Fe  Fe371     1.0  0.72118  0.92994  0.48437  1.0000
  Fe  Fe372     1.0  0.96804  0.55561  0.77611  1.0000
  S   S745      1.0  0.95288  0.54979  0.76034  1.0000
  C   C2242     1.0  0.67129  0.57584  0.85179  1.0000
  C   C2243     1.0  0.92651  0.50895  0.81518  1.0000
  S   S746      1.0  0.95394  0.57144  0.79622  1.0000
  Fe  Fe373     1.0  0.70247  0.53686  0.86275  1.0000
  S   S747      1.0  0.72010  0.55219  0.86482  1.0000
  S   S748      1.0  0.68885  0.54555  0.84049  1.0000
  Fe  Fe374     1.0  0.70856  0.50964  0.89547  1.0000
  S   S749      1.0  0.72579  0.52317  0.90119  1.0000
  Fe  Fe375     1.0  0.70667  0.54785  0.89285  1.0000
  S   S750      1.0  0.69735  0.57194  0.90361  1.0000
  Fe  Fe376     1.0  0.73774  0.52640  0.87285  1.0000
  S   S751      1.0  0.76662  0.51951  0.86315  1.0000
  S   S752      1.0  0.68780  0.53396  0.89039  1.0000
  S   S753      1.0  0.72169  0.51133  0.86753  1.0000
  S   S754      1.0  0.74845  0.58571  0.94029  1.0000
  Fe  Fe377     1.0  0.87076  0.55028  0.85939  1.0000
  S   S755      1.0  0.85488  0.53140  0.86144  1.0000
  S   S756      1.0  0.87653  0.56998  0.83440  1.0000
  Fe  Fe378     1.0  0.87464  0.53680  0.89686  1.0000
  S   S757      1.0  0.85968  0.51617  0.90227  1.0000
  S   S758      1.0  0.88677  0.54360  0.91475  1.0000
  Fe  Fe379     1.0  0.87439  0.51207  0.87584  1.0000
  Fe  Fe380     1.0  0.84131  0.53713  0.88763  1.0000
  S   S759      1.0  0.81270  0.54137  0.89981  1.0000
  S   S760      1.0  0.89130  0.53050  0.87187  1.0000
  S   S761      1.0  0.85522  0.55819  0.88415  1.0000
  C   C2244     1.0  0.88531  0.53052  0.93588  1.0000
  C   C2245     1.0  0.87638  0.51708  0.94132  1.0000
  C   C2246     1.0  0.87522  0.50692  0.95833  1.0000
  C   C2247     1.0  0.88290  0.51024  0.96996  1.0000
  C   C2248     1.0  0.89169  0.52376  0.96459  1.0000
  C   C2249     1.0  0.89295  0.53384  0.94754  1.0000
  H   H2237     1.0  0.87042  0.51443  0.93247  1.0000
  H   H2238     1.0  0.78971  0.58672  0.89129  1.0000
  H   H2239     1.0  0.94535  0.55159  0.86398  1.0000
  H   H2240     1.0  0.89989  0.54423  0.94339  1.0000
  C   C2250     1.0  0.71247  0.57606  0.91247  1.0000
  C   C2251     1.0  0.72683  0.56301  0.91662  1.0000
  C   C2252     1.0  0.73831  0.56626  0.92454  1.0000
  C   C2253     1.0  0.73557  0.58263  0.92813  1.0000
  C   C2254     1.0  0.72152  0.59588  0.92349  1.0000
  C   C2255     1.0  0.70992  0.59255  0.91574  1.0000
  H   H2241     1.0  0.72883  0.55025  0.91427  1.0000
  H   H2242     1.0  0.74903  0.55591  0.92837  1.0000
  H   H2243     1.0  0.71928  0.60848  0.92645  1.0000
  H   H2244     1.0  0.69891  0.60269  0.91237  1.0000
  C   C2256     1.0  0.77941  0.52358  0.87491  1.0000
  C   C2257     1.0  0.79746  0.52031  0.86897  1.0000
  C   C2258     1.0  0.80788  0.52494  0.87712  1.0000
  C   C2259     1.0  0.80032  0.53278  0.89129  1.0000
  C   C2260     1.0  0.78236  0.53520  0.89782  1.0000
  C   C2261     1.0  0.77189  0.53077  0.88954  1.0000
  H   H2245     1.0  0.80338  0.51464  0.85773  1.0000
  H   H2246     1.0  0.82171  0.52279  0.87213  1.0000
  H   H2247     1.0  0.77643  0.54116  0.90886  1.0000
  H   H2248     1.0  0.75799  0.53353  0.89412  1.0000
  C   C2262     1.0  0.93262  0.56865  0.80485  1.0000
  C   C2263     1.0  0.91889  0.58094  0.79835  1.0000
  C   C2264     1.0  0.90169  0.58078  0.80720  1.0000
  C   C2265     1.0  0.89813  0.56841  0.82265  1.0000
  C   C2266     1.0  0.91183  0.55562  0.82871  1.0000
  C   C2267     1.0  0.92906  0.55574  0.81983  1.0000
  H   H2249     1.0  0.92159  0.59102  0.78684  1.0000
  H   H2250     1.0  0.89117  0.59066  0.80236  1.0000
  H   H2251     1.0  0.90929  0.54585  0.84039  1.0000
  H   H2252     1.0  0.93965  0.54624  0.82492  1.0000
  H   H2253     1.0  0.67788  0.51530  0.83301  1.0000
  C   C2268     1.0  0.68347  0.55223  0.95100  1.0000
  C   C2269     1.0  0.66777  0.59500  0.81835  1.0000
  C   C2270     1.0  0.67801  0.56769  0.83769  1.0000
  C   C2271     1.0  0.67600  0.57728  0.82103  1.0000
  C   C2272     1.0  0.66374  0.57970  0.95433  1.0000
  H   H2254     1.0  0.67277  0.56852  0.86472  1.0000
  H   H2255     1.0  0.68398  0.56696  0.96870  1.0000
  H   H2256     1.0  0.80415  0.52697  0.97399  1.0000
  S   S762      1.0  0.72410  0.55090  0.96608  1.0000
  H   H2257     1.0  0.73409  0.58127  0.87051  1.0000
  S   S763      1.0  0.98189  0.52793  0.78496  1.0000
  H   H2258     1.0  0.94704  0.57586  0.83795  1.0000
  C   C2273     1.0  0.70272  0.49982  0.83783  1.0000
  H   H2259     1.0  0.90793  0.54716  0.79123  1.0000
  H   H2260     1.0  0.77675  0.57266  0.90716  1.0000
  H   H2261     1.0  0.67125  0.61754  0.92941  1.0000
  H   H2262     1.0  0.66698  0.48950  0.83384  1.0000
  H   H2263     1.0  0.93253  0.59827  0.81757  1.0000
  C   C2274     1.0  0.93366  0.56111  0.86126  1.0000
  C   C2275     1.0  0.92515  0.52457  0.80271  1.0000
  C   C2276     1.0  0.93454  0.57491  0.84661  1.0000
  H   H2264     1.0  0.68122  0.57109  0.81009  1.0000
  H   H2265     1.0  0.79659  0.56836  0.87059  1.0000
  H   H2266     1.0  0.89010  0.57065  0.87690  1.0000
  C   C2277     1.0  0.65935  0.62756  0.92929  1.0000
  C   C2278     1.0  0.75467  0.49281  0.92536  1.0000
  N   N188      1.0  0.83840  0.54606  0.96238  1.0000
  C   C2279     1.0  0.84072  0.54943  0.94467  1.0000
  C   C2280     1.0  0.82548  0.53805  0.97286  1.0000
  C   C2281     1.0  0.83012  0.54450  0.93702  1.0000
  Fe  Fe381     1.0  0.74301  0.52722  0.97655  1.0000
  C   C2282     1.0  0.81693  0.53632  0.94759  1.0000
  H   H2267     1.0  0.88371  0.51131  0.83287  1.0000
  H   H2268     1.0  0.85085  0.55593  0.93632  1.0000
  H   H2269     1.0  0.87179  0.53656  0.80143  1.0000
  H   H2270     1.0  0.83201  0.54713  0.92298  1.0000
  C   C2283     1.0  0.77650  0.58402  0.89588  1.0000
  H   H2271     1.0  0.80850  0.53267  0.94172  1.0000
  H   H2272     1.0  0.68064  0.62426  0.97658  1.0000
  C   C2284     1.0  0.75364  0.58391  0.88201  1.0000
  H   H2273     1.0  0.76750  0.59553  0.90054  1.0000
  S   S764      1.0  0.75147  0.50389  0.96442  1.0000
  Fe  Fe382     1.0  0.74399  0.56534  0.96468  1.0000
  C   C2285     1.0  0.77765  0.56644  0.85807  1.0000
  C   C2286     1.0  0.89531  0.51519  0.82436  1.0000
  C   C2287     1.0  0.76000  0.56978  0.85819  1.0000
  H   H2274     1.0  0.92202  0.61293  0.83207  1.0000
  H   H2275     1.0  0.87771  0.55525  0.80393  1.0000
  C   C2288     1.0  0.87701  0.54141  0.80983  1.0000
  C   C2289     1.0  0.67526  0.55166  0.93837  1.0000
  C   C2290     1.0  0.74789  0.57870  0.87015  1.0000
  H   H2276     1.0  0.69448  0.54195  0.95434  1.0000
  H   H2277     1.0  0.91666  0.54903  0.88373  1.0000
  C   C2291     1.0  0.90397  0.58537  0.85365  1.0000
  H   H2278     1.0  0.75207  0.50653  0.92541  1.0000
  C   C2292     1.0  0.91151  0.50421  0.82614  1.0000
  C   C2293     1.0  0.66088  0.60316  0.83239  1.0000
  H   H2279     1.0  0.68025  0.54095  0.93180  1.0000
  H   H2280     1.0  0.89222  0.59458  0.85060  1.0000
  C   C2294     1.0  0.78291  0.57172  0.87024  1.0000
  H   H2281     1.0  0.75573  0.56519  0.84923  1.0000
  C   C2295     1.0  0.68608  0.50226  0.83516  1.0000
  H   H2282     1.0  0.93676  0.52834  0.79415  1.0000
  C   C2296     1.0  0.84899  0.55203  0.97026  1.0000
  N   N189      1.0  0.77092  0.58020  0.88211  1.0000
  H   H2283     1.0  0.74413  0.59071  0.89132  1.0000
  H   H2284     1.0  0.89793  0.52618  0.97342  1.0000
  H   H2285     1.0  0.70747  0.51096  0.83757  1.0000
  C   C2297     1.0  0.67764  0.56634  0.95900  1.0000
  H   H2286     1.0  0.78713  0.55913  0.84912  1.0000
  N   N190      1.0  0.89412  0.53048  0.81203  1.0000
  Fe  Fe383     1.0  0.96815  0.52253  0.76769  1.0000
  H   H2287     1.0  0.68436  0.49552  0.88680  1.0000
  C   C2298     1.0  0.91760  0.55964  0.87228  1.0000
  C   C2299     1.0  0.90265  0.57181  0.86846  1.0000
  N   N191      1.0  0.91978  0.58676  0.84294  1.0000
  C   C2300     1.0  0.92100  0.60155  0.82796  1.0000
  H   H2288     1.0  0.90945  0.60518  0.82205  1.0000
  C   C2301     1.0  0.90878  0.53513  0.80112  1.0000
  H   H2289     1.0  0.86784  0.54136  0.82261  1.0000
  H   H2290     1.0  0.66129  0.63623  0.95105  1.0000
  S   S765      1.0  0.95478  0.50038  0.77646  1.0000
  H   H2291     1.0  0.86854  0.49636  0.96241  1.0000
  S   S766      1.0  0.98971  0.56194  0.75333  1.0000
  C   C2302     1.0  0.81455  0.53307  0.96564  1.0000
  H   H2292     1.0  0.84905  0.49576  0.87759  1.0000
  H   H2293     1.0  0.93919  0.50045  0.81607  1.0000
  H   H2294     1.0  0.91238  0.49205  0.83585  1.0000
  H   H2295     1.0  0.84174  0.56452  0.97405  1.0000
  N   N192      1.0  0.66169  0.56487  0.93378  1.0000
  S   S767      1.0  0.98967  0.52532  0.74425  1.0000
  H   H2296     1.0  0.66667  0.60239  0.80534  1.0000
  H   H2297     1.0  0.86138  0.55414  0.96119  1.0000
  C   C2303     1.0  0.66243  0.59350  0.84919  1.0000
  H   H2298     1.0  0.78092  0.49182  0.91074  1.0000
  S   S768      1.0  0.76379  0.54143  0.97298  1.0000
  H   H2299     1.0  0.77939  0.49002  0.84725  1.0000
  Fe  Fe384     1.0  0.97584  0.55322  0.73837  1.0000
  H   H2300     1.0  0.72943  0.48977  0.94043  1.0000
  C   C2304     1.0  0.68003  0.48785  0.83554  1.0000
  H   H2301     1.0  0.85237  0.54228  0.98207  1.0000
  H   H2302     1.0  0.69672  0.59342  0.98294  1.0000
  H   H2303     1.0  0.65912  0.59066  0.96059  1.0000
  H   H2304     1.0  0.65933  0.57327  0.90748  1.0000
