data_image0
_chemical_formula_structural       CFeS2HSFeS2C2FeS2H3CHCSFeS2HNFeSHCS2NC4H4C7H3CNCH2C2HCSHFeC6H4CH2CH2SC2HFeC3HFeSHCHCHSHCH2Fe3CHSHC3H2CHCH2SC2HSHFeSCHSHC2HC3HFeNC3SC2H3C2H4CHSCH2SC2H3FeC2HC2SC2H2C2H2CNHNH3CFeHC3S2FeC2H3FeSCSH2CHSHC2HCFeH2CSC4FeC2H4C2HC2S2HCSHNC2HCSFeSCH2C2NH4CHC2HCHCH2CHCFeCH2NSFeHCSCSHS2H4CNSCHC2HSCS2FeSCH2CHFeHSC2H3C2HCSFeSCHNSFeC2SCHS3NCH2C2HCSC4FeHC2FeH2CHCH2CH6C2H4CHCH2NHFeCH2FeS2H2FeSCSFeS2FeC2FeNFeS3H3SC3HC3H2C2HFeNSH2C4SCHNC2HSHCFeHCH2CHCFeCH4SHCH2C3H6FeC6HCH2SCHCH2SC6H4C2NHCHCNHC2HCSC3HSCH2C3H4SHSCS2CHC3FeS2FeS2FeCFeS3CSH2SCFeSH2CSC3N2HCH2FeS2CHC2H3SHFeHSCHC2HS2C3SH2SH2C6H5FeCHC7H2CHC6HCH2CSCFeHCSH2C7H5FeHC2S2H4CH7C2H2CH2FeCHFe2C5H2CFeHCH2CS2CHC2NC4SCH2S2H2CHCNCFeHFeH2SCHCSCH4C2SH2NFeHC2HNCS2H2C5HFeH6C3H3CNCHCH4SFeHCH3C2H2CHC2H4SCH3CFe2SC2SCHSH6C2SFeSNCHCNH3CHSCHSHCFeSCSFeSHC2FeSFeCSC2FeS2FeSFeSFeS3HC6HNC2H2CHCH2CHCHC3H2FeH2SHC2NHC6H4C6H4NHCHCFeH2CSCHCH3SCHNC2H6C2HCHC3FeHSCHC5H2SHCHCSHCHNC3HC2HCH3SH4CH3CHCH2SH2C2HFeCHCHSCH2NHCHC2HCH2C2NH2C2HFeHSCHCHCHCSNH4C3HCHFeS2FeS2FeSFeS3FeS2FeS2FeSFeS3H3SHCSCHSHCH4CHCH2C2H2FeC6H2CHC6H4C6H2CHC6H4C3H3SFeS2C2HCH2CFeC2HC4HFeNHSH3CHS2FeH2NFe2SHC2SHSNCSC2SNCHC2FeHNC6H8CH2CNC6H8NC6H8NC3H2CHSH2CHC3SCNCHSCHFeCFeH2C2SHCHCHC3SFeHCSCHC3H2CHCSHSH2SH2SC2NSH5C2H3SC5NHFeCHCHCSHC4SCHSFeSC3FeHC3H5CHS2HFeC3HCHC2H2CHSHCSH6SNC3H2C2SFeH3CH4CHCH2CH2FeSC2H2C2HCSHCH2C2HSFeS2Fe2SFeCH2S2C2HC5SHC3HCFeC2HC3HC2HSH2CHCH5CHCNCNHNCH3NCH2FeC3H2CSH2NCFeHCH2S2HSC3HC2H3CH4CH2C2HCH2SCHCSCH3CH3C2SH2CH2FeHCHSHCSH3C3SCHSCFeH2CHCHCSC2HFeSHSFeHFeS2CH2CHFeCFeS2HCS3H2CFeS2FeSHSHFeHSFeS2CSFeS3FeS2FeS2FeHFeS3H3C2HCHSHC3H2C6HCHC6H5NH3C6H5CHSCHC6H7NFeCFeC2HC6H2SHFeHC2H3SH2C2HFeNC2H2CHSHC5FeC3H3CHNHC2SCH3CFeCH2C2NHC2HCNC2H2CH5C2HC2HCHSH2C2HCHNHCHC2SH3SCHSC3HCFeHCSCNHC3H2C2HNFeCH3CSFeSHSC2SNHCSFeCFeHCHSHCHCH2CHCHC3FeCHCHCHC2HSH3CHC2H3CHFeH2C3HSHSH4CHFeHSCSHC2SH2CH4C4HCH4SFeCFeCSHSH2SHFeS2FeS2FeSFeS4HC3H2SH2C2HNC2FeC4H3C2HC3HNH2S2H4SC6H4C6H3C3HCH2C3SH3CHCHSC2H6C2HCH4CHCHSC2NCHC2HFeCFeCNC2SH2C2HCHCHCH2CNCH3CHC2H6SCSHCFeHCHC2HC3HCHFeHCFeS2FeCFeCS2HC2HSCSCHSC2SCS2NFeSHCSFeHSH4SHFe2SHFeS3FeSFeSFeS2H2C6H4C6H4CSC3HCHFeC2H3CFeHS2H2NCH2CH2C3HCN2H2FeCH4SCHFeH2C6H4C2HC4H3C3H2CSCSH4C4HCH2SCHC2NC6H7C2H2CNC4H5CH3C2FeC3H2SC2SC2H3CHSC3HC4HCNC2SFeC2SC2HSHCHC2HSHSFeC4H4C5HC3S2CHSFeCFeHCHCH3NSCSH2C3HFeHCSFeCH2FeHCH2NHCHC2HSH2SHCHC2H3NHC3HCHC2HNHCHFeC3FeH2NHCH3NSH2CNH3SFeHSC2H2C2NCHSCFeSC2NFeCHSHC4HSCH2C7H4C2SNSH3CH4CHSCH3C3HSHC2HCHCFeSCNH3CH5CH4C3FeC2HC2HCHC2HC3HCH2CHC2HSC2H3C2SC2HCH4C2HSH2C2H2CSHS2CH4C4HCHCH2CH4NSHSCFe2C2HCFeS2HCFeHFeSHCHS3NH3SHC3HC2HCSC2HCFeCHCFeHSHC3H2C2H2FeCFeC4H2NC2HS2FeC2H2SCH3NCH3CH3CFeC2NCNH3C2HC4SHC4H3SH4CSH4SHCHC2HCHCH3C2NCSCNCHCNSH2C2H2C2H2SCS2C4H4C4HC4H3CHC2HCS3CHC2HCHSHSCH2CSFeCH3C3HCH4N2HC4SCHFeNC2SNCSH2FeHCHC2H4CS2CH2SCHSCSHCH2NHFeSHC5HCSCHC2NC2HFeHS3C2HC3HCHC2SFeC2HSCFeCH2CS2HCHCSHCFeHSH2C4HFeH2FeCSH2C2H3CSCHC3HFeCH2CH2FeHFeC4H3C2HC3SCHS2CSFeC3HSFeC2SC2H3C3H2NH2CFeCHSCHCNHCSC3H3CSCH3CSH2C2HSC2HCH4CNCHC2H3NCSC2H3CHFeC2H3CFe2H4CHFeC2H2CHSC
_chemical_formula_sum              "C1248 Fe208 S416 H1248 N104"
_cell_length_a       59.4382
_cell_length_b       60.2476
_cell_length_c       64.6845
_cell_angle_alpha    76.494
_cell_angle_beta     76.325
_cell_angle_gamma    79.8764

_space_group_name_H-M_alt    "P 1"
_space_group_IT_number       1

loop_
  _space_group_symop_operation_xyz
  'x, y, z'

loop_
  _atom_site_type_symbol
  _atom_site_label
  _atom_site_symmetry_multiplicity
  _atom_site_fract_x
  _atom_site_fract_y
  _atom_site_fract_z
  _atom_site_occupancy
  C   C1        1.0  0.29000  0.43408  0.17278  1.0000
  Fe  Fe1       1.0  0.08667  0.35762  0.16986  1.0000
  S   S1        1.0  0.08363  0.36753  0.20180  1.0000
  S   S2        1.0  0.09280  0.38517  0.14002  1.0000
  H   H1        1.0  0.02579  0.33491  0.12822  1.0000
  S   S3        1.0  0.05398  0.34097  0.17949  1.0000
  Fe  Fe2       1.0  0.21477  0.44559  0.18123  1.0000
  S   S4        1.0  0.17714  0.44107  0.19446  1.0000
  S   S5        1.0  0.23694  0.42879  0.15458  1.0000
  C   C2        1.0  0.05632  0.47857  0.08117  1.0000
  C   C3        1.0  0.04920  0.09815  0.16371  1.0000
  Fe  Fe3       1.0  0.15681  0.45826  0.07735  1.0000
  S   S6        1.0  0.04053  0.98973  0.22392  1.0000
  S   S7        1.0  0.17665  0.42390  0.08795  1.0000
  H   H2        1.0  0.01921  0.29035  0.19105  1.0000
  H   H3        1.0  0.10575  0.22752  0.18691  1.0000
  H   H4        1.0  0.04269  0.20076  0.21298  1.0000
  C   C4        1.0  0.03058  0.40983  0.11165  1.0000
  H   H5        1.0  0.13199  0.37390  0.20933  1.0000
  C   C5        1.0  0.03868  0.42432  0.12147  1.0000
  S   S8        1.0  0.12977  0.46395  0.05705  1.0000
  Fe  Fe4       1.0  0.06131  0.37004  0.04169  1.0000
  S   S9        1.0  0.02631  0.37718  0.06300  1.0000
  S   S10       1.0  0.09077  0.34953  0.05652  1.0000
  H   H6        1.0  0.16078  0.33969  0.17459  1.0000
  N   N1        1.0  0.99346  0.43358  0.11402  1.0000
  Fe  Fe5       1.0  0.02562  0.41217  0.04134  1.0000
  S   S11       1.0  0.00979  0.44368  0.05499  1.0000
  H   H7        1.0  0.09833  0.09930  0.20798  1.0000
  C   C6        1.0  0.05465  0.23400  0.19915  1.0000
  S   S12       1.0  0.06204  0.40600  0.02214  1.0000
  S   S13       1.0  0.04765  0.35677  0.01812  1.0000
  N   N2        1.0  0.16484  0.42018  0.02444  1.0000
  C   C7        1.0  0.06579  0.45894  0.07240  1.0000
  C   C8        1.0  0.05175  0.44812  0.06406  1.0000
  C   C9        1.0  0.02829  0.45705  0.06439  1.0000
  C   C10       1.0  0.27916  0.45682  0.17091  1.0000
  H   H8        1.0  0.09619  0.20674  0.21081  1.0000
  H   H9        1.0  0.08370  0.45172  0.07255  1.0000
  H   H10       1.0  0.05898  0.43279  0.05761  1.0000
  H   H11       1.0  0.19923  0.42922  0.01515  1.0000
  C   C11       1.0  0.04124  0.08114  0.20195  1.0000
  C   C12       1.0  0.22136  0.42826  0.13492  1.0000
  C   C13       1.0  0.22399  0.40832  0.12654  1.0000
  C   C14       1.0  0.21037  0.40711  0.11194  1.0000
  C   C15       1.0  0.19467  0.42609  0.10515  1.0000
  C   C16       1.0  0.19275  0.44634  0.11290  1.0000
  C   C17       1.0  0.20574  0.44729  0.12811  1.0000
  H   H12       1.0  0.23609  0.39359  0.13179  1.0000
  H   H13       1.0  0.21199  0.39145  0.10595  1.0000
  H   H14       1.0  0.18118  0.46127  0.10735  1.0000
  C   C18       1.0  0.31264  0.46878  0.17699  1.0000
  N   N3        1.0  0.29034  0.47374  0.17341  1.0000
  C   C19       1.0  0.14144  0.36978  0.22239  1.0000
  H   H15       1.0  0.04696  0.07645  0.14214  1.0000
  H   H16       1.0  0.13324  0.28340  0.21310  1.0000
  C   C20       1.0  0.04690  0.09997  0.18533  1.0000
  C   C21       1.0  0.05637  0.25559  0.20292  1.0000
  H   H17       1.0  0.06243  0.22974  0.18343  1.0000
  C   C22       1.0  0.15131  0.38706  0.22732  1.0000
  S   S14       1.0  0.34445  0.45038  0.22717  1.0000
  H   H18       1.0  0.30420  0.42905  0.22863  1.0000
  Fe  Fe6       1.0  0.05262  0.34820  0.21218  1.0000
  C   C23       1.0  0.09267  0.37513  0.11679  1.0000
  C   C24       1.0  0.09432  0.35152  0.11756  1.0000
  C   C25       1.0  0.09411  0.34364  0.09888  1.0000
  C   C26       1.0  0.09119  0.35939  0.07975  1.0000
  C   C27       1.0  0.08898  0.38302  0.07913  1.0000
  C   C28       1.0  0.09050  0.39085  0.09745  1.0000
  H   H19       1.0  0.09604  0.33931  0.13245  1.0000
  H   H20       1.0  0.09580  0.32535  0.09933  1.0000
  H   H21       1.0  0.08680  0.39523  0.06433  1.0000
  H   H22       1.0  0.08954  0.40912  0.09670  1.0000
  C   C29       1.0  0.00134  0.37778  0.21285  1.0000
  H   H23       1.0  0.99153  0.20665  0.22388  1.0000
  H   H24       1.0  0.16346  0.40353  0.05765  1.0000
  C   C30       1.0  0.09508  0.06700  0.20073  1.0000
  H   H25       1.0  0.03080  0.38551  0.18682  1.0000
  H   H26       1.0  0.03043  0.45527  0.13443  1.0000
  S   S15       1.0  0.00855  0.40291  0.01760  1.0000
  C   C31       1.0  0.04543  0.07770  0.15885  1.0000
  C   C32       1.0  0.32402  0.44622  0.17892  1.0000
  H   H27       1.0  0.04197  0.39510  0.10656  1.0000
  Fe  Fe7       1.0  0.07659  0.30848  0.19033  1.0000
  C   C33       1.0  0.99941  0.34685  0.15387  1.0000
  C   C34       1.0  0.15727  0.40467  0.04290  1.0000
  C   C35       1.0  0.13299  0.39147  0.02432  1.0000
  H   H28       1.0  0.00197  0.40419  0.09936  1.0000
  Fe  Fe8       1.0  0.04505  0.39340  0.00023  1.0000
  S   S16       1.0  0.10991  0.32445  0.17726  1.0000
  H   H29       1.0  0.08652  0.43051  0.22276  1.0000
  C   C36       1.0  0.08876  0.04494  0.20939  1.0000
  H   H30       1.0  0.00663  0.40422  0.15968  1.0000
  C   C37       1.0  0.29863  0.44713  0.22870  1.0000
  H   H31       1.0  0.47427  0.46724  0.22324  1.0000
  S   S17       1.0  0.07268  0.27485  0.18251  1.0000
  H   H32       1.0  0.19610  0.39420  0.17930  1.0000
  C   C38       1.0  0.99832  0.39800  0.17627  1.0000
  H   H33       1.0  0.12033  0.38043  0.02440  1.0000
  H   H34       1.0  0.19041  0.35283  0.18886  1.0000
  Fe  Fe9       1.0  0.03782  0.13041  0.22565  1.0000
  Fe  Fe10      1.0  0.10409  0.33297  0.21019  1.0000
  Fe  Fe11      1.0  0.01850  0.01087  0.20071  1.0000
  C   C39       1.0  0.02408  0.31045  0.15862  1.0000
  H   H35       1.0  0.17161  0.42191  0.15643  1.0000
  S   S18       1.0  0.40283  0.46541  0.23682  1.0000
  H   H36       1.0  0.13199  0.25535  0.19102  1.0000
  C   C40       1.0  0.18321  0.38825  0.17316  1.0000
  C   C41       1.0  0.09460  0.08173  0.21462  1.0000
  C   C42       1.0  0.31477  0.46129  0.22920  1.0000
  H   H37       1.0  0.04056  0.08178  0.21850  1.0000
  H   H38       1.0  0.99733  0.32391  0.22087  1.0000
  C   C43       1.0  0.15731  0.42120  0.00578  1.0000
  H   H39       1.0  0.13464  0.40848  0.99078  1.0000
  C   C44       1.0  0.04351  0.21757  0.21585  1.0000
  H   H40       1.0  0.32096  0.41113  0.17888  1.0000
  H   H41       1.0  0.28082  0.42069  0.17115  1.0000
  S   S19       1.0  0.13350  0.32455  0.22805  1.0000
  C   C45       1.0  0.31252  0.42876  0.17695  1.0000
  C   C46       1.0  0.01330  0.30608  0.18063  1.0000
  H   H42       1.0  0.03531  0.04580  0.21001  1.0000
  S   S20       1.0  0.07262  0.31433  0.22400  1.0000
  H   H43       1.0  0.18333  0.43574  0.04087  1.0000
  Fe  Fe12      1.0  0.21759  0.47139  0.21515  1.0000
  S   S21       1.0  0.22547  0.43404  0.21335  1.0000
  C   C47       1.0  0.14135  0.39002  0.04307  1.0000
  H   H44       1.0  0.14911  0.40451  0.21828  1.0000
  S   S22       1.0  0.99558  0.98351  0.20446  1.0000
  H   H45       1.0  0.08794  0.03381  0.19865  1.0000
  C   C48       1.0  0.00786  0.41490  0.10783  1.0000
  C   C49       1.0  0.01200  0.38702  0.19157  1.0000
  H   H46       1.0  0.13546  0.37765  0.05769  1.0000
  C   C50       1.0  0.04578  0.26116  0.22309  1.0000
  C   C51       1.0  0.18177  0.43529  0.02418  1.0000
  C   C52       1.0  0.02404  0.44357  0.12736  1.0000
  H   H47       1.0  0.20389  0.46282  0.13437  1.0000
  Fe  Fe13      1.0  0.01240  0.36724  0.03762  1.0000
  N   N4        1.0  0.15347  0.39644  0.15191  1.0000
  C   C53       1.0  0.15036  0.37369  0.15692  1.0000
  C   C54       1.0  0.16937  0.40386  0.16012  1.0000
  C   C55       1.0  0.16359  0.35765  0.17026  1.0000
  S   S23       1.0  0.05205  0.12548  0.19128  1.0000
  C   C56       1.0  0.18022  0.36502  0.17829  1.0000
  C   C57       1.0  0.13885  0.41300  0.13852  1.0000
  H   H48       1.0  0.13753  0.36789  0.15063  1.0000
  H   H49       1.0  0.09917  0.07309  0.18325  1.0000
  H   H50       1.0  0.05637  0.42086  0.12426  1.0000
  C   C58       1.0  0.14105  0.40711  0.00549  1.0000
  C   C59       1.0  0.03807  0.06060  0.19709  1.0000
  H   H51       1.0  0.12098  0.41641  0.14822  1.0000
  H   H52       1.0  0.14619  0.42955  0.13187  1.0000
  H   H53       1.0  0.13763  0.40613  0.12433  1.0000
  H   H54       1.0  0.07635  0.02109  0.23855  1.0000
  C   C60       1.0  0.03967  0.05892  0.17560  1.0000
  H   H55       1.0  0.05377  0.11259  0.15071  1.0000
  S   S24       1.0  0.01827  0.36116  0.23114  1.0000
  C   C61       1.0  0.01718  0.33107  0.14520  1.0000
  H   H56       1.0  0.03821  0.29821  0.15224  1.0000
  H   H57       1.0  0.16364  0.43322  0.99104  1.0000
  S   S25       1.0  0.03458  0.03334  0.16983  1.0000
  C   C62       1.0  0.12280  0.26935  0.21995  1.0000
  C   C63       1.0  0.08217  0.03789  0.23194  1.0000
  H   H58       1.0  0.99390  0.36306  0.14378  1.0000
  H   H59       1.0  0.34129  0.44223  0.18279  1.0000
  H   H60       1.0  0.10140  0.46834  0.21440  1.0000
  Fe  Fe14      1.0  0.17291  0.47760  0.19850  1.0000
  C   C64       1.0  0.10953  0.21863  0.20309  1.0000
  C   C65       1.0  0.12888  0.47585  0.99656  1.0000
  H   H61       1.0  0.04659  0.27786  0.22607  1.0000
  C   C66       1.0  0.12212  0.25337  0.20760  1.0000
  C   C67       1.0  0.47916  0.47500  0.23482  1.0000
  S   S26       1.0  0.00491  0.15436  0.23309  1.0000
  C   C68       1.0  0.09745  0.43369  0.23275  1.0000
  C   C69       1.0  0.27539  0.45642  0.22781  1.0000
  H   H62       1.0  0.09197  0.38999  0.23977  1.0000
  H   H63       1.0  0.26165  0.46075  0.16768  1.0000
  C   C70       1.0  0.10564  0.45512  0.22801  1.0000
  C   C71       1.0  0.00130  0.44793  0.12356  1.0000
  H   H64       1.0  0.12615  0.47591  0.23727  1.0000
  H   H65       1.0  0.00079  0.11717  0.20365  1.0000
  C   C72       1.0  0.01893  0.47665  0.07312  1.0000
  N   N5        1.0  0.99599  0.32170  0.18899  1.0000
  H   H66       1.0  0.17624  0.45326  0.01627  1.0000
  N   N6        1.0  0.10898  0.23564  0.21619  1.0000
  H   H67       1.0  0.12019  0.47668  0.01309  1.0000
  H   H68       1.0  0.12698  0.20825  0.20084  1.0000
  H   H69       1.0  0.26313  0.44542  0.22732  1.0000
  C   C73       1.0  0.26825  0.47987  0.22748  1.0000
  Fe  Fe15      1.0  0.18725  0.43249  0.22678  1.0000
  H   H70       1.0  0.10620  0.45334  0.99295  1.0000
  C   C74       1.0  0.14427  0.34712  0.23416  1.0000
  C   C75       1.0  0.03351  0.22297  0.23620  1.0000
  C   C76       1.0  0.08833  0.07396  0.23709  1.0000
  S   S27       1.0  0.18024  0.46879  0.23202  1.0000
  S   S28       1.0  0.99362  0.02919  0.22499  1.0000
  Fe  Fe16      1.0  0.36414  0.47260  0.23831  1.0000
  C   C77       1.0  0.09598  0.23350  0.23692  1.0000
  C   C78       1.0  0.03431  0.24492  0.23964  1.0000
  H   H71       1.0  0.07578  0.04628  0.31695  1.0000
  H   H72       1.0  0.42375  0.45743  0.38669  1.0000
  H   H73       1.0  0.08848  0.04930  0.27717  1.0000
  Fe  Fe17      1.0  0.04330  0.11723  0.27271  1.0000
  S   S29       1.0  0.48942  0.48059  0.43156  1.0000
  C   C79       1.0  0.40614  0.43401  0.35109  1.0000
  S   S30       1.0  0.01972  0.20289  0.25764  1.0000
  H   H74       1.0  0.10650  0.38065  0.26205  1.0000
  H   H75       1.0  0.45451  0.42380  0.38408  1.0000
  C   C80       1.0  0.06194  0.05572  0.32687  1.0000
  H   H76       1.0  0.07707  0.39560  0.26620  1.0000
  S   S31       1.0  0.47642  0.46580  0.38006  1.0000
  H   H77       1.0  0.04590  0.99497  0.34284  1.0000
  C   C81       1.0  0.44837  0.45862  0.31358  1.0000
  C   C82       1.0  0.03817  0.00710  0.31094  1.0000
  H   H78       1.0  0.10998  0.27981  0.25070  1.0000
  C   C83       1.0  0.12529  0.44232  0.25812  1.0000
  Fe  Fe18      1.0  0.01413  0.00644  0.24842  1.0000
  H   H79       1.0  0.05874  0.02730  0.35401  1.0000
  H   H80       1.0  0.04508  0.02375  0.46307  1.0000
  C   C84       1.0  0.02702  0.08005  0.35323  1.0000
  S   S32       1.0  0.41467  0.45017  0.29514  1.0000
  C   C85       1.0  0.11683  0.42111  0.26241  1.0000
  C   C86       1.0  0.09605  0.24936  0.24964  1.0000
  C   C87       1.0  0.09278  0.02185  0.41118  1.0000
  C   C88       1.0  0.45889  0.47224  0.32246  1.0000
  Fe  Fe19      1.0  0.99521  0.12648  0.26198  1.0000
  C   C89       1.0  0.03599  0.09065  0.33172  1.0000
  C   C90       1.0  0.05540  0.03832  0.42914  1.0000
  H   H81       1.0  0.03687  0.02506  0.31163  1.0000
  H   H82       1.0  0.45485  0.39822  0.35932  1.0000
  H   H83       1.0  0.45674  0.44153  0.31183  1.0000
  H   H84       1.0  0.42851  0.38246  0.34193  1.0000
  C   C91       1.0  0.07607  0.04453  0.26902  1.0000
  C   C92       1.0  0.05878  0.02347  0.44864  1.0000
  H   H85       1.0  0.06977  0.04840  0.39497  1.0000
  C   C93       1.0  0.44076  0.42681  0.37493  1.0000
  C   C94       1.0  0.15644  0.34196  0.25107  1.0000
  S   S33       1.0  0.06663  0.09167  0.29219  1.0000
  S   S34       1.0  0.17419  0.40299  0.25262  1.0000
  H   H86       1.0  0.01379  0.08966  0.36354  1.0000
  C   C95       1.0  0.11959  0.45941  0.24084  1.0000
  S   S35       1.0  0.06725  0.98631  0.38280  1.0000
  H   H87       1.0  0.47514  0.46544  0.32768  1.0000
  N   N7        1.0  0.07875  0.00828  0.44935  1.0000
  C   C96       1.0  0.09566  0.00738  0.43096  1.0000
  C   C97       1.0  0.05236  0.04491  0.34801  1.0000
  H   H88       1.0  0.02982  0.10842  0.32557  1.0000
  C   C98       1.0  0.42433  0.40081  0.33432  1.0000
  S   S36       1.0  0.02655  0.10171  0.25296  1.0000
  Fe  Fe20      1.0  0.03333  0.00537  0.39691  1.0000
  S   S37       1.0  0.02537  0.02227  0.27173  1.0000
  C   C99       1.0  0.05369  0.07854  0.31859  1.0000
  H   H89       1.0  0.07610  0.02559  0.27388  1.0000
  H   H90       1.0  0.39277  0.46414  0.36508  1.0000
  C   C100      1.0  0.99523  0.06757  0.29944  1.0000
  C   C101      1.0  0.42343  0.44558  0.37647  1.0000
  N   N8        1.0  0.42341  0.41580  0.34947  1.0000
  H   H91       1.0  0.11125  0.99496  0.43139  1.0000
  H   H92       1.0  0.39287  0.43737  0.34136  1.0000
  H   H93       1.0  0.07143  0.99844  0.48407  1.0000
  H   H94       1.0  0.01459  0.06453  0.29497  1.0000
  C   C102      1.0  0.40600  0.44928  0.36445  1.0000
  H   H95       1.0  0.40742  0.40277  0.32910  1.0000
  C   C103      1.0  0.07250  0.03740  0.41030  1.0000
  C   C104      1.0  0.08121  0.99161  0.46946  1.0000
  H   H96       1.0  0.13673  0.44520  0.26781  1.0000
  C   C105      1.0  0.16329  0.38178  0.24449  1.0000
  H   H97       1.0  0.43785  0.40546  0.31948  1.0000
  C   C106      1.0  0.44071  0.41221  0.36102  1.0000
  H   H98       1.0  0.08515  0.21972  0.24363  1.0000
  H   H99       1.0  0.12186  0.40776  0.27558  1.0000
  C   C107      1.0  0.09419  0.39475  0.25470  1.0000
  H   H100      1.0  0.10595  0.02061  0.39654  1.0000
  C   C108      1.0  0.16551  0.35927  0.25646  1.0000
  Fe  Fe21      1.0  0.02341  0.16577  0.25453  1.0000
  C   C109      1.0  0.03503  0.05705  0.36135  1.0000
  H   H101      1.0  0.17459  0.35511  0.26983  1.0000
  H   H102      1.0  0.08775  0.08557  0.24783  1.0000
  N   N9        1.0  0.10329  0.41694  0.24965  1.0000
  S   S38       1.0  0.03369  0.98659  0.43135  1.0000
  Fe  Fe22      1.0  0.39404  0.47169  0.27079  1.0000
  H   H103      1.0  0.03930  0.04995  0.42839  1.0000
  C   C110      1.0  0.04331  0.99009  0.32861  1.0000
  S   S39       1.0  0.02327  0.04384  0.38818  1.0000
  C   C111      1.0  0.42737  0.46726  0.30663  1.0000
  S   S40       1.0  0.35534  0.47540  0.27337  1.0000
  H   H104      1.0  0.05826  0.05286  0.27506  1.0000
  S   S41       1.0  0.01069  0.13965  0.28445  1.0000
  S   S42       1.0  0.05750  0.14426  0.24451  1.0000
  H   H105      1.0  0.09977  0.98722  0.47097  1.0000
  H   H106      1.0  0.08542  0.24786  0.26592  1.0000
  H   H107      1.0  0.15869  0.32450  0.26023  1.0000
  H   H108      1.0  0.02635  0.24923  0.25532  1.0000
  C   C112      1.0  0.03400  0.00087  0.29279  1.0000
  N   N10       1.0  0.08262  0.05216  0.24545  1.0000
  S   S43       1.0  0.01118  0.98212  0.39073  1.0000
  C   C113      1.0  0.10974  0.26727  0.24111  1.0000
  H   H109      1.0  0.08568  0.46793  0.70125  1.0000
  C   C114      1.0  0.12400  0.98779  0.66566  1.0000
  C   C115      1.0  0.04949  0.08730  0.71845  1.0000
  H   H110      1.0  0.32179  0.46913  0.67860  1.0000
  S   S44       1.0  0.00222  0.37360  0.68676  1.0000
  C   C116      1.0  0.07085  0.46728  0.69467  1.0000
  S   S45       1.0  0.46793  0.46146  0.72608  1.0000
  S   S46       1.0  0.01078  0.01094  0.71488  1.0000
  Fe  Fe23      1.0  0.01103  0.40712  0.69027  1.0000
  S   S47       1.0  0.04554  0.41992  0.67456  1.0000
  C   C117      1.0  0.08905  0.46433  0.64041  1.0000
  H   H111      1.0  0.10002  0.08214  0.69282  1.0000
  H   H112      1.0  0.06054  0.11922  0.69880  1.0000
  C   C118      1.0  0.36135  0.45361  0.69186  1.0000
  H   H113      1.0  0.41860  0.47921  0.72916  1.0000
  Fe  Fe24      1.0  0.01288  0.03176  0.68110  1.0000
  H   H114      1.0  0.13668  0.98867  0.72998  1.0000
  S   S48       1.0  0.04016  0.05229  0.68291  1.0000
  C   C119      1.0  0.04344  0.12324  0.73123  1.0000
  C   C120      1.0  0.37988  0.44227  0.70179  1.0000
  H   H115      1.0  0.10256  0.42854  0.64844  1.0000
  H   H116      1.0  0.05642  0.07786  0.70564  1.0000
  H   H117      1.0  0.01871  0.15941  0.69604  1.0000
  C   C121      1.0  0.16743  0.99866  0.64073  1.0000
  C   C122      1.0  0.01066  0.20491  0.69104  1.0000
  H   H118      1.0  0.99963  0.07037  0.71830  1.0000
  C   C123      1.0  0.10559  0.44617  0.64695  1.0000
  S   S49       1.0  0.05294  0.98503  0.53158  1.0000
  Fe  Fe25      1.0  0.03946  0.03012  0.71593  1.0000
  S   S50       1.0  0.48911  0.44127  0.68130  1.0000
  C   C124      1.0  0.14727  0.01436  0.63875  1.0000
  H   H119      1.0  0.18417  0.00300  0.63101  1.0000
  N   N11       1.0  0.34126  0.46306  0.70378  1.0000
  S   S51       1.0  0.04748  0.15243  0.72605  1.0000
  Fe  Fe26      1.0  0.46127  0.46897  0.69230  1.0000
  C   C125      1.0  0.10628  0.06862  0.68292  1.0000
  C   C126      1.0  0.13067  0.00510  0.72054  1.0000
  S   S52       1.0  0.00392  0.39845  0.72645  1.0000
  C   C127      1.0  0.05190  0.11075  0.71462  1.0000
  H   H120      1.0  0.14401  0.47710  0.65531  1.0000
  S   S53       1.0  0.10095  0.03003  0.64864  1.0000
  S   S54       1.0  0.06776  0.00297  0.70484  1.0000
  S   S55       1.0  0.03963  0.00618  0.66521  1.0000
  N   N12       1.0  0.11516  0.04704  0.69610  1.0000
  C   C128      1.0  0.00027  0.16579  0.69974  1.0000
  H   H121      1.0  0.00341  0.22189  0.69547  1.0000
  H   H122      1.0  0.09167  0.06567  0.67628  1.0000
  C   C129      1.0  0.04779  0.44516  0.68256  1.0000
  C   C130      1.0  0.06679  0.44621  0.69146  1.0000
  H   H123      1.0  0.11996  0.07525  0.66896  1.0000
  C   C131      1.0  0.03225  0.46502  0.67780  1.0000
  S   S56       1.0  0.42575  0.47660  0.68358  1.0000
  C   C132      1.0  0.35743  0.45073  0.73595  1.0000
  C   C133      1.0  0.10281  0.03939  0.71652  1.0000
  C   C134      1.0  0.13504  0.03412  0.68761  1.0000
  C   C135      1.0  0.12554  0.00916  0.65135  1.0000
  Fe  Fe27      1.0  0.03911  0.98668  0.69928  1.0000
  H   H124      1.0  0.14455  0.03988  0.67123  1.0000
  C   C136      1.0  0.12851  0.47364  0.65106  1.0000
  C   C137      1.0  0.12545  0.45079  0.65236  1.0000
  Fe  Fe28      1.0  0.06671  0.02383  0.67158  1.0000
  H   H125      1.0  0.10728  0.98339  0.67520  1.0000
  H   H126      1.0  0.14861  0.03071  0.62750  1.0000
  C   C138      1.0  0.37787  0.44085  0.72397  1.0000
  H   H127      1.0  0.15872  0.00268  0.69268  1.0000
  C   C139      1.0  0.14313  0.01301  0.69968  1.0000
  H   H128      1.0  0.07876  0.43082  0.69527  1.0000
  H   H129      1.0  0.01758  0.46430  0.67086  1.0000
  C   C140      1.0  0.33924  0.46196  0.72551  1.0000
  H   H130      1.0  0.13826  0.43678  0.65777  1.0000
  H   H131      1.0  0.32387  0.47054  0.73474  1.0000
  H   H132      1.0  0.11548  0.99904  0.61594  1.0000
  H   H133      1.0  0.01717  0.20749  0.67321  1.0000
  H   H134      1.0  0.36344  0.45542  0.67445  1.0000
  H   H135      1.0  0.07318  0.46080  0.63691  1.0000
  C   C141      1.0  0.10835  0.98511  0.61275  1.0000
  C   C142      1.0  0.11038  0.01837  0.72907  1.0000
  H   H136      1.0  0.02462  0.47227  0.73033  1.0000
  H   H137      1.0  0.39617  0.43563  0.69215  1.0000
  H   H138      1.0  0.08688  0.04944  0.72320  1.0000
  H   H139      1.0  0.02558  0.19805  0.69938  1.0000
  C   C143      1.0  0.03904  0.07602  0.73904  1.0000
  H   H140      1.0  0.39253  0.43294  0.73163  1.0000
  C   C144      1.0  0.32260  0.47605  0.69287  1.0000
  H   H141      1.0  0.30518  0.47528  0.70391  1.0000
  H   H142      1.0  0.12875  0.98750  0.58018  1.0000
  N   N13       1.0  0.99311  0.18891  0.69788  1.0000
  H   H143      1.0  0.99195  0.99634  0.64939  1.0000
  Fe  Fe29      1.0  0.99201  0.36664  0.72299  1.0000
  C   C145      1.0  0.06110  0.46283  0.76573  1.0000
  H   H144      1.0  0.12095  0.38545  0.89534  1.0000
  H   H145      1.0  0.07340  0.32774  0.94516  1.0000
  Fe  Fe30      1.0  0.15294  0.42823  0.87515  1.0000
  S   S57       1.0  0.11792  0.44163  0.89278  1.0000
  S   S58       1.0  0.16348  0.39467  0.86406  1.0000
  H   H146      1.0  0.15977  0.47293  0.93706  1.0000
  H   H147      1.0  0.04042  0.30592  0.75937  1.0000
  Fe  Fe31      1.0  0.13793  0.45109  0.91416  1.0000
  S   S59       1.0  0.12312  0.44376  0.95006  1.0000
  C   C146      1.0  0.21052  0.46095  0.79954  1.0000
  S   S60       1.0  0.17243  0.43436  0.89854  1.0000
  Fe  Fe32      1.0  0.06430  0.36051  0.83103  1.0000
  S   S61       1.0  0.04625  0.38463  0.85308  1.0000
  S   S62       1.0  0.10149  0.36089  0.81344  1.0000
  Fe  Fe33      1.0  0.02132  0.33766  0.83577  1.0000
  C   C147      1.0  0.04996  0.47416  0.74864  1.0000
  C   C148      1.0  0.07500  0.47866  0.93622  1.0000
  Fe  Fe34      1.0  0.01702  0.38880  0.83551  1.0000
  N   N14       1.0  0.06666  0.28145  0.77228  1.0000
  Fe  Fe35      1.0  0.03055  0.35364  0.87397  1.0000
  S   S63       1.0  0.02572  0.34364  0.91038  1.0000
  S   S64       1.0  0.03649  0.36724  0.81156  1.0000
  S   S65       1.0  0.05112  0.32874  0.85319  1.0000
  H   H148      1.0  0.07378  0.47119  0.76973  1.0000
  H   H149      1.0  0.08857  0.35554  0.95944  1.0000
  H   H150      1.0  0.01536  0.43386  0.75157  1.0000
  S   S66       1.0  0.05644  0.40387  0.96400  1.0000
  C   C149      1.0  0.03968  0.43125  0.77242  1.0000
  C   C150      1.0  0.08457  0.33980  0.93420  1.0000
  C   C151      1.0  0.03226  0.11221  0.75165  1.0000
  H   H151      1.0  0.09226  0.39902  0.83629  1.0000
  C   C152      1.0  0.12352  0.39810  0.84813  1.0000
  C   C153      1.0  0.15484  0.36829  0.83879  1.0000
  C   C154      1.0  0.11257  0.47516  0.79152  1.0000
  H   H152      1.0  0.99598  0.39303  0.79796  1.0000
  H   H153      1.0  0.10001  0.29099  0.80441  1.0000
  C   C155      1.0  0.06322  0.26364  0.76168  1.0000
  C   C156      1.0  0.11657  0.45952  0.81035  1.0000
  H   H154      1.0  0.22959  0.41908  0.82741  1.0000
  Fe  Fe36      1.0  0.02105  0.20193  0.78457  1.0000
  N   N15       1.0  0.05893  0.46539  0.94987  1.0000
  S   S67       1.0  0.04134  0.21643  0.80294  1.0000
  H   H155      1.0  0.17223  0.35950  0.83961  1.0000
  H   H156      1.0  0.02224  0.08000  0.77161  1.0000
  C   C157      1.0  0.21376  0.43111  0.83210  1.0000
  C   C158      1.0  0.10963  0.39032  0.83709  1.0000
  C   C159      1.0  0.05635  0.31986  0.77911  1.0000
  C   C160      1.0  0.14602  0.38679  0.84924  1.0000
  S   S68       1.0  0.02092  0.16388  0.78716  1.0000
  C   C161      1.0  0.14123  0.36089  0.82740  1.0000
  H   H157      1.0  0.09383  0.26057  0.78702  1.0000
  N   N16       1.0  0.05603  0.44153  0.77725  1.0000
  C   C162      1.0  0.15091  0.47392  0.95354  1.0000
  C   C163      1.0  0.99845  0.28857  0.75356  1.0000
  H   H158      1.0  0.08162  0.32918  0.90546  1.0000
  S   S69       1.0  0.00222  0.31531  0.82410  1.0000
  H   H159      1.0  0.10034  0.01239  0.74519  1.0000
  C   C164      1.0  0.11095  0.37250  0.90635  1.0000
  Fe  Fe37      1.0  0.02575  0.17247  0.75082  1.0000
  H   H160      1.0  0.00700  0.28745  0.76677  1.0000
  C   C165      1.0  0.03033  0.08857  0.75561  1.0000
  H   H161      1.0  0.16354  0.43209  0.78712  1.0000
  H   H162      1.0  0.11662  0.41247  0.85612  1.0000
  C   C166      1.0  0.07329  0.31575  0.79172  1.0000
  H   H163      1.0  0.10596  0.35798  0.88041  1.0000
  C   C167      1.0  0.20105  0.47080  0.78112  1.0000
  Fe  Fe38      1.0  0.12557  0.47568  0.87160  1.0000
  C   C168      1.0  0.06719  0.43005  0.79558  1.0000
  H   H164      1.0  0.03522  0.41467  0.78190  1.0000
  H   H165      1.0  0.17638  0.46777  0.76245  1.0000
  H   H166      1.0  0.21864  0.44454  0.83887  1.0000
  H   H167      1.0  0.03032  0.44713  0.95259  1.0000
  S   S70       1.0  0.99944  0.35999  0.85838  1.0000
  H   H168      1.0  0.99827  0.24659  0.79854  1.0000
  C   C169      1.0  0.11846  0.37156  0.82686  1.0000
  H   H169      1.0  0.11448  0.45461  0.84468  1.0000
  H   H170      1.0  0.14816  0.34647  0.81945  1.0000
  C   C170      1.0  0.02827  0.44206  0.75540  1.0000
  C   C171      1.0  0.09324  0.35557  0.94216  1.0000
  C   C172      1.0  0.08913  0.34066  0.91187  1.0000
  H   H171      1.0  0.12501  0.44223  0.80950  1.0000
  H   H172      1.0  0.13212  0.39229  0.92801  1.0000
  H   H173      1.0  0.11408  0.38351  0.95423  1.0000
  H   H174      1.0  0.04432  0.26227  0.76420  1.0000
  H   H175      1.0  0.20142  0.42150  0.84546  1.0000
  H   H176      1.0  0.10214  0.40532  0.93429  1.0000
  Fe  Fe39      1.0  0.17590  0.46882  0.87640  1.0000
  C   C173      1.0  0.01286  0.28705  0.82027  1.0000
  C   C174      1.0  0.06006  0.45785  0.97290  1.0000
  C   C175      1.0  0.00821  0.25436  0.80620  1.0000
  C   C176      1.0  0.02949  0.24290  0.81092  1.0000
  C   C177      1.0  0.04212  0.25330  0.82105  1.0000
  C   C178      1.0  0.03390  0.27543  0.82561  1.0000
  H   H177      1.0  0.02566  0.12171  0.76457  1.0000
  C   C179      1.0  0.99987  0.27623  0.81098  1.0000
  H   H178      1.0  0.05846  0.24438  0.82505  1.0000
  H   H179      1.0  0.04384  0.28350  0.83313  1.0000
  S   S71       1.0  0.03741  0.04617  0.74457  1.0000
  C   C180      1.0  0.18661  0.43095  0.80881  1.0000
  H   H180      1.0  0.22388  0.46898  0.80283  1.0000
  C   C181      1.0  0.17676  0.44032  0.79052  1.0000
  H   H181      1.0  0.05505  0.43245  0.81110  1.0000
  H   H182      1.0  0.18094  0.41529  0.81945  1.0000
  S   S72       1.0  0.12407  0.46736  0.76634  1.0000
  C   C182      1.0  0.03141  0.36270  0.92485  1.0000
  C   C183      1.0  0.04293  0.38187  0.91426  1.0000
  C   C184      1.0  0.04974  0.39511  0.92642  1.0000
  C   C185      1.0  0.04486  0.38930  0.94917  1.0000
  C   C186      1.0  0.03248  0.37075  0.95974  1.0000
  C   C187      1.0  0.02589  0.35742  0.94760  1.0000
  H   H183      1.0  0.04741  0.38598  0.89677  1.0000
  H   H184      1.0  0.05943  0.40937  0.91816  1.0000
  H   H185      1.0  0.02849  0.36626  0.97729  1.0000
  H   H186      1.0  0.01690  0.34266  0.95587  1.0000
  C   C188      1.0  0.08344  0.27730  0.78450  1.0000
  C   C189      1.0  0.05344  0.30249  0.76929  1.0000
  N   N17       1.0  0.20306  0.44145  0.81325  1.0000
  H   H187      1.0  0.07580  0.32906  0.79945  1.0000
  C   C190      1.0  0.11412  0.38896  0.93659  1.0000
  H   H188      1.0  0.03012  0.45745  0.91337  1.0000
  C   C191      1.0  0.10253  0.35701  0.89782  1.0000
  N   N18       1.0  0.10631  0.37160  0.92826  1.0000
  H   H189      1.0  0.08368  0.43695  0.79454  1.0000
  C   C192      1.0  0.13206  0.46160  0.96364  1.0000
  C   C193      1.0  0.04259  0.46382  0.91967  1.0000
  H   H190      1.0  0.04530  0.33627  0.77706  1.0000
  C   C194      1.0  0.08697  0.29437  0.79444  1.0000
  S   S73       1.0  0.15894  0.46143  0.85182  1.0000
  C   C195      1.0  0.18400  0.46039  0.77665  1.0000
  C   C196      1.0  0.12084  0.46281  0.98507  1.0000
  C   C197      1.0  0.11059  0.46651  0.83030  1.0000
  H   H191      1.0  0.07185  0.41129  0.79581  1.0000
  S   S74       1.0  0.99820  0.42399  0.82543  1.0000
  C   C198      1.0  0.04280  0.45803  0.94187  1.0000
  H   H192      1.0  0.07368  0.44273  0.97485  1.0000
  H   H193      1.0  0.35608  0.45063  0.75300  1.0000
  C   C199      1.0  0.99339  0.30985  0.74033  1.0000
  C   C200      1.0  0.03343  0.46367  0.74351  1.0000
  C   C201      1.0  0.05882  0.47749  0.90566  1.0000
  H   H194      1.0  0.06448  0.47177  0.97929  1.0000
  H   H195      1.0  0.07145  0.24631  0.76867  1.0000
  H   H196      1.0  0.04317  0.45265  0.98300  1.0000
  H   H197      1.0  0.07058  0.26784  0.74400  1.0000
  S   S75       1.0  0.02934  0.20960  0.74804  1.0000
  H   H198      1.0  0.99697  0.25231  0.75994  1.0000
  S   S76       1.0  0.00167  0.33414  0.74550  1.0000
  C   C202      1.0  0.99254  0.26867  0.74979  1.0000
  S   S77       1.0  0.21141  0.48053  0.86416  1.0000
  S   S78       1.0  0.11685  0.87302  0.19329  1.0000
  C   C203      1.0  0.25088  0.67107  0.12725  1.0000
  H   H199      1.0  0.47001  0.83866  0.20811  1.0000
  C   C204      1.0  0.48555  0.53850  0.21771  1.0000
  C   C205      1.0  0.10953  0.54395  0.14090  1.0000
  C   C206      1.0  0.40030  0.79317  0.20892  1.0000
  Fe  Fe40      1.0  0.16891  0.66946  0.15569  1.0000
  S   S79       1.0  0.18358  0.64167  0.18029  1.0000
  S   S80       1.0  0.17464  0.70589  0.15453  1.0000
  Fe  Fe41      1.0  0.15976  0.63494  0.13149  1.0000
  S   S81       1.0  0.17517  0.60455  0.15343  1.0000
  S   S82       1.0  0.14252  0.62889  0.10609  1.0000
  Fe  Fe42      1.0  0.15469  0.62248  0.17986  1.0000
  C   C207      1.0  0.44169  0.90892  0.18634  1.0000
  Fe  Fe43      1.0  0.20266  0.62628  0.15164  1.0000
  S   S83       1.0  0.24115  0.61506  0.14845  1.0000
  S   S84       1.0  0.13757  0.65202  0.15815  1.0000
  S   S85       1.0  0.18960  0.65505  0.12680  1.0000
  C   C208      1.0  0.38496  0.63680  0.18889  1.0000
  S   S86       1.0  0.28368  0.69105  0.20957  1.0000
  H   H200      1.0  0.02540  0.50234  0.08848  1.0000
  H   H201      1.0  0.47905  0.83724  0.99389  1.0000
  S   S87       1.0  0.32459  0.64693  0.20934  1.0000
  C   C209      1.0  0.40480  0.92720  0.20377  1.0000
  Fe  Fe44      1.0  0.32125  0.68421  0.19354  1.0000
  S   S88       1.0  0.33248  0.69591  0.15756  1.0000
  H   H202      1.0  0.09370  0.53923  0.13846  1.0000
  H   H203      1.0  0.47367  0.85040  0.08546  1.0000
  C   C210      1.0  0.13509  0.78533  0.14792  1.0000
  S   S89       1.0  0.46223  0.73740  0.13213  1.0000
  C   C211      1.0  0.13958  0.74310  0.21012  1.0000
  C   C212      1.0  0.13475  0.80833  0.14880  1.0000
  C   C213      1.0  0.45031  0.92080  0.12265  1.0000
  N   N19       1.0  0.24635  0.68517  0.16000  1.0000
  N   N20       1.0  0.37079  0.77782  0.19865  1.0000
  H   H204      1.0  0.44103  0.87564  0.17978  1.0000
  C   C214      1.0  0.07568  0.87584  0.22362  1.0000
  H   H205      1.0  0.23807  0.70262  0.18659  1.0000
  H   H206      1.0  0.41059  0.79322  0.22072  1.0000
  Fe  Fe45      1.0  0.43293  0.76263  0.14524  1.0000
  S   S90       1.0  0.39994  0.77252  0.13232  1.0000
  S   S91       1.0  0.43493  0.74940  0.18017  1.0000
  C   C215      1.0  0.40693  0.88987  0.19475  1.0000
  H   H207      1.0  0.47948  0.64227  0.20491  1.0000
  C   C216      1.0  0.24689  0.55289  0.22787  1.0000
  C   C217      1.0  0.26923  0.68905  0.15448  1.0000
  H   H208      1.0  0.09024  0.80110  0.21524  1.0000
  H   H209      1.0  0.21345  0.69508  0.17945  1.0000
  H   H210      1.0  0.24358  0.66341  0.11711  1.0000
  S   S92       1.0  0.36446  0.51050  0.22486  1.0000
  H   H211      1.0  0.42100  0.86214  0.23354  1.0000
  Fe  Fe46      1.0  0.48529  0.76386  0.13065  1.0000
  H   H212      1.0  0.23265  0.67286  0.19321  1.0000
  S   S93       1.0  0.13353  0.60106  0.20842  1.0000
  C   C218      1.0  0.48061  0.85124  0.02987  1.0000
  H   H213      1.0  0.39471  0.94151  0.21063  1.0000
  C   C219      1.0  0.43352  0.88525  0.13707  1.0000
  C   C220      1.0  0.15029  0.55543  0.14701  1.0000
  H   H214      1.0  0.17101  0.50474  0.13158  1.0000
  S   S94       1.0  0.46225  0.79827  0.19580  1.0000
  S   S95       1.0  0.33700  0.88339  0.23799  1.0000
  C   C221      1.0  0.10937  0.56519  0.14615  1.0000
  C   C222      1.0  0.11669  0.54103  0.20236  1.0000
  C   C223      1.0  0.40383  0.64110  0.19603  1.0000
  S   S96       1.0  0.33522  0.69577  0.21795  1.0000
  H   H215      1.0  0.30160  0.68722  0.13089  1.0000
  H   H216      1.0  0.09474  0.91949  0.18282  1.0000
  S   S97       1.0  0.43192  0.51839  0.20143  1.0000
  H   H217      1.0  0.05799  0.94049  0.20040  1.0000
  H   H218      1.0  0.21920  0.67260  0.15132  1.0000
  C   C224      1.0  0.35108  0.71732  0.15107  1.0000
  C   C225      1.0  0.36624  0.71774  0.16456  1.0000
  C   C226      1.0  0.38150  0.73453  0.15880  1.0000
  C   C227      1.0  0.38136  0.75114  0.13969  1.0000
  C   C228      1.0  0.36607  0.75088  0.12633  1.0000
  C   C229      1.0  0.35121  0.73379  0.13184  1.0000
  H   H219      1.0  0.36679  0.70473  0.17909  1.0000
  H   H220      1.0  0.39316  0.73480  0.16926  1.0000
  H   H221      1.0  0.36590  0.76375  0.11155  1.0000
  H   H222      1.0  0.33962  0.73355  0.12130  1.0000
  H   H223      1.0  0.19232  0.52448  0.01635  1.0000
  Fe  Fe47      1.0  0.46073  0.77446  0.17425  1.0000
  C   C230      1.0  0.13030  0.52880  0.13883  1.0000
  H   H224      1.0  0.20238  0.56938  0.04318  1.0000
  C   C231      1.0  0.19702  0.72469  0.23163  1.0000
  C   C232      1.0  0.24806  0.61750  0.17259  1.0000
  C   C233      1.0  0.26809  0.62702  0.17203  1.0000
  C   C234      1.0  0.27193  0.63176  0.19105  1.0000
  C   C235      1.0  0.25602  0.62644  0.21068  1.0000
  C   C236      1.0  0.23645  0.61619  0.21135  1.0000
  C   C237      1.0  0.23254  0.61164  0.19233  1.0000
  H   H225      1.0  0.28018  0.63144  0.15678  1.0000
  H   H226      1.0  0.28708  0.63967  0.19044  1.0000
  C   C238      1.0  0.22396  0.74685  0.23936  1.0000
  H   H227      1.0  0.21739  0.60365  0.19293  1.0000
  C   C239      1.0  0.15228  0.60163  0.09972  1.0000
  C   C240      1.0  0.13730  0.58998  0.09349  1.0000
  C   C241      1.0  0.14489  0.56777  0.08910  1.0000
  C   C242      1.0  0.16768  0.55759  0.09038  1.0000
  C   C243      1.0  0.18275  0.56950  0.09611  1.0000
  C   C244      1.0  0.17500  0.59135  0.10100  1.0000
  H   H228      1.0  0.11968  0.59794  0.09253  1.0000
  C   C245      1.0  0.25962  0.81711  0.21733  1.0000
  H   H229      1.0  0.20045  0.56172  0.09698  1.0000
  H   H230      1.0  0.18670  0.60039  0.10554  1.0000
  C   C246      1.0  0.27224  0.83112  0.22370  1.0000
  S   S98       1.0  0.12779  0.51981  0.05653  1.0000
  C   C247      1.0  0.11529  0.56336  0.20596  1.0000
  Fe  Fe48      1.0  0.36439  0.85821  0.22252  1.0000
  H   H231      1.0  0.16611  0.55992  0.14963  1.0000
  C   C248      1.0  0.06283  0.92248  0.20687  1.0000
  S   S99       1.0  0.17832  0.53016  0.08476  1.0000
  H   H232      1.0  0.21011  0.76161  0.23693  1.0000
  H   H233      1.0  0.12987  0.58740  0.15348  1.0000
  C   C249      1.0  0.09025  0.88731  0.20548  1.0000
  C   C250      1.0  0.11954  0.81741  0.16578  1.0000
  C   C251      1.0  0.14291  0.71068  0.19248  1.0000
  C   C252      1.0  0.16161  0.71911  0.17671  1.0000
  C   C253      1.0  0.16965  0.73917  0.17800  1.0000
  C   C254      1.0  0.15876  0.75105  0.19471  1.0000
  C   C255      1.0  0.03283  0.48725  0.08165  1.0000
  H   H234      1.0  0.13662  0.69519  0.19157  1.0000
  H   H235      1.0  0.18413  0.74574  0.16583  1.0000
  H   H236      1.0  0.16502  0.76656  0.19538  1.0000
  H   H237      1.0  0.47659  0.80856  0.09994  1.0000
  H   H238      1.0  0.43109  0.66225  0.18975  1.0000
  Fe  Fe49      1.0  0.46585  0.72565  0.16693  1.0000
  H   H239      1.0  0.22422  0.61185  0.22655  1.0000
  C   C256      1.0  0.23716  0.67619  0.14673  1.0000
  C   C257      1.0  0.28345  0.68417  0.13509  1.0000
  S   S100      1.0  0.15943  0.50306  0.00096  1.0000
  S   S101      1.0  0.26031  0.63237  0.23454  1.0000
  H   H240      1.0  0.37542  0.90833  0.21012  1.0000
  H   H241      1.0  0.11949  0.83530  0.16643  1.0000
  H   H242      1.0  0.14705  0.77788  0.13508  1.0000
  H   H243      1.0  0.14636  0.81901  0.13655  1.0000
  C   C258      1.0  0.40371  0.80830  0.18886  1.0000
  H   H244      1.0  0.48760  0.93955  0.10189  1.0000
  H   H245      1.0  0.28507  0.67083  0.10653  1.0000
  H   H246      1.0  0.42524  0.70219  0.16320  1.0000
  H   H247      1.0  0.44859  0.93933  0.12092  1.0000
  H   H248      1.0  0.38124  0.76617  0.22916  1.0000
  H   H249      1.0  0.41779  0.70046  0.13841  1.0000
  H   H250      1.0  0.10114  0.94059  0.22820  1.0000
  C   C259      1.0  0.29793  0.57806  0.23370  1.0000
  C   C260      1.0  0.39054  0.80805  0.17374  1.0000
  H   H251      1.0  0.48110  0.52023  0.19426  1.0000
  H   H252      1.0  0.13606  0.60919  0.03749  1.0000
  C   C261      1.0  0.08963  0.81332  0.19949  1.0000
  H   H253      1.0  0.28230  0.50659  0.15413  1.0000
  H   H254      1.0  0.27676  0.69583  0.16506  1.0000
  Fe  Fe50      1.0  0.14813  0.49380  0.03717  1.0000
  C   C262      1.0  0.13564  0.57272  0.20467  1.0000
  H   H255      1.0  0.26732  0.79990  0.21527  1.0000
  Fe  Fe51      1.0  0.28843  0.65483  0.22796  1.0000
  Fe  Fe52      1.0  0.13832  0.79106  0.23075  1.0000
  C   C263      1.0  0.19908  0.53681  0.02304  1.0000
  C   C264      1.0  0.47239  0.52978  0.20679  1.0000
  C   C265      1.0  0.49065  0.84017  0.08445  1.0000
  C   C266      1.0  0.18636  0.57225  0.03710  1.0000
  C   C267      1.0  0.43083  0.89013  0.18625  1.0000
  H   H256      1.0  0.25951  0.49786  0.17731  1.0000
  H   H257      1.0  0.41548  0.91842  0.14219  1.0000
  C   C268      1.0  0.43144  0.90913  0.13453  1.0000
  Fe  Fe53      1.0  0.01526  0.96404  0.23028  1.0000
  H   H258      1.0  0.17564  0.51094  0.15612  1.0000
  C   C269      1.0  0.18994  0.70380  0.23133  1.0000
  H   H259      1.0  0.35762  0.74620  0.21519  1.0000
  H   H260      1.0  0.33603  0.77129  0.21269  1.0000
  C   C270      1.0  0.10545  0.78131  0.18078  1.0000
  S   S102      1.0  0.45542  0.79009  0.14066  1.0000
  S   S103      1.0  0.22002  0.80627  0.20939  1.0000
  C   C271      1.0  0.27417  0.67507  0.12144  1.0000
  H   H261      1.0  0.11701  0.71647  0.22100  1.0000
  C   C272      1.0  0.17018  0.59151  0.04082  1.0000
  C   C273      1.0  0.15742  0.55944  0.20028  1.0000
  N   N21       1.0  0.41116  0.67167  0.16489  1.0000
  C   C274      1.0  0.41676  0.65876  0.18382  1.0000
  C   C275      1.0  0.39282  0.66740  0.15760  1.0000
  C   C276      1.0  0.38369  0.77793  0.21357  1.0000
  C   C277      1.0  0.37933  0.65005  0.16958  1.0000
  S   S104      1.0  0.39379  0.86629  0.19400  1.0000
  C   C278      1.0  0.42500  0.69016  0.15259  1.0000
  H   H262      1.0  0.38802  0.67786  0.14282  1.0000
  H   H263      1.0  0.07149  0.81655  0.19676  1.0000
  S   S105      1.0  0.16168  0.84706  0.23108  1.0000
  S   S106      1.0  0.33961  0.83380  0.22310  1.0000
  H   H264      1.0  0.45650  0.85470  0.13037  1.0000
  H   H265      1.0  0.40803  0.63120  0.21125  1.0000
  C   C279      1.0  0.08361  0.91057  0.19696  1.0000
  H   H266      1.0  0.23929  0.75004  0.22584  1.0000
  C   C280      1.0  0.42870  0.92748  0.19513  1.0000
  N   N22       1.0  0.47070  0.90897  0.11361  1.0000
  C   C281      1.0  0.47729  0.82161  0.18112  1.0000
  Fe  Fe54      1.0  0.48062  0.94426  0.18176  1.0000
  H   H267      1.0  0.09457  0.82981  0.20086  1.0000
  Fe  Fe55      1.0  0.40233  0.50369  0.22676  1.0000
  H   H268      1.0  0.46014  0.90893  0.17966  1.0000
  H   H269      1.0  0.12057  0.75377  0.16353  1.0000
  S   S107      1.0  0.13972  0.50011  0.19287  1.0000
  C   C282      1.0  0.37392  0.79273  0.17899  1.0000
  H   H270      1.0  0.10091  0.53412  0.20291  1.0000
  C   C283      1.0  0.26206  0.85320  0.22676  1.0000
  S   S108      1.0  0.46651  0.68828  0.18355  1.0000
  C   C284      1.0  0.17203  0.51872  0.13977  1.0000
  H   H271      1.0  0.39319  0.81959  0.15801  1.0000
  H   H272      1.0  0.13028  0.51227  0.13493  1.0000
  H   H273      1.0  0.47902  0.83645  0.04388  1.0000
  H   H274      1.0  0.45964  0.60546  0.23968  1.0000
  C   C285      1.0  0.23195  0.68915  0.18090  1.0000
  C   C286      1.0  0.44803  0.53212  0.21302  1.0000
  S   S109      1.0  0.27616  0.87043  0.23681  1.0000
  H   H275      1.0  0.23693  0.55357  0.21561  1.0000
  H   H276      1.0  0.36376  0.79269  0.16710  1.0000
  N   N23       1.0  0.15038  0.53476  0.14167  1.0000
  Fe  Fe56      1.0  0.15540  0.50901  0.07647  1.0000
  H   H277      1.0  0.17366  0.60340  0.04964  1.0000
  C   C287      1.0  0.39392  0.90835  0.20366  1.0000
  C   C288      1.0  0.12017  0.77178  0.16386  1.0000
  H   H278      1.0  0.13323  0.55865  0.08462  1.0000
  N   N24       1.0  0.10544  0.80378  0.18168  1.0000
  C   C289      1.0  0.13840  0.52767  0.19819  1.0000
  S   S110      1.0  0.07295  0.49216  0.09252  1.0000
  S   S111      1.0  0.15593  0.81299  0.20036  1.0000
  H   H279      1.0  0.15744  0.54772  0.01138  1.0000
  H   H280      1.0  0.31463  0.56633  0.23331  1.0000
  C   C290      1.0  0.47294  0.88556  0.11626  1.0000
  C   C291      1.0  0.15878  0.53676  0.19744  1.0000
  C   C292      1.0  0.14901  0.59468  0.03409  1.0000
  C   C293      1.0  0.47850  0.83935  0.19128  1.0000
  C   C294      1.0  0.16117  0.55997  0.01966  1.0000
  H   H281      1.0  0.09452  0.77040  0.19356  1.0000
  Fe  Fe57      1.0  0.18131  0.81498  0.22037  1.0000
  H   H282      1.0  0.48319  0.86649  0.03557  1.0000
  H   H283      1.0  0.09845  0.57356  0.20936  1.0000
  H   H284      1.0  0.17561  0.52652  0.19426  1.0000
  H   H285      1.0  0.08036  0.85789  0.23012  1.0000
  H   H286      1.0  0.18705  0.74070  0.22534  1.0000
  H   H287      1.0  0.27024  0.57602  0.20707  1.0000
  C   C295      1.0  0.14445  0.57886  0.02339  1.0000
  C   C296      1.0  0.23674  0.82503  0.21436  1.0000
  C   C297      1.0  0.13182  0.72277  0.20908  1.0000
  H   H288      1.0  0.34935  0.75817  0.18960  1.0000
  H   H289      1.0  0.36428  0.64732  0.16414  1.0000
  H   H290      1.0  0.20963  0.85384  0.21379  1.0000
  C   C298      1.0  0.49008  0.92128  0.10029  1.0000
  N   N25       1.0  0.18169  0.55675  0.02673  1.0000
  C   C299      1.0  0.12984  0.57097  0.14929  1.0000
  H   H291      1.0  0.09346  0.57718  0.14780  1.0000
  C   C300      1.0  0.27870  0.49749  0.17135  1.0000
  H   H292      1.0  0.17318  0.56658  0.19942  1.0000
  H   H293      1.0  0.41917  0.87596  0.14668  1.0000
  H   H294      1.0  0.21493  0.54252  0.01138  1.0000
  H   H295      1.0  0.18692  0.52784  0.12991  1.0000
  S   S112      1.0  0.44256  0.95036  0.19645  1.0000
  Fe  Fe58      1.0  0.13434  0.84269  0.21417  1.0000
  H   H296      1.0  0.23184  0.87863  0.22488  1.0000
  C   C301      1.0  0.04837  0.91098  0.22509  1.0000
  H   H297      1.0  0.28467  0.50694  0.18150  1.0000
  H   H298      1.0  0.37448  0.62350  0.19861  1.0000
  H   H299      1.0  0.12805  0.90388  0.22896  1.0000
  C   C302      1.0  0.22696  0.84738  0.21668  1.0000
  C   C303      1.0  0.45444  0.87333  0.12802  1.0000
  H   H300      1.0  0.46394  0.85563  0.02399  1.0000
  H   H301      1.0  0.17469  0.70367  0.22489  1.0000
  C   C304      1.0  0.26579  0.56548  0.22315  1.0000
  H   H302      1.0  0.44332  0.68291  0.14674  1.0000
  C   C305      1.0  0.35257  0.76262  0.20430  1.0000
  C   C306      1.0  0.23962  0.86145  0.22280  1.0000
  H   H303      1.0  0.20394  0.52736  0.03865  1.0000
  H   H304      1.0  0.28961  0.82471  0.22658  1.0000
  H   H305      1.0  0.29879  0.59043  0.21792  1.0000
  H   H306      1.0  0.12797  0.58102  0.01822  1.0000
  S   S113      1.0  0.12445  0.75877  0.23015  1.0000
  C   C307      1.0  0.05472  0.88759  0.23325  1.0000
  H   H307      1.0  0.45732  0.90414  0.23532  1.0000
  H   H308      1.0  0.44960  0.87044  0.22611  1.0000
  H   H309      1.0  0.48929  0.87622  0.10950  1.0000
  C   C308      1.0  0.47435  0.55001  0.23456  1.0000
  Fe  Fe59      1.0  0.29787  0.69943  0.23550  1.0000
  Fe  Fe60      1.0  0.11132  0.48923  0.07808  1.0000
  S   S114      1.0  0.23989  0.49259  0.22450  1.0000
  C   C309      1.0  0.48853  0.82242  0.15942  1.0000
  C   C310      1.0  0.43684  0.54416  0.22945  1.0000
  S   S115      1.0  0.20970  0.48321  0.18171  1.0000
  C   C311      1.0  0.30742  0.48454  0.22957  1.0000
  H   H310      1.0  0.47616  0.58451  0.16549  1.0000
  S   S116      1.0  0.02268  0.92530  0.23862  1.0000
  H   H311      1.0  0.41658  0.82018  0.18510  1.0000
  H   H312      1.0  0.48871  0.80841  0.15164  1.0000
  H   H313      1.0  0.00082  0.48361  0.07341  1.0000
  H   H314      1.0  0.27909  0.51194  0.22812  1.0000
  H   H315      1.0  0.31968  0.49556  0.23006  1.0000
  H   H316      1.0  0.41802  0.54674  0.23377  1.0000
  C   C312      1.0  0.28429  0.49381  0.22858  1.0000
  C   C313      1.0  0.43416  0.86848  0.23968  1.0000
  S   S117      1.0  0.17708  0.48537  0.05534  1.0000
  Fe  Fe61      1.0  0.33570  0.65891  0.23524  1.0000
  S   S118      1.0  0.13695  0.48107  0.10016  1.0000
  N   N26       1.0  0.27832  0.56464  0.23862  1.0000
  C   C314      1.0  0.49091  0.85780  0.17980  1.0000
  H   H317      1.0  0.32148  0.48208  0.17924  1.0000
  C   C315      1.0  0.20256  0.68312  0.23954  1.0000
  N   N27       1.0  0.21612  0.72493  0.23991  1.0000
  H   H318      1.0  0.38918  0.59288  0.23654  1.0000
  H   H319      1.0  0.19731  0.66676  0.23944  1.0000
  H   H320      1.0  0.44150  0.55651  0.31619  1.0000
  C   C316      1.0  0.43454  0.56986  0.30405  1.0000
  H   H321      1.0  0.06066  0.86700  0.29508  1.0000
  S   S119      1.0  0.13544  0.83444  0.29107  1.0000
  C   C317      1.0  0.07094  0.90705  0.27210  1.0000
  H   H322      1.0  0.08536  0.85051  0.28144  1.0000
  S   S120      1.0  0.31843  0.83836  0.27439  1.0000
  H   H323      1.0  0.39052  0.88101  0.25920  1.0000
  C   C318      1.0  0.11221  0.90512  0.24134  1.0000
  Fe  Fe62      1.0  0.04504  0.96141  0.37938  1.0000
  S   S121      1.0  0.46315  0.51278  0.33264  1.0000
  C   C319      1.0  0.25444  0.53780  0.26389  1.0000
  S   S122      1.0  0.35546  0.77953  0.26771  1.0000
  Fe  Fe63      1.0  0.34482  0.86240  0.26949  1.0000
  S   S123      1.0  0.35129  0.87763  0.29570  1.0000
  H   H324      1.0  0.14379  0.92723  0.43289  1.0000
  C   C320      1.0  0.41663  0.48934  0.30910  1.0000
  C   C321      1.0  0.29760  0.80596  0.34994  1.0000
  Fe  Fe64      1.0  0.35839  0.51279  0.25988  1.0000
  S   S124      1.0  0.33173  0.53977  0.27328  1.0000
  Fe  Fe65      1.0  0.48990  0.49181  0.35104  1.0000
  C   C322      1.0  0.40193  0.59110  0.28878  1.0000
  S   S125      1.0  0.39626  0.50942  0.26070  1.0000
  C   C323      1.0  0.41744  0.60394  0.27259  1.0000
  C   C324      1.0  0.15644  0.91596  0.40235  1.0000
  Fe  Fe66      1.0  0.21590  0.82626  0.36461  1.0000
  S   S126      1.0  0.22792  0.86096  0.35385  1.0000
  S   S127      1.0  0.21979  0.80458  0.33972  1.0000
  Fe  Fe67      1.0  0.19994  0.83118  0.41182  1.0000
  S   S128      1.0  0.21089  0.86640  0.40515  1.0000
  Fe  Fe68      1.0  0.19510  0.87277  0.37575  1.0000
  S   S129      1.0  0.17191  0.90360  0.36232  1.0000
  Fe  Fe69      1.0  0.24285  0.85126  0.38390  1.0000
  S   S130      1.0  0.27906  0.85689  0.38440  1.0000
  S   S131      1.0  0.18157  0.83877  0.38398  1.0000
  S   S132      1.0  0.23326  0.81532  0.39327  1.0000
  H   H325      1.0  0.00682  0.95937  0.47467  1.0000
  C   C325      1.0  0.08502  0.89446  0.37475  1.0000
  C   C326      1.0  0.13249  0.89881  0.48136  1.0000
  C   C327      1.0  0.34243  0.56634  0.26653  1.0000
  C   C328      1.0  0.32860  0.58509  0.27433  1.0000
  C   C329      1.0  0.33643  0.60672  0.26830  1.0000
  C   C330      1.0  0.44955  0.58297  0.28764  1.0000
  H   H326      1.0  0.46819  0.57927  0.28714  1.0000
  N   N28       1.0  0.31925  0.80381  0.33673  1.0000
  C   C331      1.0  0.42747  0.50320  0.31745  1.0000
  C   C332      1.0  0.40698  0.93183  0.25983  1.0000
  H   H327      1.0  0.30883  0.77234  0.30376  1.0000
  H   H328      1.0  0.41055  0.61711  0.26027  1.0000
  C   C333      1.0  0.37239  0.59073  0.24725  1.0000
  H   H329      1.0  0.12979  0.89455  0.31450  1.0000
  C   C334      1.0  0.43919  0.90682  0.24351  1.0000
  H   H330      1.0  0.35248  0.80001  0.34483  1.0000
  H   H331      1.0  0.44979  0.63129  0.25092  1.0000
  C   C335      1.0  0.32109  0.73122  0.25973  1.0000
  H   H332      1.0  0.32376  0.71276  0.26099  1.0000
  C   C336      1.0  0.04501  0.96684  0.32787  1.0000
  H   H333      1.0  0.09282  0.90189  0.45157  1.0000
  C   C337      1.0  0.15849  0.87279  0.45176  1.0000
  C   C338      1.0  0.99640  0.94586  0.48360  1.0000
  C   C339      1.0  0.18398  0.81913  0.46727  1.0000
  H   H334      1.0  0.39988  0.49573  0.30472  1.0000
  H   H335      1.0  0.28171  0.77803  0.24773  1.0000
  Fe  Fe70      1.0  0.01417  0.96180  0.42394  1.0000
  H   H336      1.0  0.15427  0.89392  0.32691  1.0000
  H   H337      1.0  0.29431  0.81518  0.36315  1.0000
  S   S133      1.0  0.28001  0.73093  0.24793  1.0000
  H   H338      1.0  0.48903  0.49090  0.47264  1.0000
  C   C340      1.0  0.33439  0.76593  0.26258  1.0000
  C   C341      1.0  0.33785  0.74209  0.26423  1.0000
  N   N29       1.0  0.49128  0.49599  0.26394  1.0000
  H   H339      1.0  0.35353  0.73203  0.26881  1.0000
  C   C342      1.0  0.32998  0.87404  0.31973  1.0000
  C   C343      1.0  0.30819  0.86805  0.32004  1.0000
  C   C344      1.0  0.29212  0.86337  0.33977  1.0000
  C   C345      1.0  0.29777  0.86478  0.35921  1.0000
  C   C346      1.0  0.31939  0.87123  0.35877  1.0000
  C   C347      1.0  0.33542  0.87595  0.33907  1.0000
  H   H340      1.0  0.30364  0.86719  0.30509  1.0000
  H   H341      1.0  0.27565  0.85822  0.33994  1.0000
  H   H342      1.0  0.32387  0.87233  0.37375  1.0000
  H   H343      1.0  0.35224  0.88061  0.33892  1.0000
  C   C348      1.0  0.19583  0.81224  0.32687  1.0000
  C   C349      1.0  0.18149  0.83308  0.32840  1.0000
  C   C350      1.0  0.16260  0.83939  0.31783  1.0000
  C   C351      1.0  0.15830  0.82523  0.30525  1.0000
  C   C352      1.0  0.17262  0.80436  0.30369  1.0000
  C   C353      1.0  0.19129  0.79779  0.31464  1.0000
  H   H344      1.0  0.18522  0.84453  0.33740  1.0000
  H   H345      1.0  0.15161  0.85548  0.31895  1.0000
  H   H346      1.0  0.16918  0.79316  0.29428  1.0000
  H   H347      1.0  0.20229  0.78160  0.31351  1.0000
  N   N30       1.0  0.12113  0.89146  0.34871  1.0000
  H   H348      1.0  0.22475  0.83513  0.48825  1.0000
  C   C354      1.0  0.12988  0.87292  0.36258  1.0000
  H   H349      1.0  0.05450  0.90793  0.28376  1.0000
  C   C355      1.0  0.10626  0.88580  0.25729  1.0000
  Fe  Fe71      1.0  0.14335  0.82289  0.25926  1.0000
  H   H350      1.0  0.06754  0.90322  0.37930  1.0000
  H   H351      1.0  0.28334  0.54980  0.27078  1.0000
  C   C356      1.0  0.30076  0.74421  0.25398  1.0000
  S   S134      1.0  0.05077  0.94556  0.35016  1.0000
  C   C357      1.0  0.27304  0.55085  0.25870  1.0000
  H   H352      1.0  0.44171  0.94113  0.24667  1.0000
  C   C358      1.0  0.31409  0.77893  0.25679  1.0000
  H   H353      1.0  0.37428  0.91765  0.27099  1.0000
  H   H354      1.0  0.18794  0.87398  0.46533  1.0000
  H   H355      1.0  0.45470  0.50348  0.27565  1.0000
  S   S135      1.0  0.04606  0.93872  0.41195  1.0000
  C   C359      1.0  0.13541  0.90014  0.32746  1.0000
  H   H356      1.0  0.11795  0.86981  0.25740  1.0000
  N   N31       1.0  0.08565  0.88682  0.27213  1.0000
  C   C360      1.0  0.36430  0.56916  0.25293  1.0000
  C   C361      1.0  0.45688  0.61277  0.25449  1.0000
  H   H357      1.0  0.21169  0.80947  0.26033  1.0000
  H   H358      1.0  0.08895  0.86430  0.30209  1.0000
  H   H359      1.0  0.29593  0.58836  0.24637  1.0000
  H   H360      1.0  0.16844  0.86259  0.44012  1.0000
  H   H361      1.0  0.12808  0.93076  0.36033  1.0000
  H   H362      1.0  0.07443  0.97552  0.46950  1.0000
  C   C362      1.0  0.41059  0.57392  0.30455  1.0000
  C   C363      1.0  0.28324  0.78428  0.32986  1.0000
  H   H363      1.0  0.13381  0.91924  0.32422  1.0000
  C   C364      1.0  0.16631  0.81662  0.48592  1.0000
  H   H364      1.0  0.31138  0.79738  0.25547  1.0000
  C   C365      1.0  0.11436  0.93910  0.39173  1.0000
  C   C366      1.0  0.20507  0.82592  0.46804  1.0000
  C   C367      1.0  0.07977  0.86623  0.28854  1.0000
  Fe  Fe72      1.0  0.34750  0.81731  0.25589  1.0000
  H   H365      1.0  0.48656  0.60179  0.45894  1.0000
  S   S136      1.0  0.49058  0.56019  0.24895  1.0000
  C   C368      1.0  0.11656  0.86497  0.38310  1.0000
  H   H366      1.0  0.31169  0.58296  0.28487  1.0000
  C   C369      1.0  0.13458  0.87939  0.45284  1.0000
  C   C370      1.0  0.22858  0.70472  0.24799  1.0000
  C   C371      1.0  0.16942  0.87922  0.46590  1.0000
  C   C372      1.0  0.32332  0.79191  0.32033  1.0000
  C   C373      1.0  0.09401  0.87593  0.38923  1.0000
  H   H367      1.0  0.12383  0.85056  0.39418  1.0000
  H   H368      1.0  0.14750  0.86460  0.35805  1.0000
  S   S137      1.0  0.17869  0.81427  0.44324  1.0000
  H   H369      1.0  0.04351  0.87860  0.24726  1.0000
  C   C374      1.0  0.44997  0.55294  0.24033  1.0000
  H   H370      1.0  0.33268  0.82399  0.35325  1.0000
  C   C375      1.0  0.27931  0.79633  0.34660  1.0000
  S   S138      1.0  0.29952  0.66366  0.25549  1.0000
  H   H371      1.0  0.26333  0.84475  0.30919  1.0000
  C   C376      1.0  0.39259  0.91481  0.26328  1.0000
  H   H372      1.0  0.39879  0.56372  0.31710  1.0000
  N   N32       1.0  0.24253  0.84329  0.28698  1.0000
  C   C377      1.0  0.25237  0.82179  0.28362  1.0000
  C   C378      1.0  0.22207  0.85307  0.28054  1.0000
  C   C379      1.0  0.24127  0.80918  0.27429  1.0000
  H   H373      1.0  0.09146  0.91678  0.47261  1.0000
  C   C380      1.0  0.22031  0.81892  0.26789  1.0000
  C   C381      1.0  0.25462  0.85632  0.29651  1.0000
  H   H374      1.0  0.26892  0.81434  0.28809  1.0000
  C   C382      1.0  0.09702  0.89979  0.46782  1.0000
  H   H375      1.0  0.24893  0.79208  0.27182  1.0000
  H   H376      1.0  0.21461  0.87034  0.28263  1.0000
  H   H377      1.0  0.38333  0.59439  0.28901  1.0000
  S   S139      1.0  0.37453  0.83950  0.25380  1.0000
  H   H378      1.0  0.44363  0.48429  0.25039  1.0000
  H   H379      1.0  0.47427  0.61165  0.25856  1.0000
  H   H380      1.0  0.41933  0.52042  0.31891  1.0000
  H   H381      1.0  0.03287  0.97276  0.27785  1.0000
  C   C383      1.0  0.21057  0.84098  0.27105  1.0000
  H   H382      1.0  0.26215  0.79805  0.35697  1.0000
  H   H383      1.0  0.08680  0.88686  0.47971  1.0000
  H   H384      1.0  0.34585  0.82567  0.32507  1.0000
  C   C384      1.0  0.09887  0.90192  0.35438  1.0000
  H   H385      1.0  0.26909  0.77671  0.32727  1.0000
  C   C385      1.0  0.14003  0.92727  0.41733  1.0000
  H   H386      1.0  0.09195  0.91652  0.34331  1.0000
  H   H387      1.0  0.04291  0.94260  0.30885  1.0000
  S   S140      1.0  0.09770  0.95217  0.43078  1.0000
  H   H388      1.0  0.39990  0.94818  0.26457  1.0000
  H   H389      1.0  0.32559  0.62117  0.27431  1.0000
  C   C386      1.0  0.11879  0.93859  0.41209  1.0000
  C   C387      1.0  0.15204  0.91707  0.38177  1.0000
  H   H390      1.0  0.17275  0.90708  0.40643  1.0000
  Fe  Fe73      1.0  0.06564  0.96512  0.41651  1.0000
  C   C388      1.0  0.33849  0.81383  0.34019  1.0000
  H   H391      1.0  0.15002  0.81129  0.48540  1.0000
  C   C389      1.0  0.40188  0.89405  0.25656  1.0000
  H   H392      1.0  0.24226  0.86946  0.30440  1.0000
  S   S141      1.0  0.36698  0.63701  0.24607  1.0000
  C   C390      1.0  0.13125  0.92914  0.37638  1.0000
  H   H393      1.0  0.09801  0.94731  0.38759  1.0000
  H   H394      1.0  0.21885  0.82779  0.45366  1.0000
  N   N33       1.0  0.44091  0.59985  0.27224  1.0000
  H   H395      1.0  0.34053  0.79006  0.30997  1.0000
  C   C391      1.0  0.30542  0.78194  0.31666  1.0000
  H   H396      1.0  0.26787  0.86526  0.28361  1.0000
  C   C392      1.0  0.43047  0.92780  0.25000  1.0000
  C   C393      1.0  0.04171  0.96059  0.30937  1.0000
  H   H397      1.0  0.43920  0.85538  0.25356  1.0000
  C   C394      1.0  0.44876  0.49475  0.32391  1.0000
  H   H398      1.0  0.08351  0.87012  0.40515  1.0000
  H   H399      1.0  0.19433  0.84869  0.26601  1.0000
  C   C395      1.0  0.29720  0.76801  0.25262  1.0000
  C   C396      1.0  0.35827  0.60955  0.25476  1.0000
  N   N34       1.0  0.42481  0.89042  0.24650  1.0000
  H   H400      1.0  0.48080  0.58198  0.48452  1.0000
  H   H401      1.0  0.48369  0.51976  0.28529  1.0000
  C   C397      1.0  0.07643  0.92677  0.25650  1.0000
  C   C398      1.0  0.09712  0.92569  0.24093  1.0000
  H   H402      1.0  0.44116  0.56169  0.25336  1.0000
  Fe  Fe74      1.0  0.31281  0.85736  0.24140  1.0000
  H   H403      1.0  0.25054  0.52660  0.27971  1.0000
  S   S142      1.0  0.16508  0.79096  0.25006  1.0000
  C   C399      1.0  0.46827  0.49539  0.26437  1.0000
  H   H404      1.0  0.06425  0.94250  0.25600  1.0000
  C   C400      1.0  0.22195  0.68356  0.24802  1.0000
  H   H405      1.0  0.22916  0.74665  0.25482  1.0000
  C   C401      1.0  0.15633  0.89212  0.48097  1.0000
  H   H406      1.0  0.37476  0.55487  0.24641  1.0000
  C   C402      1.0  0.03600  0.97763  0.29188  1.0000
  S   S143      1.0  0.11458  0.82066  0.24314  1.0000
  N   N35       1.0  0.12201  0.89272  0.46717  1.0000
  H   H407      1.0  0.12629  0.87420  0.44182  1.0000
  H   H408      1.0  0.46043  0.60753  0.47844  1.0000
  H   H409      1.0  0.24373  0.70485  0.25454  1.0000
  H   H410      1.0  0.23182  0.66759  0.25460  1.0000
  C   C403      1.0  0.24120  0.53900  0.24840  1.0000
  C   C404      1.0  0.47921  0.60053  0.47662  1.0000
  C   C405      1.0  0.20839  0.83005  0.48760  1.0000
  H   H411      1.0  0.22697  0.52866  0.25204  1.0000
  C   C406      1.0  0.46188  0.48470  0.25001  1.0000
  H   H412      1.0  0.48439  0.70600  0.73083  1.0000
  Fe  Fe75      1.0  0.16049  0.84599  0.55130  1.0000
  S   S144      1.0  0.12678  0.83196  0.55531  1.0000
  S   S145      1.0  0.19432  0.83350  0.53056  1.0000
  Fe  Fe76      1.0  0.13742  0.88254  0.57783  1.0000
  S   S146      1.0  0.10197  0.87211  0.58314  1.0000
  S   S147      1.0  0.14056  0.91147  0.59281  1.0000
  Fe  Fe77      1.0  0.12059  0.83639  0.58970  1.0000
  S   S148      1.0  0.10638  0.81189  0.61973  1.0000
  Fe  Fe78      1.0  0.11202  0.86908  0.54827  1.0000
  S   S149      1.0  0.15571  0.84694  0.58664  1.0000
  S   S150      1.0  0.14601  0.88297  0.54207  1.0000
  S   S151      1.0  0.22887  0.84051  0.67203  1.0000
  Fe  Fe79      1.0  0.18314  0.70596  0.64554  1.0000
  S   S152      1.0  0.16712  0.69839  0.68107  1.0000
  S   S153      1.0  0.16441  0.71387  0.61801  1.0000
  Fe  Fe80      1.0  0.23161  0.70462  0.65307  1.0000
  S   S154      1.0  0.22026  0.69708  0.68930  1.0000
  S   S155      1.0  0.26747  0.71110  0.63480  1.0000
  Fe  Fe81      1.0  0.19903  0.67247  0.68356  1.0000
  S   S156      1.0  0.20130  0.63591  0.70255  1.0000
  Fe  Fe82      1.0  0.18974  0.72366  0.68333  1.0000
  S   S157      1.0  0.17567  0.75260  0.70105  1.0000
  S   S158      1.0  0.21319  0.67796  0.64757  1.0000
  S   S159      1.0  0.20294  0.73332  0.64763  1.0000
  H   H413      1.0  0.22158  0.65040  0.73114  1.0000
  H   H414      1.0  0.41992  0.75604  0.69166  1.0000
  H   H415      1.0  0.26399  0.85642  0.69092  1.0000
  S   S160      1.0  0.30784  0.54945  0.69959  1.0000
  H   H416      1.0  0.24685  0.78278  0.57996  1.0000
  C   C407      1.0  0.40300  0.66647  0.73000  1.0000
  S   S161      1.0  0.43290  0.63817  0.70545  1.0000
  C   C408      1.0  0.42773  0.78424  0.71443  1.0000
  H   H417      1.0  0.00754  0.95586  0.64101  1.0000
  S   S162      1.0  0.47884  0.61829  0.65711  1.0000
  H   H418      1.0  0.14304  0.95557  0.67857  1.0000
  C   C409      1.0  0.31339  0.64822  0.73678  1.0000
  H   H419      1.0  0.48970  0.56482  0.72931  1.0000
  H   H420      1.0  0.40941  0.78961  0.71224  1.0000
  H   H421      1.0  0.44016  0.71706  0.70769  1.0000
  H   H422      1.0  0.22373  0.92675  0.72421  1.0000
  C   C410      1.0  0.02715  0.87350  0.56892  1.0000
  H   H423      1.0  0.11727  0.52463  0.62601  1.0000
  C   C411      1.0  0.43987  0.53196  0.70707  1.0000
  H   H424      1.0  0.47251  0.60738  0.57701  1.0000
  H   H425      1.0  0.05819  0.86800  0.62126  1.0000
  C   C412      1.0  0.02181  0.95271  0.66955  1.0000
  C   C413      1.0  0.04293  0.90942  0.66168  1.0000
  H   H426      1.0  0.23383  0.51541  0.70494  1.0000
  H   H427      1.0  0.26214  0.93974  0.72001  1.0000
  Fe  Fe83      1.0  0.31541  0.74535  0.71686  1.0000
  C   C414      1.0  0.17645  0.62158  0.70918  1.0000
  C   C415      1.0  0.15434  0.63369  0.70799  1.0000
  C   C416      1.0  0.13483  0.62176  0.71307  1.0000
  C   C417      1.0  0.13747  0.59768  0.71870  1.0000
  C   C418      1.0  0.15966  0.58552  0.71965  1.0000
  C   C419      1.0  0.17905  0.59749  0.71525  1.0000
  H   H428      1.0  0.15217  0.65226  0.70342  1.0000
  H   H429      1.0  0.29778  0.68022  0.71981  1.0000
  C   C420      1.0  0.43620  0.76325  0.68481  1.0000
  H   H430      1.0  0.24692  0.74308  0.60235  1.0000
  C   C421      1.0  0.27785  0.72665  0.64941  1.0000
  C   C422      1.0  0.27712  0.71857  0.67165  1.0000
  C   C423      1.0  0.28565  0.73096  0.68332  1.0000
  C   C424      1.0  0.29417  0.75179  0.67285  1.0000
  C   C425      1.0  0.29462  0.76001  0.65069  1.0000
  C   C426      1.0  0.28681  0.74723  0.63888  1.0000
  H   H431      1.0  0.27047  0.70249  0.67973  1.0000
  H   H432      1.0  0.26060  0.50486  0.63972  1.0000
  H   H433      1.0  0.30127  0.77611  0.64261  1.0000
  H   H434      1.0  0.28736  0.75348  0.62169  1.0000
  C   C427      1.0  0.21384  0.81627  0.67799  1.0000
  C   C428      1.0  0.22544  0.79513  0.67316  1.0000
  C   C429      1.0  0.21379  0.77541  0.67975  1.0000
  C   C430      1.0  0.19069  0.77680  0.69150  1.0000
  C   C431      1.0  0.17909  0.79799  0.69584  1.0000
  C   C432      1.0  0.19043  0.81770  0.68860  1.0000
  H   H435      1.0  0.24352  0.79385  0.66472  1.0000
  H   H436      1.0  0.22290  0.75904  0.67631  1.0000
  C   C433      1.0  0.25659  0.92584  0.73324  1.0000
  H   H437      1.0  0.18081  0.83403  0.69106  1.0000
  C   C434      1.0  0.12166  0.78432  0.61926  1.0000
  C   C435      1.0  0.12891  0.77635  0.59977  1.0000
  C   C436      1.0  0.14129  0.75430  0.59956  1.0000
  C   C437      1.0  0.14730  0.74063  0.61863  1.0000
  C   C438      1.0  0.14027  0.74874  0.63805  1.0000
  C   C439      1.0  0.12698  0.77034  0.63845  1.0000
  H   H438      1.0  0.12444  0.78690  0.58499  1.0000
  H   H439      1.0  0.14631  0.74790  0.58463  1.0000
  H   H440      1.0  0.14467  0.73820  0.65287  1.0000
  H   H441      1.0  0.12113  0.77631  0.65360  1.0000
  C   C440      1.0  0.13048  0.90594  0.62113  1.0000
  C   C441      1.0  0.13511  0.92034  0.63330  1.0000
  C   C442      1.0  0.11865  0.88693  0.63178  1.0000
  H   H442      1.0  0.14407  0.93517  0.62521  1.0000
  H   H443      1.0  0.11480  0.87580  0.62255  1.0000
  H   H444      1.0  0.16460  0.89680  0.49233  1.0000
  S   S163      1.0  0.11262  0.58333  0.72523  1.0000
  Fe  Fe84      1.0  0.35725  0.73294  0.73806  1.0000
  S   S164      1.0  0.12284  0.48698  0.70607  1.0000
  S   S165      1.0  0.27868  0.50987  0.73550  1.0000
  C   C443      1.0  0.20443  0.50803  0.66818  1.0000
  C   C444      1.0  0.42410  0.66374  0.71522  1.0000
  H   H445      1.0  0.15569  0.81908  0.51939  1.0000
  C   C445      1.0  0.44454  0.85111  0.71038  1.0000
  H   H446      1.0  0.05573  0.83760  0.62905  1.0000
  H   H447      1.0  0.09132  0.92367  0.58625  1.0000
  C   C446      1.0  0.24809  0.78020  0.71916  1.0000
  Fe  Fe85      1.0  0.02272  0.97174  0.55642  1.0000
  C   C447      1.0  0.02903  0.87181  0.59040  1.0000
  C   C448      1.0  0.29275  0.83133  0.68154  1.0000
  H   H448      1.0  0.27010  0.89027  0.70315  1.0000
  C   C449      1.0  0.04151  0.85823  0.55674  1.0000
  C   C450      1.0  0.30042  0.66167  0.72180  1.0000
  C   C451      1.0  0.02902  0.92341  0.64775  1.0000
  C   C452      1.0  0.23450  0.74964  0.59177  1.0000
  H   H449      1.0  0.04238  0.95731  0.50557  1.0000
  Fe  Fe86      1.0  0.46369  0.64406  0.67809  1.0000
  N   N36       1.0  0.24722  0.79668  0.73288  1.0000
  H   H450      1.0  0.09192  0.95496  0.54488  1.0000
  S   S166      1.0  0.01044  0.97729  0.59063  1.0000
  H   H451      1.0  0.17531  0.76217  0.54984  1.0000
  H   H452      1.0  0.01307  0.96908  0.67305  1.0000
  H   H453      1.0  0.11221  0.95591  0.57296  1.0000
  C   C453      1.0  0.05866  0.83995  0.58777  1.0000
  H   H454      1.0  0.19012  0.73359  0.57635  1.0000
  S   S167      1.0  0.02573  0.93328  0.56594  1.0000
  S   S168      1.0  0.11796  0.54247  0.68583  1.0000
  Fe  Fe87      1.0  0.09395  0.51595  0.70265  1.0000
  H   H455      1.0  0.32466  0.80868  0.67420  1.0000
  H   H456      1.0  0.17336  0.78978  0.55682  1.0000
  N   N37       1.0  0.09424  0.91173  0.73321  1.0000
  Fe  Fe88      1.0  0.48063  0.64866  0.62952  1.0000
  Fe  Fe89      1.0  0.14673  0.51394  0.69217  1.0000
  S   S169      1.0  0.02556  0.91330  0.62551  1.0000
  H   H457      1.0  0.21817  0.71855  0.60050  1.0000
  C   C454      1.0  0.29297  0.62688  0.71299  1.0000
  C   C455      1.0  0.09474  0.93452  0.71892  1.0000
  S   S170      1.0  0.16328  0.91964  0.70882  1.0000
  H   H458      1.0  0.07913  0.50092  0.63527  1.0000
  S   S171      1.0  0.17983  0.86424  0.71568  1.0000
  N   N38       1.0  0.09005  0.94954  0.60432  1.0000
  C   C456      1.0  0.19039  0.82805  0.50614  1.0000
  S   S172      1.0  0.04076  0.94828  0.70550  1.0000
  C   C457      1.0  0.20256  0.74448  0.57697  1.0000
  C   C458      1.0  0.24604  0.50664  0.65316  1.0000
  S   S173      1.0  0.17613  0.50780  0.66439  1.0000
  N   N39       1.0  0.04461  0.85515  0.59958  1.0000
  C   C459      1.0  0.42969  0.70308  0.71392  1.0000
  H   H459      1.0  0.32967  0.96015  0.72703  1.0000
  C   C460      1.0  0.11566  0.97879  0.59258  1.0000
  C   C461      1.0  0.38519  0.56976  0.72569  1.0000
  Fe  Fe90      1.0  0.28006  0.57555  0.71294  1.0000
  H   H460      1.0  0.10011  0.52394  0.65324  1.0000
  N   N40       1.0  0.15849  0.82181  0.65129  1.0000
  C   C462      1.0  0.16706  0.84254  0.64496  1.0000
  C   C463      1.0  0.17137  0.80270  0.64449  1.0000
  C   C464      1.0  0.18935  0.84439  0.63201  1.0000
  C   C465      1.0  0.19377  0.80390  0.63156  1.0000
  C   C466      1.0  0.20282  0.82489  0.62539  1.0000
  C   C467      1.0  0.13513  0.82024  0.66499  1.0000
  H   H461      1.0  0.15691  0.85771  0.65030  1.0000
  H   H462      1.0  0.16463  0.78622  0.64956  1.0000
  H   H463      1.0  0.19623  0.86078  0.62747  1.0000
  H   H464      1.0  0.20415  0.78853  0.62683  1.0000
  H   H465      1.0  0.22033  0.82604  0.61577  1.0000
  H   H466      1.0  0.12187  0.82492  0.65462  1.0000
  H   H467      1.0  0.13356  0.80252  0.67471  1.0000
  H   H468      1.0  0.13139  0.83196  0.67670  1.0000
  C   C468      1.0  0.36344  0.50725  0.72942  1.0000
  H   H469      1.0  0.43293  0.52606  0.69502  1.0000
  H   H470      1.0  0.42507  0.59569  0.73842  1.0000
  C   C469      1.0  0.31719  0.85125  0.70251  1.0000
  N   N41       1.0  0.35412  0.66586  0.68075  1.0000
  C   C470      1.0  0.34823  0.68782  0.67010  1.0000
  C   C471      1.0  0.34377  0.64810  0.67877  1.0000
  C   C472      1.0  0.33193  0.69236  0.65670  1.0000
  C   C473      1.0  0.32740  0.65203  0.66549  1.0000
  C   C474      1.0  0.32139  0.67434  0.65448  1.0000
  C   C475      1.0  0.37049  0.66154  0.69544  1.0000
  H   H471      1.0  0.35600  0.70202  0.67201  1.0000
  H   H472      1.0  0.34770  0.63084  0.68789  1.0000
  H   H473      1.0  0.32717  0.70981  0.64839  1.0000
  H   H474      1.0  0.31876  0.63800  0.66439  1.0000
  H   H475      1.0  0.30827  0.67773  0.64456  1.0000
  H   H476      1.0  0.38127  0.64448  0.69535  1.0000
  H   H477      1.0  0.38293  0.67455  0.69053  1.0000
  H   H478      1.0  0.36071  0.66214  0.71227  1.0000
  N   N42       1.0  0.21241  0.59626  0.66351  1.0000
  C   C476      1.0  0.19580  0.61468  0.65959  1.0000
  C   C477      1.0  0.20680  0.57431  0.66813  1.0000
  C   C478      1.0  0.17290  0.61142  0.66024  1.0000
  C   C479      1.0  0.18406  0.57042  0.66880  1.0000
  C   C480      1.0  0.16701  0.58912  0.66496  1.0000
  C   C481      1.0  0.23586  0.60020  0.66424  1.0000
  H   H479      1.0  0.19999  0.63205  0.65680  1.0000
  H   H480      1.0  0.21985  0.55969  0.67153  1.0000
  H   H481      1.0  0.15964  0.62614  0.65784  1.0000
  H   H482      1.0  0.17956  0.55306  0.67264  1.0000
  H   H483      1.0  0.14915  0.58636  0.66612  1.0000
  H   H484      1.0  0.24136  0.61556  0.65195  1.0000
  H   H485      1.0  0.23592  0.60327  0.68053  1.0000
  H   H486      1.0  0.24910  0.58525  0.66098  1.0000
  N   N43       1.0  0.20257  0.76634  0.56477  1.0000
  C   C482      1.0  0.21818  0.78005  0.56582  1.0000
  C   C483      1.0  0.21848  0.73582  0.59065  1.0000
  C   C484      1.0  0.23440  0.77191  0.57928  1.0000
  H   H487      1.0  0.46894  0.79874  0.69385  1.0000
  H   H488      1.0  0.45463  0.85480  0.72080  1.0000
  C   C485      1.0  0.18566  0.77547  0.55068  1.0000
  H   H489      1.0  0.21819  0.79738  0.55613  1.0000
  S   S174      1.0  0.47686  0.80548  0.73738  1.0000
  H   H490      1.0  0.27353  0.87201  0.72898  1.0000
  H   H491      1.0  0.23455  0.60410  0.72827  1.0000
  C   C486      1.0  0.04643  0.91709  0.67938  1.0000
  H   H492      1.0  0.32694  0.85879  0.71078  1.0000
  C   C487      1.0  0.07969  0.93140  0.59961  1.0000
  C   C488      1.0  0.11278  0.88162  0.65461  1.0000
  C   C489      1.0  0.44225  0.84268  0.67620  1.0000
  S   S175      1.0  0.49097  0.51727  0.72857  1.0000
  C   C490      1.0  0.23490  0.91839  0.73552  1.0000
  N   N44       1.0  0.29446  0.85978  0.70153  1.0000
  C   C491      1.0  0.31687  0.62425  0.73923  1.0000
  H   H493      1.0  0.10450  0.86643  0.66279  1.0000
  S   S176      1.0  0.18077  0.89444  0.66603  1.0000
  C   C492      1.0  0.12973  0.91472  0.65603  1.0000
  H   H494      1.0  0.46217  0.62082  0.51063  1.0000
  Fe  Fe91      1.0  0.27840  0.52984  0.70168  1.0000
  C   C493      1.0  0.28996  0.65094  0.71008  1.0000
  Fe  Fe92      1.0  0.20596  0.87083  0.68439  1.0000
  H   H495      1.0  0.05126  0.89267  0.65866  1.0000
  H   H496      1.0  0.13480  0.92510  0.66528  1.0000
  C   C494      1.0  0.28212  0.84989  0.69148  1.0000
  C   C495      1.0  0.24983  0.51050  0.67249  1.0000
  S   S177      1.0  0.08766  0.88249  0.52535  1.0000
  H   H497      1.0  0.07689  0.91721  0.61405  1.0000
  C   C496      1.0  0.30684  0.61361  0.72722  1.0000
  H   H498      1.0  0.40828  0.83680  0.67371  1.0000
  C   C497      1.0  0.11539  0.51524  0.64315  1.0000
  H   H499      1.0  0.09248  0.93350  0.70256  1.0000
  C   C498      1.0  0.11958  0.89479  0.66672  1.0000
  C   C499      1.0  0.39401  0.58548  0.73350  1.0000
  C   C500      1.0  0.22338  0.50554  0.65098  1.0000
  S   S178      1.0  0.21905  0.89999  0.69237  1.0000
  Fe  Fe93      1.0  0.19004  0.92305  0.67788  1.0000
  H   H500      1.0  0.39370  0.54049  0.71045  1.0000
  C   C501      1.0  0.45062  0.75650  0.66627  1.0000
  S   S179      1.0  0.37793  0.84103  0.71487  1.0000
  C   C502      1.0  0.05738  0.84131  0.56618  1.0000
  H   H501      1.0  0.10402  0.91374  0.54434  1.0000
  C   C503      1.0  0.48951  0.61320  0.57326  1.0000
  C   C504      1.0  0.09188  0.97343  0.62873  1.0000
  C   C505      1.0  0.05655  0.94802  0.51322  1.0000
  H   H502      1.0  0.07129  0.82696  0.59486  1.0000
  H   H503      1.0  0.06272  0.93861  0.59483  1.0000
  C   C506      1.0  0.40786  0.70627  0.72761  1.0000
  H   H504      1.0  0.27931  0.66121  0.69895  1.0000
  C   C507      1.0  0.32837  0.83277  0.69270  1.0000
  S   S180      1.0  0.14832  0.52087  0.72436  1.0000
  H   H505      1.0  0.19485  0.78220  0.53386  1.0000
  S   S181      1.0  0.19227  0.95867  0.65740  1.0000
  H   H506      1.0  0.07010  0.94653  0.63669  1.0000
  H   H507      1.0  0.02479  0.50161  0.67646  1.0000
  S   S182      1.0  0.46970  0.64327  0.60030  1.0000
  H   H508      1.0  0.45723  0.53746  0.69883  1.0000
  H   H509      1.0  0.23021  0.77660  0.71972  1.0000
  S   S183      1.0  0.27939  0.61343  0.69890  1.0000
  C   C508      1.0  0.08281  0.95560  0.62419  1.0000
  C   C509      1.0  0.03593  0.93878  0.68336  1.0000
  N   N45       1.0  0.44272  0.77836  0.69445  1.0000
  S   S184      1.0  0.46220  0.67417  0.65028  1.0000
  H   H510      1.0  0.28297  0.82354  0.67349  1.0000
  H   H511      1.0  0.45384  0.67985  0.69600  1.0000
  H   H512      1.0  0.34645  0.82618  0.69338  1.0000
  H   H513      1.0  0.22055  0.50291  0.63584  1.0000
  H   H514      1.0  0.01501  0.88687  0.56157  1.0000
  C   C510      1.0  0.16612  0.97738  0.65508  1.0000
  C   C511      1.0  0.45547  0.84725  0.68964  1.0000
  H   H515      1.0  0.19387  0.51312  0.70113  1.0000
  H   H516      1.0  0.28533  0.72453  0.70042  1.0000
  H   H517      1.0  0.19616  0.58803  0.71618  1.0000
  S   S185      1.0  0.30453  0.76762  0.68721  1.0000
  C   C512      1.0  0.40061  0.55251  0.71664  1.0000
  C   C513      1.0  0.41833  0.84099  0.68389  1.0000
  C   C514      1.0  0.38261  0.50062  0.69345  1.0000
  C   C515      1.0  0.04727  0.85464  0.62166  1.0000
  C   C516      1.0  0.06690  0.95898  0.52473  1.0000
  N   N46       1.0  0.11208  0.49132  0.64475  1.0000
  H   H518      1.0  0.36654  0.57075  0.72676  1.0000
  Fe  Fe94      1.0  0.01020  0.93895  0.59958  1.0000
  C   C517      1.0  0.41798  0.58351  0.73249  1.0000
  H   H519      1.0  0.08623  0.97815  0.64452  1.0000
  C   C518      1.0  0.08451  0.94671  0.53539  1.0000
  H   H520      1.0  0.01812  0.88410  0.59959  1.0000
  C   C519      1.0  0.16942  0.82128  0.50519  1.0000
  S   S186      1.0  0.12008  0.88404  0.69435  1.0000
  H   H521      1.0  0.45067  0.83958  0.66018  1.0000
  C   C520      1.0  0.23095  0.51274  0.68985  1.0000
  C   C521      1.0  0.23241  0.81680  0.73039  1.0000
  C   C522      1.0  0.08029  0.91210  0.52434  1.0000
  C   C523      1.0  0.28286  0.87884  0.71229  1.0000
  S   S187      1.0  0.27818  0.51299  0.67442  1.0000
  C   C524      1.0  0.43756  0.68194  0.70740  1.0000
  H   H522      1.0  0.48306  0.76038  0.64313  1.0000
  S   S188      1.0  0.25064  0.55769  0.71161  1.0000
  Fe  Fe95      1.0  0.11755  0.54740  0.71913  1.0000
  S   S189      1.0  0.06190  0.51442  0.69051  1.0000
  C   C525      1.0  0.06330  0.92459  0.51294  1.0000
  C   C526      1.0  0.40746  0.84462  0.70475  1.0000
  C   C527      1.0  0.01848  0.94513  0.65163  1.0000
  Fe  Fe96      1.0  0.15525  0.88980  0.69778  1.0000
  H   H523      1.0  0.43335  0.79876  0.71902  1.0000
  C   C528      1.0  0.20828  0.51140  0.68771  1.0000
  C   C529      1.0  0.09115  0.92327  0.53525  1.0000
  C   C530      1.0  0.31609  0.82291  0.68202  1.0000
  H   H524      1.0  0.16113  0.79923  0.70457  1.0000
  H   H525      1.0  0.13127  0.51643  0.64890  1.0000
  H   H526      1.0  0.03001  0.85832  0.63236  1.0000
  H   H527      1.0  0.06905  0.82975  0.55663  1.0000
  H   H528      1.0  0.44581  0.74391  0.65907  1.0000
  C   C531      1.0  0.42053  0.85013  0.71779  1.0000
  H   H529      1.0  0.25858  0.76352  0.72436  1.0000
  S   S190      1.0  0.34487  0.71662  0.71578  1.0000
  S   S191      1.0  0.36310  0.89731  0.73715  1.0000
  H   H530      1.0  0.29562  0.88981  0.71337  1.0000
  Fe  Fe97      1.0  0.19135  0.89467  0.72265  1.0000
  C   C532      1.0  0.40265  0.48955  0.70118  1.0000
  C   C533      1.0  0.10614  0.96098  0.58856  1.0000
  C   C534      1.0  0.47153  0.76578  0.65731  1.0000
  H   H531      1.0  0.34768  0.51757  0.70140  1.0000
  C   C535      1.0  0.36309  0.50947  0.70750  1.0000
  H   H532      1.0  0.48353  0.64085  0.52783  1.0000
  C   C536      1.0  0.14429  0.97192  0.66750  1.0000
  C   C537      1.0  0.33973  0.95884  0.73936  1.0000
  H   H533      1.0  0.38204  0.50199  0.67659  1.0000
  H   H534      1.0  0.48221  0.55234  0.64527  1.0000
  C   C538      1.0  0.07689  0.89907  0.73421  1.0000
  H   H535      1.0  0.04080  0.85997  0.53982  1.0000
  S   S192      1.0  0.39573  0.73371  0.73259  1.0000
  H   H536      1.0  0.22118  0.82028  0.71872  1.0000
  C   C539      1.0  0.43282  0.56580  0.72367  1.0000
  S   S193      1.0  0.09068  0.52350  0.73557  1.0000
  H   H537      1.0  0.41231  0.85312  0.73383  1.0000
  H   H538      1.0  0.16192  0.56696  0.72400  1.0000
  H   H539      1.0  0.45138  0.56412  0.72324  1.0000
  H   H540      1.0  0.42821  0.76902  0.72791  1.0000
  H   H541      1.0  0.48759  0.69332  0.69637  1.0000
  H   H542      1.0  0.11768  0.63124  0.71241  1.0000
  S   S194      1.0  0.48442  0.49678  0.67913  1.0000
  N   N47       1.0  0.42409  0.55078  0.71564  1.0000
  C   C540      1.0  0.46344  0.78716  0.68602  1.0000
  C   C541      1.0  0.40331  0.48791  0.72297  1.0000
  C   C542      1.0  0.38372  0.49671  0.73707  1.0000
  H   H543      1.0  0.30979  0.59512  0.72908  1.0000
  H   H544      1.0  0.05458  0.91598  0.50475  1.0000
  C   C543      1.0  0.47790  0.78139  0.66711  1.0000
  C   C544      1.0  0.05602  0.48739  0.68883  1.0000
  S   S195      1.0  0.32994  0.76359  0.73609  1.0000
  Fe  Fe98      1.0  0.12154  0.49639  0.73782  1.0000
  H   H545      1.0  0.25618  0.78733  0.70210  1.0000
  H   H546      1.0  0.32551  0.49440  0.68717  1.0000
  H   H547      1.0  0.06358  0.90592  0.72468  1.0000
  C   C545      1.0  0.36394  0.95823  0.73367  1.0000
  H   H548      1.0  0.00372  0.94648  0.51462  1.0000
  H   H549      1.0  0.12243  0.90887  0.49310  1.0000
  H   H550      1.0  0.05757  0.90625  0.68974  1.0000
  H   H551      1.0  0.39263  0.65237  0.73632  1.0000
  C   C546      1.0  0.48049  0.62232  0.50388  1.0000
  H   H552      1.0  0.44245  0.51715  0.72061  1.0000
  C   C547      1.0  0.39474  0.68781  0.73592  1.0000
  H   H553      1.0  0.08030  0.94685  0.72574  1.0000
  H   H554      1.0  0.48280  0.53323  0.61489  1.0000
  C   C548      1.0  0.09249  0.48693  0.63958  1.0000
  H   H555      1.0  0.47381  0.49370  0.60547  1.0000
  H   H556      1.0  0.11160  0.94122  0.71651  1.0000
  Fe  Fe99      1.0  0.30615  0.53175  0.73436  1.0000
  S   S196      1.0  0.48600  0.84512  0.68175  1.0000
  C   C549      1.0  0.03645  0.48613  0.68082  1.0000
  C   C550      1.0  0.99460  0.93863  0.50619  1.0000
  H   H557      1.0  0.37289  0.95900  0.71688  1.0000
  H   H558      1.0  0.05407  0.49097  0.73937  1.0000
  C   C551      1.0  0.24183  0.89032  0.76758  1.0000
  C   C552      1.0  0.11662  0.55384  0.81974  1.0000
  H   H559      1.0  0.41344  0.72691  0.77166  1.0000
  C   C553      1.0  0.48151  0.84365  0.80271  1.0000
  S   S197      1.0  0.21812  0.53767  0.76835  1.0000
  H   H560      1.0  0.14600  0.50905  0.77224  1.0000
  C   C554      1.0  0.38267  0.84818  0.83158  1.0000
  H   H561      1.0  0.42197  0.82019  0.82325  1.0000
  H   H562      1.0  0.27159  0.80438  0.77259  1.0000
  C   C555      1.0  0.44748  0.76484  0.77538  1.0000
  C   C556      1.0  0.40055  0.85299  0.86068  1.0000
  H   H563      1.0  0.37132  0.77005  0.76267  1.0000
  S   S198      1.0  0.33869  0.51701  0.74759  1.0000
  Fe  Fe100     1.0  0.37372  0.89021  0.76933  1.0000
  S   S199      1.0  0.33751  0.71332  0.76868  1.0000
  S   S200      1.0  0.40321  0.90653  0.77333  1.0000
  Fe  Fe101     1.0  0.33997  0.85594  0.78972  1.0000
  Fe  Fe102     1.0  0.25310  0.53949  0.74559  1.0000
  S   S201      1.0  0.32827  0.83164  0.82070  1.0000
  Fe  Fe103     1.0  0.44376  0.91055  0.87519  1.0000
  C   C557      1.0  0.26139  0.79228  0.74764  1.0000
  H   H564      1.0  0.31442  0.94189  0.80335  1.0000
  H   H565      1.0  0.18048  0.53290  0.80460  1.0000
  S   S202      1.0  0.37752  0.85187  0.77321  1.0000
  S   S203      1.0  0.33697  0.89385  0.78838  1.0000
  C   C558      1.0  0.22748  0.90059  0.75266  1.0000
  C   C559      1.0  0.40652  0.90993  0.84232  1.0000
  H   H566      1.0  0.41855  0.85767  0.88438  1.0000
  C   C560      1.0  0.22669  0.60515  0.74545  1.0000
  C   C561      1.0  0.26394  0.89720  0.76485  1.0000
  C   C562      1.0  0.46956  0.85936  0.81567  1.0000
  C   C563      1.0  0.41914  0.84869  0.87148  1.0000
  C   C564      1.0  0.36487  0.95431  0.77146  1.0000
  S   S204      1.0  0.09864  0.49918  0.85508  1.0000
  H   H567      1.0  0.47224  0.88109  0.83681  1.0000
  C   C565      1.0  0.21391  0.49795  0.83810  1.0000
  C   C566      1.0  0.11448  0.57180  0.78267  1.0000
  C   C567      1.0  0.10071  0.49715  0.79294  1.0000
  H   H568      1.0  0.09409  0.85035  0.76847  1.0000
  C   C568      1.0  0.25750  0.65443  0.76339  1.0000
  Fe  Fe104     1.0  0.47975  0.93920  0.87806  1.0000
  C   C569      1.0  0.42072  0.82770  0.83724  1.0000
  C   C570      1.0  0.09391  0.86772  0.75887  1.0000
  H   H569      1.0  0.10778  0.58580  0.77083  1.0000
  C   C571      1.0  0.31797  0.80942  0.81383  1.0000
  C   C572      1.0  0.32688  0.80379  0.79341  1.0000
  C   C573      1.0  0.09425  0.50397  0.81305  1.0000
  H   H570      1.0  0.36712  0.85848  0.83970  1.0000
  C   C574      1.0  0.29080  0.78137  0.82197  1.0000
  C   C575      1.0  0.30019  0.79794  0.82827  1.0000
  H   H571      1.0  0.34077  0.81246  0.78229  1.0000
  S   S205      1.0  0.44908  0.92558  0.90217  1.0000
  H   H572      1.0  0.27665  0.77289  0.83295  1.0000
  H   H573      1.0  0.29321  0.80234  0.84404  1.0000
  C   C576      1.0  0.24548  0.82859  0.75829  1.0000
  H   H574      1.0  0.34100  0.94358  0.81095  1.0000
  C   C577      1.0  0.23583  0.49936  0.82409  1.0000
  H   H575      1.0  0.12474  0.87414  0.76754  1.0000
  H   H576      1.0  0.11129  0.55351  0.83705  1.0000
  H   H577      1.0  0.09575  0.58616  0.81037  1.0000
  H   H578      1.0  0.21935  0.84883  0.74122  1.0000
  H   H579      1.0  0.08786  0.49555  0.90317  1.0000
  C   C578      1.0  0.32909  0.95234  0.79974  1.0000
  H   H580      1.0  0.23593  0.87692  0.78118  1.0000
  C   C579      1.0  0.12976  0.55326  0.77579  1.0000
  N   N48       1.0  0.34118  0.95430  0.77696  1.0000
  C   C580      1.0  0.42644  0.91121  0.82575  1.0000
  N   N49       1.0  0.23725  0.62205  0.75187  1.0000
  H   H581      1.0  0.38889  0.85829  0.81508  1.0000
  N   N50       1.0  0.13816  0.53543  0.79052  1.0000
  C   C581      1.0  0.43025  0.78348  0.77835  1.0000
  H   H582      1.0  0.30975  0.95694  0.76548  1.0000
  H   H583      1.0  0.20760  0.61042  0.74680  1.0000
  H   H584      1.0  0.38413  0.49499  0.75402  1.0000
  N   N51       1.0  0.40111  0.76106  0.77700  1.0000
  C   C582      1.0  0.38519  0.90802  0.83754  1.0000
  H   H585      1.0  0.25605  0.59688  0.77290  1.0000
  H   H586      1.0  0.22916  0.58769  0.75574  1.0000
  Fe  Fe105     1.0  0.47406  0.89365  0.90923  1.0000
  C   C583      1.0  0.42515  0.91037  0.80459  1.0000
  C   C584      1.0  0.40407  0.90774  0.79997  1.0000
  C   C585      1.0  0.38402  0.90663  0.81646  1.0000
  H   H587      1.0  0.44061  0.91126  0.79183  1.0000
  H   H588      1.0  0.36765  0.90474  0.81299  1.0000
  C   C586      1.0  0.26068  0.80813  0.76060  1.0000
  S   S206      1.0  0.32438  0.66053  0.75365  1.0000
  H   H589      1.0  0.48084  0.89812  0.77299  1.0000
  H   H590      1.0  0.46563  0.76621  0.77475  1.0000
  N   N52       1.0  0.40156  0.84263  0.84371  1.0000
  C   C587      1.0  0.25201  0.61501  0.76617  1.0000
  Fe  Fe106     1.0  0.32644  0.89721  0.75655  1.0000
  H   H591      1.0  0.27313  0.77635  0.74974  1.0000
  C   C588      1.0  0.13201  0.53567  0.81226  1.0000
  H   H592      1.0  0.45484  0.73016  0.76987  1.0000
  H   H593      1.0  0.45349  0.83039  0.87293  1.0000
  S   S207      1.0  0.47669  0.87760  0.94380  1.0000
  S   S208      1.0  0.32602  0.85956  0.75955  1.0000
  H   H594      1.0  0.38558  0.86509  0.86573  1.0000
  S   S209      1.0  0.40799  0.90967  0.86922  1.0000
  C   C589      1.0  0.44139  0.74448  0.77280  1.0000
  C   C590      1.0  0.21741  0.52348  0.79543  1.0000
  C   C591      1.0  0.40701  0.78131  0.77899  1.0000
  H   H595      1.0  0.36966  0.90723  0.85028  1.0000
  C   C592      1.0  0.41797  0.74282  0.77376  1.0000
  C   C593      1.0  0.32856  0.95690  0.76121  1.0000
  H   H596      1.0  0.44287  0.91272  0.82922  1.0000
  H   H597      1.0  0.08586  0.52125  0.81402  1.0000
  H   H598      1.0  0.26593  0.66698  0.76747  1.0000
  C   C594      1.0  0.48162  0.86899  0.82686  1.0000
  H   H599      1.0  0.06313  0.86668  0.74706  1.0000
  H   H600      1.0  0.25137  0.49029  0.82970  1.0000
  H   H601      1.0  0.45095  0.86422  0.81697  1.0000
  H   H602      1.0  0.27510  0.88897  0.77622  1.0000
  C   C595      1.0  0.29957  0.77587  0.80146  1.0000
  H   H603      1.0  0.24448  0.84085  0.76848  1.0000
  H   H604      1.0  0.39368  0.79592  0.78107  1.0000
  C   C596      1.0  0.26235  0.63108  0.77213  1.0000
  C   C597      1.0  0.31778  0.78695  0.78730  1.0000
  H   H605      1.0  0.15765  0.50192  0.79638  1.0000
  C   C598      1.0  0.19578  0.52296  0.80981  1.0000
  H   H606      1.0  0.43496  0.79957  0.77993  1.0000
  H   H607      1.0  0.32452  0.78299  0.77147  1.0000
  S   S210      1.0  0.47236  0.92731  0.85024  1.0000
  C   C599      1.0  0.15398  0.51619  0.78273  1.0000
  H   H608      1.0  0.25441  0.51247  0.79164  1.0000
  C   C600      1.0  0.43869  0.83340  0.86507  1.0000
  S   S211      1.0  0.28674  0.75615  0.79329  1.0000
  C   C601      1.0  0.23757  0.51192  0.80262  1.0000
  H   H609      1.0  0.48501  0.89323  0.97966  1.0000
  H   H610      1.0  0.37678  0.83221  0.83007  1.0000
  H   H611      1.0  0.17075  0.52221  0.77320  1.0000
  C   C602      1.0  0.43940  0.82259  0.84801  1.0000
  H   H612      1.0  0.09728  0.50923  0.77854  1.0000
  H   H613      1.0  0.32211  0.96973  0.80321  1.0000
  H   H614      1.0  0.05901  0.48198  0.88836  1.0000
  C   C603      1.0  0.11112  0.88103  0.75832  1.0000
  C   C604      1.0  0.14804  0.48782  0.98657  1.0000
  S   S212      1.0  0.20069  0.89057  0.75514  1.0000
  H   H615      1.0  0.13474  0.55314  0.75859  1.0000
  H   H616      1.0  0.17706  0.50934  0.84188  1.0000
  C   C605      1.0  0.10781  0.57201  0.80481  1.0000
  H   H617      1.0  0.32703  0.61386  0.75073  1.0000
  H   H618      1.0  0.37500  0.95219  0.78388  1.0000
  Fe  Fe107     1.0  0.30874  0.74229  0.76475  1.0000
  H   H619      1.0  0.47510  0.92920  0.79402  1.0000
  C   C606      1.0  0.07654  0.87685  0.74690  1.0000
  H   H620      1.0  0.27451  0.62546  0.78303  1.0000
  S   S213      1.0  0.28043  0.55962  0.74789  1.0000
  H   H621      1.0  0.37370  0.74138  0.77867  1.0000
  C   C607      1.0  0.19391  0.50988  0.83094  1.0000
  S   S214      1.0  0.46584  0.87704  0.88472  1.0000
  H   H622      1.0  0.13847  0.52148  0.82404  1.0000
  H   H623      1.0  0.36512  0.76530  0.79210  1.0000
  H   H624      1.0  0.45485  0.81129  0.84235  1.0000
  C   C608      1.0  0.10031  0.48900  0.83150  1.0000
  C   C609      1.0  0.11087  0.90322  0.74549  1.0000
  C   C610      1.0  0.37663  0.75937  0.77766  1.0000
  S   S215      1.0  0.46599  0.83095  0.78955  1.0000
  C   C611      1.0  0.24262  0.66143  0.74865  1.0000
  H   H625      1.0  0.17365  0.49631  0.95719  1.0000
  S   S216      1.0  0.29198  0.72607  0.74531  1.0000
  C   C612      1.0  0.23272  0.64489  0.74294  1.0000
  Fe  Fe108     1.0  0.32307  0.69892  0.74629  1.0000
  H   H626      1.0  0.37806  0.68990  0.74678  1.0000
  H   H627      1.0  0.23922  0.67948  0.74126  1.0000
  C   C613      1.0  0.27130  0.91505  0.74768  1.0000
  H   H628      1.0  0.12429  0.91341  0.74519  1.0000
  C   C614      1.0  0.15883  0.48707  0.96498  1.0000
  H   H629      1.0  0.20698  0.48638  0.77042  1.0000
  C   C615      1.0  0.07505  0.48509  0.91398  1.0000
  S   S217      1.0  0.14295  0.48646  0.89419  1.0000
  C   C616      1.0  0.37660  0.95612  0.74978  1.0000
  C   C617      1.0  0.23133  0.83304  0.74303  1.0000
  H   H630      1.0  0.08816  0.48401  0.94247  1.0000
  Fe  Fe109     1.0  0.36360  0.85922  0.74269  1.0000
  S   S218      1.0  0.29897  0.92384  0.74348  1.0000
  H   H631      1.0  0.39551  0.95502  0.74567  1.0000
  S   S219      1.0  0.49013  0.97341  0.87762  1.0000
  Fe  Fe110     1.0  0.49012  0.81954  0.76062  1.0000
  H   H632      1.0  0.38235  0.59911  0.74040  1.0000
  Fe  Fe111     1.0  0.66101  0.06577  0.18937  1.0000
  S   S220      1.0  0.66735  0.02738  0.19821  1.0000
  S   S221      1.0  0.67845  0.08718  0.15860  1.0000
  C   C618      1.0  0.56700  0.03957  0.17932  1.0000
  H   H633      1.0  0.58325  0.06066  0.12616  1.0000
  H   H634      1.0  0.78474  0.42135  0.16154  1.0000
  C   C619      1.0  0.53389  0.01867  0.18694  1.0000
  H   H635      1.0  0.92230  0.21765  0.21132  1.0000
  Fe  Fe112     1.0  0.79467  0.01623  0.20937  1.0000
  C   C620      1.0  0.97397  0.39977  0.18221  1.0000
  Fe  Fe113     1.0  0.80814  0.05261  0.16916  1.0000
  S   S222      1.0  0.82424  0.02666  0.14823  1.0000
  S   S223      1.0  0.80683  0.09105  0.15788  1.0000
  H   H636      1.0  0.74043  0.26875  0.17205  1.0000
  C   C621      1.0  0.73549  0.02545  0.23492  1.0000
  S   S224      1.0  0.62367  0.06707  0.18801  1.0000
  S   S225      1.0  0.77558  0.03594  0.18347  1.0000
  S   S226      1.0  0.82559  0.03528  0.19690  1.0000
  H   H637      1.0  0.55329  0.01793  0.04247  1.0000
  H   H638      1.0  0.86299  0.00648  0.21360  1.0000
  C   C622      1.0  0.93821  0.37121  0.09257  1.0000
  Fe  Fe114     1.0  0.67702  0.42419  0.19486  1.0000
  S   S227      1.0  0.71212  0.42993  0.19837  1.0000
  S   S228      1.0  0.66255  0.44575  0.16649  1.0000
  Fe  Fe115     1.0  0.72062  0.39156  0.20348  1.0000
  S   S229      1.0  0.75353  0.37161  0.18817  1.0000
  H   H639      1.0  0.67069  0.16443  0.19461  1.0000
  S   S230      1.0  0.68695  0.38618  0.19679  1.0000
  H   H640      1.0  0.92748  0.99336  0.16889  1.0000
  Fe  Fe116     1.0  0.87719  0.16398  0.19002  1.0000
  H   H641      1.0  0.96869  0.37372  0.23558  1.0000
  S   S231      1.0  0.88561  0.12687  0.18725  1.0000
  Fe  Fe117     1.0  0.89249  0.21113  0.17081  1.0000
  S   S232      1.0  0.86644  0.22761  0.19570  1.0000
  S   S233      1.0  0.92048  0.22996  0.14737  1.0000
  C   C623      1.0  0.90340  0.05151  0.14417  1.0000
  S   S234      1.0  0.76972  0.98871  0.15547  1.0000
  Fe  Fe118     1.0  0.84168  0.20601  0.19085  1.0000
  S   S235      1.0  0.80516  0.22247  0.18832  1.0000
  S   S236      1.0  0.90514  0.18145  0.19498  1.0000
  S   S237      1.0  0.86685  0.19242  0.16338  1.0000
  Fe  Fe119     1.0  0.92125  0.33681  0.18302  1.0000
  S   S238      1.0  0.91465  0.36572  0.20090  1.0000
  S   S239      1.0  0.94140  0.30256  0.19415  1.0000
  Fe  Fe120     1.0  0.90209  0.36658  0.14475  1.0000
  S   S240      1.0  0.89430  0.39824  0.15890  1.0000
  S   S241      1.0  0.89291  0.36559  0.11343  1.0000
  Fe  Fe121     1.0  0.92900  0.38686  0.16851  1.0000
  H   H642      1.0  0.77132  0.39744  0.14179  1.0000
  Fe  Fe122     1.0  0.88039  0.37439  0.18985  1.0000
  S   S242      1.0  0.84664  0.38648  0.21111  1.0000
  S   S243      1.0  0.93809  0.35725  0.15137  1.0000
  S   S244      1.0  0.88573  0.34336  0.17487  1.0000
  H   H643      1.0  0.64921  0.03316  0.12877  1.0000
  H   H644      1.0  0.63548  0.98639  0.13314  1.0000
  H   H645      1.0  0.95034  0.30194  0.13718  1.0000
  C   C624      1.0  0.53557  0.02115  0.16466  1.0000
  C   C625      1.0  0.76520  0.12422  0.19634  1.0000
  H   H646      1.0  0.60785  0.98128  0.22053  1.0000
  C   C626      1.0  0.78085  0.08803  0.21744  1.0000
  H   H647      1.0  0.74411  0.03708  0.22130  1.0000
  S   S245      1.0  0.68230  0.04352  0.04779  1.0000
  H   H648      1.0  0.55486  0.03370  0.13280  1.0000
  C   C627      1.0  0.91787  0.36215  0.09308  1.0000
  C   C628      1.0  0.98283  0.11396  0.20633  1.0000
  C   C629      1.0  0.72137  0.32521  0.21258  1.0000
  H   H649      1.0  0.78179  0.13119  0.19466  1.0000
  H   H650      1.0  0.70685  0.03158  0.11723  1.0000
  C   C630      1.0  0.97477  0.09518  0.22194  1.0000
  C   C631      1.0  0.78341  0.20451  0.20072  1.0000
  C   C632      1.0  0.54966  0.02797  0.19437  1.0000
  C   C633      1.0  0.72872  0.09091  0.10284  1.0000
  C   C634      1.0  0.65619  0.13852  0.18558  1.0000
  C   C635      1.0  0.96332  0.39157  0.20374  1.0000
  H   H651      1.0  0.93476  0.08474  0.15937  1.0000
  C   C636      1.0  0.66817  0.29251  0.22246  1.0000
  H   H652      1.0  0.94452  0.39355  0.20858  1.0000
  C   C637      1.0  0.92650  0.25005  0.16031  1.0000
  C   C638      1.0  0.94911  0.24977  0.16331  1.0000
  C   C639      1.0  0.95362  0.26559  0.17421  1.0000
  C   C640      1.0  0.93568  0.28220  0.18135  1.0000
  C   C641      1.0  0.91320  0.28266  0.17801  1.0000
  C   C642      1.0  0.90854  0.26640  0.16778  1.0000
  H   H653      1.0  0.96301  0.23707  0.15758  1.0000
  H   H654      1.0  0.97104  0.26519  0.17679  1.0000
  H   H655      1.0  0.89919  0.29509  0.18390  1.0000
  H   H656      1.0  0.89106  0.26672  0.16541  1.0000
  H   H657      1.0  0.72968  0.33588  0.21977  1.0000
  N   N53       1.0  0.89117  0.09172  0.13202  1.0000
  H   H658      1.0  0.75554  0.23190  0.19548  1.0000
  H   H659      1.0  0.60330  0.03907  0.13935  1.0000
  H   H660      1.0  0.79315  0.05566  0.23665  1.0000
  C   C643      1.0  0.77893  0.37445  0.19612  1.0000
  C   C644      1.0  0.77837  0.38911  0.21015  1.0000
  C   C645      1.0  0.79921  0.39219  0.21516  1.0000
  C   C646      1.0  0.82065  0.38088  0.20595  1.0000
  C   C647      1.0  0.82107  0.36606  0.19211  1.0000
  C   C648      1.0  0.80024  0.36268  0.18737  1.0000
  H   H661      1.0  0.76196  0.39834  0.21686  1.0000
  H   H662      1.0  0.94946  0.99890  0.19509  1.0000
  H   H663      1.0  0.83743  0.35729  0.18493  1.0000
  H   H664      1.0  0.80076  0.35140  0.17643  1.0000
  H   H665      1.0  0.59351  0.06584  0.14830  1.0000
  C   C649      1.0  0.50261  0.47571  0.23443  1.0000
  H   H666      1.0  0.52069  0.00916  0.19842  1.0000
  S   S246      1.0  0.63071  0.05983  0.09220  1.0000
  C   C650      1.0  0.59347  0.13775  0.18510  1.0000
  H   H667      1.0  0.70280  0.05738  0.08231  1.0000
  C   C651      1.0  0.82855  0.10131  0.16607  1.0000
  C   C652      1.0  0.82710  0.12471  0.16626  1.0000
  C   C653      1.0  0.84418  0.13268  0.17345  1.0000
  C   C654      1.0  0.86277  0.11724  0.18029  1.0000
  C   C655      1.0  0.86403  0.09388  0.18026  1.0000
  C   C656      1.0  0.84727  0.08607  0.17271  1.0000
  H   H668      1.0  0.81285  0.13672  0.16081  1.0000
  H   H669      1.0  0.84303  0.15077  0.17348  1.0000
  H   H670      1.0  0.87836  0.08186  0.18553  1.0000
  H   H671      1.0  0.84947  0.06837  0.17125  1.0000
  H   H672      1.0  0.87176  0.12524  0.12872  1.0000
  H   H673      1.0  0.58591  0.03685  0.01836  1.0000
  H   H674      1.0  0.78666  0.02329  0.11789  1.0000
  N   N54       1.0  0.95192  0.09150  0.22583  1.0000
  Fe  Fe123     1.0  0.67346  0.38330  0.23258  1.0000
  C   C657      1.0  0.76737  0.02231  0.09374  1.0000
  Fe  Fe124     1.0  0.69609  0.42370  0.23392  1.0000
  C   C658      1.0  0.98619  0.31767  0.21237  1.0000
  C   C659      1.0  0.59474  0.99008  0.10320  1.0000
  H   H675      1.0  0.87605  0.06458  0.12636  1.0000
  C   C660      1.0  0.66676  0.07974  0.13894  1.0000
  C   C661      1.0  0.66013  0.09644  0.12168  1.0000
  C   C662      1.0  0.64892  0.09039  0.10728  1.0000
  C   C663      1.0  0.64503  0.06754  0.10977  1.0000
  C   C664      1.0  0.65227  0.05081  0.12664  1.0000
  C   C665      1.0  0.66272  0.05698  0.14136  1.0000
  H   H676      1.0  0.66302  0.11410  0.11979  1.0000
  H   H677      1.0  0.64335  0.10337  0.09419  1.0000
  S   S247      1.0  0.58652  0.09520  0.23391  1.0000
  H   H678      1.0  0.66791  0.04392  0.15445  1.0000
  Fe  Fe125     1.0  0.65415  0.03254  0.07617  1.0000
  H   H679      1.0  0.88426  0.11525  0.10357  1.0000
  C   C666      1.0  0.94337  0.31175  0.12278  1.0000
  C   C667      1.0  0.54264  0.00761  0.07718  1.0000
  H   H680      1.0  0.84435  0.41618  0.16838  1.0000
  H   H681      1.0  0.61397  0.01492  0.10815  1.0000
  H   H682      1.0  0.54544  0.02364  0.08039  1.0000
  S   S248      1.0  0.74101  0.02267  0.06421  1.0000
  H   H683      1.0  0.83330  0.44171  0.15079  1.0000
  H   H684      1.0  0.67274  0.12771  0.18220  1.0000
  C   C668      1.0  0.63361  0.17277  0.19650  1.0000
  C   C669      1.0  0.65506  0.15912  0.19237  1.0000
  H   H685      1.0  0.63235  0.18858  0.20229  1.0000
  Fe  Fe126     1.0  0.61623  0.06913  0.22300  1.0000
  N   N55       1.0  0.72314  0.05482  0.12755  1.0000
  C   C670      1.0  0.97220  0.28674  0.07376  1.0000
  C   C671      1.0  0.73083  0.07590  0.12256  1.0000
  H   H686      1.0  0.59631  0.00660  0.01957  1.0000
  H   H687      1.0  0.76560  0.11838  0.18117  1.0000
  C   C672      1.0  0.71065  0.06279  0.09354  1.0000
  H   H688      1.0  0.92715  0.25477  0.09400  1.0000
  S   S249      1.0  0.69863  0.98875  0.04688  1.0000
  H   H689      1.0  0.73837  0.08128  0.13403  1.0000
  C   C673      1.0  0.95761  0.27043  0.07516  1.0000
  C   C674      1.0  0.96877  0.23545  0.23476  1.0000
  C   C675      1.0  0.66025  0.33388  0.22003  1.0000
  C   C676      1.0  0.53500  0.98997  0.09446  1.0000
  C   C677      1.0  0.63603  0.46416  0.16989  1.0000
  Fe  Fe127     1.0  0.67171  0.23550  0.23343  1.0000
  C   C678      1.0  0.83710  0.39802  0.13734  1.0000
  C   C679      1.0  0.82999  0.38437  0.12590  1.0000
  C   C680      1.0  0.80622  0.38420  0.12741  1.0000
  H   H690      1.0  0.85564  0.39800  0.13605  1.0000
  H   H691      1.0  0.84292  0.37394  0.11602  1.0000
  H   H692      1.0  0.80047  0.37347  0.11884  1.0000
  C   C681      1.0  0.94640  0.24781  0.23607  1.0000
  H   H693      1.0  0.90139  0.03362  0.14553  1.0000
  N   N56       1.0  0.93004  0.24144  0.22763  1.0000
  H   H694      1.0  0.66589  0.31724  0.19278  1.0000
  C   C682      1.0  0.90631  0.25379  0.23045  1.0000
  C   C683      1.0  0.55328  0.03260  0.15007  1.0000
  S   S250      1.0  0.67046  0.20306  0.22260  1.0000
  C   C684      1.0  0.88178  0.00539  0.20924  1.0000
  H   H695      1.0  0.71082  0.33712  0.20152  1.0000
  H   H696      1.0  0.94424  0.05702  0.23452  1.0000
  H   H697      1.0  0.77555  0.14988  0.22813  1.0000
  C   C685      1.0  0.94444  0.12444  0.19802  1.0000
  Fe  Fe128     1.0  0.70555  0.01461  0.06382  1.0000
  C   C686      1.0  0.88916  0.06912  0.13327  1.0000
  H   H698      1.0  0.52353  0.01381  0.15870  1.0000
  H   H699      1.0  0.61659  0.02636  0.01682  1.0000
  C   C687      1.0  0.93535  0.22288  0.21775  1.0000
  C   C688      1.0  0.71859  0.08423  0.08824  1.0000
  N   N57       1.0  0.76244  0.10488  0.21491  1.0000
  H   H700      1.0  0.93826  0.38159  0.10412  1.0000
  C   C689      1.0  0.93384  0.28170  0.10773  1.0000
  C   C690      1.0  0.66494  0.31477  0.21007  1.0000
  H   H701      1.0  0.65714  0.35096  0.21046  1.0000
  C   C691      1.0  0.93842  0.26768  0.09239  1.0000
  N   N58       1.0  0.73857  0.30977  0.20051  1.0000
  C   C692      1.0  0.76196  0.30936  0.19923  1.0000
  C   C693      1.0  0.73089  0.29558  0.19070  1.0000
  H   H702      1.0  0.59484  0.11866  0.18797  1.0000
  H   H703      1.0  0.98695  0.28945  0.06025  1.0000
  C   C694      1.0  0.77857  0.06909  0.23471  1.0000
  H   H704      1.0  0.63318  0.46419  0.20374  1.0000
  H   H705      1.0  0.91882  0.10262  0.21674  1.0000
  H   H706      1.0  0.71239  0.29609  0.19150  1.0000
  H   H707      1.0  0.62933  0.10879  0.24026  1.0000
  H   H708      1.0  0.76810  0.32095  0.20663  1.0000
  C   C695      1.0  0.93063  0.00080  0.19905  1.0000
  C   C696      1.0  0.60043  0.02439  0.01192  1.0000
  H   H709      1.0  0.59044  0.14521  0.16846  1.0000
  C   C697      1.0  0.97432  0.21650  0.22474  1.0000
  C   C698      1.0  0.97699  0.38058  0.21907  1.0000
  H   H710      1.0  0.57805  0.14323  0.19720  1.0000
  C   C699      1.0  0.89370  0.00003  0.18931  1.0000
  H   H711      1.0  0.71360  0.04753  0.16192  1.0000
  S   S251      1.0  0.67800  0.00565  0.09362  1.0000
  H   H712      1.0  0.93815  0.33359  0.05141  1.0000
  H   H713      1.0  0.93078  0.04360  0.16245  1.0000
  C   C700      1.0  0.87581  0.11000  0.12089  1.0000
  C   C701      1.0  0.78988  0.39778  0.14012  1.0000
  H   H714      1.0  0.72012  0.02248  0.14984  1.0000
  C   C702      1.0  0.61348  0.16542  0.19411  1.0000
  H   H715      1.0  0.59679  0.17584  0.19800  1.0000
  N   N59       1.0  0.82096  0.41097  0.15010  1.0000
  H   H716      1.0  0.81523  0.42903  0.17610  1.0000
  C   C703      1.0  0.74686  0.98667  0.12426  1.0000
  H   H717      1.0  0.90210  0.34203  0.07825  1.0000
  C   C704      1.0  0.79760  0.41126  0.15132  1.0000
  C   C705      1.0  0.82880  0.42529  0.16181  1.0000
  S   S252      1.0  0.67555  0.26888  0.20957  1.0000
  H   H718      1.0  0.63678  0.11575  0.17794  1.0000
  H   H719      1.0  0.78303  0.26712  0.17017  1.0000
  H   H720      1.0  0.70956  0.31507  0.22599  1.0000
  S   S253      1.0  0.95726  0.40937  0.16210  1.0000
  C   C706      1.0  0.75999  0.21400  0.20239  1.0000
  H   H721      1.0  0.69014  0.47687  0.17752  1.0000
  S   S254      1.0  0.81078  0.98716  0.19239  1.0000
  C   C707      1.0  0.90771  0.09737  0.14077  1.0000
  C   C708      1.0  0.91777  0.34905  0.07790  1.0000
  C   C709      1.0  0.92220  0.08017  0.15184  1.0000
  H   H722      1.0  0.95782  0.44822  0.12112  1.0000
  C   C710      1.0  0.64938  0.98878  0.00031  1.0000
  Fe  Fe129     1.0  0.67278  0.01694  0.03346  1.0000
  H   H723      1.0  0.77524  0.03619  0.08193  1.0000
  C   C711      1.0  0.63573  0.13176  0.18326  1.0000
  S   S255      1.0  0.61717  0.03073  0.23379  1.0000
  C   C712      1.0  0.93814  0.34428  0.06273  1.0000
  N   N60       1.0  0.61469  0.14498  0.18786  1.0000
  H   H724      1.0  0.79883  0.40373  0.22583  1.0000
  C   C713      1.0  0.54394  0.98354  0.05149  1.0000
  C   C714      1.0  0.95855  0.36678  0.07706  1.0000
  C   C715      1.0  0.95859  0.35301  0.06234  1.0000
  H   H725      1.0  0.79683  0.29347  0.18752  1.0000
  H   H726      1.0  0.89661  0.25068  0.21888  1.0000
  C   C716      1.0  0.91865  0.00610  0.21903  1.0000
  C   C717      1.0  0.95755  0.21015  0.21613  1.0000
  H   H727      1.0  0.85872  0.10421  0.12189  1.0000
  N   N61       1.0  0.94816  0.29772  0.10617  1.0000
  Fe  Fe130     1.0  0.66877  0.98227  0.07525  1.0000
  C   C718      1.0  0.91991  0.05711  0.15362  1.0000
  H   H728      1.0  0.96117  0.25996  0.06292  1.0000
  H   H729      1.0  0.90911  0.11528  0.14005  1.0000
  H   H730      1.0  0.54891  0.02564  0.21166  1.0000
  C   C719      1.0  0.98891  0.34178  0.17590  1.0000
  S   S256      1.0  0.53182  0.99337  0.12123  1.0000
  Fe  Fe131     1.0  0.84012  0.00830  0.17695  1.0000
  S   S257      1.0  0.67099  0.02645  0.99826  1.0000
  H   H731      1.0  0.97430  0.37356  0.07680  1.0000
  S   S258      1.0  0.64222  0.00845  0.06040  1.0000
  C   C720      1.0  0.71313  0.04818  0.11333  1.0000
  C   C721      1.0  0.74221  0.20049  0.21323  1.0000
  S   S259      1.0  0.66028  0.42092  0.23013  1.0000
  N   N62       1.0  0.56862  0.04178  0.15749  1.0000
  H   H732      1.0  0.80697  0.17355  0.20782  1.0000
  C   C722      1.0  0.54711  0.00439  0.05572  1.0000
  S   S260      1.0  0.85010  0.17601  0.21710  1.0000
  Fe  Fe132     1.0  0.87709  0.19642  0.21942  1.0000
  C   C723      1.0  0.78898  0.18118  0.20952  1.0000
  Fe  Fe133     1.0  0.79330  0.00792  0.16554  1.0000
  H   H733      1.0  0.57968  0.04603  0.18525  1.0000
  C   C724      1.0  0.89422  0.00855  0.22401  1.0000
  H   H734      1.0  0.72419  0.20802  0.21424  1.0000
  S   S261      1.0  0.65335  0.07072  0.22374  1.0000
  H   H735      1.0  0.70161  0.03661  0.22675  1.0000
  C   C725      1.0  0.96753  0.12868  0.19435  1.0000
  H   H736      1.0  0.92427  0.31690  0.12778  1.0000
  C   C726      1.0  0.77830  0.29403  0.18831  1.0000
  H   H737      1.0  0.90673  0.27265  0.22752  1.0000
  H   H738      1.0  0.96822  0.32692  0.21586  1.0000
  C   C727      1.0  0.96744  0.29999  0.08975  1.0000
  H   H739      1.0  0.71683  0.09559  0.07286  1.0000
  C   C728      1.0  0.74775  0.17743  0.22272  1.0000
  H   H740      1.0  0.73478  0.10764  0.09897  1.0000
  C   C729      1.0  0.77057  0.27928  0.17850  1.0000
  C   C730      1.0  0.72512  0.03973  0.14857  1.0000
  C   C731      1.0  0.74671  0.28015  0.17956  1.0000
  Fe  Fe134     1.0  0.62940  0.02887  0.19861  1.0000
  C   C732      1.0  0.77381  0.01507  0.11406  1.0000
  H   H741      1.0  0.68701  0.47616  0.21654  1.0000
  C   C733      1.0  0.93689  0.10563  0.21388  1.0000
  H   H742      1.0  0.91875  0.27963  0.12093  1.0000
  C   C734      1.0  0.75038  0.01201  0.08884  1.0000
  H   H743      1.0  0.93236  0.13570  0.18876  1.0000
  C   C735      1.0  0.58802  0.05238  0.14206  1.0000
  C   C736      1.0  0.62610  0.47327  0.15166  1.0000
  H   H744      1.0  0.74345  0.03717  0.15074  1.0000
  S   S262      1.0  0.62071  0.00880  0.17690  1.0000
  H   H745      1.0  0.96152  0.19524  0.20860  1.0000
  H   H746      1.0  0.98678  0.08390  0.23127  1.0000
  H   H747      1.0  0.95153  0.32787  0.11657  1.0000
  C   C737      1.0  0.77115  0.16769  0.22070  1.0000
  H   H748      1.0  0.97893  0.31260  0.08850  1.0000
  C   C738      1.0  0.97008  0.43912  0.10901  1.0000
  C   C739      1.0  0.74019  0.99413  0.10411  1.0000
  H   H749      1.0  0.74210  0.99407  0.20344  1.0000
  H   H750      1.0  0.79743  0.08912  0.20602  1.0000
  H   H751      1.0  0.72731  0.98593  0.10030  1.0000
  C   C740      1.0  0.74137  0.10323  0.22906  1.0000
  H   H752      1.0  0.75085  0.13863  0.19830  1.0000
  Fe  Fe135     1.0  0.97270  0.00024  0.23103  1.0000
  H   H753      1.0  0.97099  0.45004  0.09248  1.0000
  H   H754      1.0  0.58926  0.99327  0.15826  1.0000
  C   C741      1.0  0.76351  0.99724  0.12933  1.0000
  C   C742      1.0  0.62553  0.47109  0.18961  1.0000
  C   C743      1.0  0.91816  0.99771  0.18424  1.0000
  H   H755      1.0  0.72670  0.11651  0.22703  1.0000
  S   S263      1.0  0.87852  0.99477  0.17108  1.0000
  H   H756      1.0  0.96270  0.42320  0.10966  1.0000
  S   S264      1.0  0.98446  0.34419  0.04503  1.0000
  H   H757      1.0  0.51621  0.46834  0.22258  1.0000
  H   H758      1.0  0.98491  0.29910  0.21904  1.0000
  H   H759      1.0  0.97512  0.35406  0.18253  1.0000
  H   H760      1.0  0.63411  0.46799  0.13641  1.0000
  C   C744      1.0  0.58787  0.98389  0.17479  1.0000
  H   H761      1.0  0.97359  0.14333  0.18224  1.0000
  Fe  Fe136     1.0  0.65496  0.03218  0.23255  1.0000
  H   H762      1.0  0.58515  0.00247  0.09230  1.0000
  S   S265      1.0  0.72545  0.16138  0.23835  1.0000
  C   C745      1.0  0.61086  0.99706  0.11213  1.0000
  S   S266      1.0  0.93363  0.00829  0.23865  1.0000
  H   H763      1.0  0.64701  0.98581  0.01780  1.0000
  C   C746      1.0  0.60080  0.98882  0.18824  1.0000
  C   C747      1.0  0.71133  0.02550  0.23825  1.0000
  S   S267      1.0  0.70801  0.38582  0.23948  1.0000
  H   H764      1.0  0.99009  0.46306  0.12797  1.0000
  H   H765      1.0  0.88488  0.01245  0.23953  1.0000
  C   C748      1.0  0.91950  0.13504  0.25833  1.0000
  H   H766      1.0  0.61688  0.25576  0.34299  1.0000
  H   H767      1.0  0.73312  0.33201  0.29537  1.0000
  H   H768      1.0  0.98593  0.08269  0.33649  1.0000
  H   H769      1.0  0.71414  0.16081  0.28837  1.0000
  C   C749      1.0  0.62285  0.44807  0.29778  1.0000
  C   C750      1.0  0.61245  0.33018  0.47483  1.0000
  C   C751      1.0  0.61533  0.12264  0.24198  1.0000
  C   C752      1.0  0.71932  0.38431  0.32749  1.0000
  H   H770      1.0  0.74271  0.38908  0.26591  1.0000
  C   C753      1.0  0.71598  0.16985  0.30094  1.0000
  H   H771      1.0  0.60803  0.43670  0.36239  1.0000
  H   H772      1.0  0.72737  0.41890  0.32250  1.0000
  H   H773      1.0  0.74630  0.98575  0.27952  1.0000
  H   H774      1.0  0.56103  0.45159  0.44676  1.0000
  S   S268      1.0  0.65460  0.35468  0.25469  1.0000
  Fe  Fe137     1.0  0.69356  0.18657  0.24630  1.0000
  C   C754      1.0  0.74802  0.18662  0.27368  1.0000
  Fe  Fe138     1.0  0.66608  0.21256  0.28091  1.0000
  C   C755      1.0  0.57468  0.13789  0.24339  1.0000
  S   S269      1.0  0.66316  0.21762  0.31488  1.0000
  H   H775      1.0  0.98812  0.02352  0.31042  1.0000
  S   S270      1.0  0.67018  0.00937  0.25976  1.0000
  H   H776      1.0  0.71192  0.38321  0.34469  1.0000
  H   H777      1.0  0.74265  0.42183  0.28280  1.0000
  S   S271      1.0  0.66420  0.17783  0.27462  1.0000
  H   H778      1.0  0.61217  0.24240  0.31090  1.0000
  Fe  Fe139     1.0  0.65319  0.37172  0.36287  1.0000
  S   S272      1.0  0.68271  0.34519  0.37171  1.0000
  S   S273      1.0  0.65769  0.40922  0.35360  1.0000
  Fe  Fe140     1.0  0.61996  0.33657  0.37054  1.0000
  S   S274      1.0  0.64646  0.30702  0.38019  1.0000
  S   S275      1.0  0.58654  0.32835  0.36574  1.0000
  Fe  Fe141     1.0  0.65518  0.33017  0.39908  1.0000
  S   S276      1.0  0.66042  0.31589  0.43327  1.0000
  Fe  Fe142     1.0  0.67127  0.32467  0.35200  1.0000
  S   S277      1.0  0.69493  0.30884  0.32502  1.0000
  S   S278      1.0  0.62629  0.35837  0.39185  1.0000
  S   S279      1.0  0.64399  0.35261  0.34096  1.0000
  S   S280      1.0  0.69749  0.21963  0.25463  1.0000
  H   H779      1.0  0.72986  0.36208  0.47417  1.0000
  C   C756      1.0  0.73657  0.99692  0.26803  1.0000
  C   C757      1.0  0.61356  0.29944  0.28939  1.0000
  C   C758      1.0  0.67340  0.34250  0.48039  1.0000
  H   H780      1.0  0.73572  0.24141  0.29780  1.0000
  H   H781      1.0  0.97611  0.05993  0.37381  1.0000
  S   S281      1.0  0.50157  0.40762  0.36482  1.0000
  H   H782      1.0  0.63716  0.14565  0.24654  1.0000
  H   H783      1.0  0.53313  0.46684  0.45742  1.0000
  C   C759      1.0  0.66651  0.28938  0.24485  1.0000
  C   C760      1.0  0.90332  0.15444  0.25357  1.0000
  H   H784      1.0  0.71212  0.35069  0.32712  1.0000
  N   N63       1.0  0.60683  0.42691  0.33303  1.0000
  C   C761      1.0  0.66783  0.33491  0.44674  1.0000
  C   C762      1.0  0.66975  0.32723  0.46850  1.0000
  Fe  Fe143     1.0  0.53953  0.47908  0.35761  1.0000
  C   C763      1.0  0.67560  0.36548  0.47051  1.0000
  C   C764      1.0  0.67441  0.37304  0.44852  1.0000
  C   C765      1.0  0.67032  0.35782  0.43668  1.0000
  C   C766      1.0  0.61397  0.37115  0.46666  1.0000
  H   H785      1.0  0.61847  0.45963  0.32759  1.0000
  H   H786      1.0  0.67616  0.39080  0.44075  1.0000
  H   H787      1.0  0.66881  0.36389  0.41988  1.0000
  C   C767      1.0  0.56337  0.35081  0.36576  1.0000
  C   C768      1.0  0.56541  0.37206  0.36998  1.0000
  H   H788      1.0  0.54798  0.40615  0.37299  1.0000
  C   C769      1.0  0.75704  0.22446  0.27251  1.0000
  C   C770      1.0  0.52374  0.36487  0.36104  1.0000
  C   C771      1.0  0.54254  0.34728  0.36128  1.0000
  H   H789      1.0  0.58134  0.37462  0.37385  1.0000
  N   N64       1.0  0.61656  0.30655  0.30706  1.0000
  H   H790      1.0  0.50763  0.36195  0.35769  1.0000
  H   H791      1.0  0.54089  0.33085  0.35810  1.0000
  S   S282      1.0  0.96071  0.11337  0.26915  1.0000
  S   S283      1.0  0.53013  0.45140  0.38684  1.0000
  H   H792      1.0  0.66786  0.30951  0.47632  1.0000
  H   H793      1.0  0.95444  0.06647  0.25492  1.0000
  H   H794      1.0  0.60921  0.39678  0.29429  1.0000
  H   H795      1.0  0.70842  0.34819  0.28467  1.0000
  S   S284      1.0  0.67955  0.38503  0.48542  1.0000
  C   C772      1.0  0.67214  0.24304  0.31734  1.0000
  C   C773      1.0  0.66823  0.24845  0.33791  1.0000
  C   C774      1.0  0.67494  0.26875  0.34030  1.0000
  C   C775      1.0  0.68614  0.28348  0.32221  1.0000
  C   C776      1.0  0.69070  0.27772  0.30170  1.0000
  C   C777      1.0  0.68347  0.25766  0.29924  1.0000
  H   H796      1.0  0.65982  0.23701  0.35204  1.0000
  H   H797      1.0  0.67199  0.27266  0.35627  1.0000
  H   H798      1.0  0.69946  0.28899  0.28765  1.0000
  H   H799      1.0  0.68688  0.25342  0.28340  1.0000
  C   C778      1.0  0.68684  0.43678  0.28207  1.0000
  C   C779      1.0  0.67888  0.41520  0.28841  1.0000
  C   C780      1.0  0.66990  0.40660  0.31036  1.0000
  C   C781      1.0  0.66842  0.41972  0.32596  1.0000
  C   C782      1.0  0.67573  0.44159  0.31949  1.0000
  C   C783      1.0  0.68510  0.45004  0.29760  1.0000
  H   H800      1.0  0.67994  0.40494  0.27650  1.0000
  H   H801      1.0  0.66425  0.38982  0.31509  1.0000
  H   H802      1.0  0.67449  0.45187  0.33148  1.0000
  C   C784      1.0  0.97608  0.02865  0.36314  1.0000
  C   C785      1.0  0.97959  0.01837  0.34521  1.0000
  C   C786      1.0  0.93960  0.13725  0.26497  1.0000
  H   H803      1.0  0.72169  0.08305  0.25756  1.0000
  C   C787      1.0  0.61770  0.29117  0.32615  1.0000
  H   H804      1.0  0.91660  0.11846  0.25651  1.0000
  H   H805      1.0  0.61160  0.35178  0.44325  1.0000
  C   C788      1.0  0.94318  0.15872  0.26752  1.0000
  C   C789      1.0  0.98379  0.06470  0.33882  1.0000
  C   C790      1.0  0.73660  0.40600  0.29278  1.0000
  S   S285      1.0  0.88704  0.20020  0.24948  1.0000
  H   H806      1.0  0.60286  0.40776  0.36553  1.0000
  H   H807      1.0  0.61214  0.31467  0.46917  1.0000
  H   H808      1.0  0.77525  0.20307  0.24965  1.0000
  C   C791      1.0  0.71240  0.99701  0.27143  1.0000
  H   H809      1.0  0.95869  0.16048  0.27271  1.0000
  C   C792      1.0  0.71929  0.36610  0.31746  1.0000
  H   H810      1.0  0.71251  0.20915  0.31444  1.0000
  S   S286      1.0  0.64044  0.23121  0.26043  1.0000
  C   C793      1.0  0.61173  0.27634  0.29054  1.0000
  C   C794      1.0  0.59889  0.42556  0.35648  1.0000
  H   H811      1.0  0.57986  0.43135  0.36025  1.0000
  H   H812      1.0  0.61310  0.31155  0.27412  1.0000
  H   H813      1.0  0.94211  0.26247  0.24396  1.0000
  H   H814      1.0  0.72411  0.15734  0.31349  1.0000
  H   H815      1.0  0.69117  0.46677  0.29275  1.0000
  H   H816      1.0  0.62036  0.29677  0.34009  1.0000
  C   C795      1.0  0.92647  0.17794  0.26369  1.0000
  C   C796      1.0  0.61564  0.36992  0.48806  1.0000
  H   H817      1.0  0.75520  0.05250  0.26256  1.0000
  C   C797      1.0  0.74820  0.01079  0.24955  1.0000
  H   H818      1.0  0.60977  0.33699  0.31993  1.0000
  H   H819      1.0  0.73779  0.35025  0.26893  1.0000
  H   H820      1.0  0.97861  0.00010  0.34750  1.0000
  H   H821      1.0  0.69799  0.17649  0.30859  1.0000
  C   C798      1.0  0.61102  0.41079  0.30146  1.0000
  H   H822      1.0  0.59662  0.39441  0.33400  1.0000
  C   C799      1.0  0.61212  0.35122  0.46002  1.0000
  H   H823      1.0  0.76731  0.23853  0.26500  1.0000
  S   S287      1.0  0.77859  0.00942  0.24485  1.0000
  C   C800      1.0  0.61296  0.26051  0.30991  1.0000
  C   C801      1.0  0.61569  0.26798  0.32792  1.0000
  N   N65       1.0  0.72786  0.36779  0.29565  1.0000
  C   C802      1.0  0.73636  0.38745  0.28328  1.0000
  H   H824      1.0  0.53757  0.45869  0.43192  1.0000
  C   C803      1.0  0.54647  0.46481  0.44246  1.0000
  C   C804      1.0  0.72800  0.40437  0.31503  1.0000
  H   H825      1.0  0.92915  0.19448  0.26585  1.0000
  Fe  Fe144     1.0  0.64122  0.19714  0.25159  1.0000
  C   C805      1.0  0.69985  0.01111  0.25642  1.0000
  Fe  Fe145     1.0  0.50770  0.44244  0.36743  1.0000
  C   C806      1.0  0.61601  0.44603  0.32028  1.0000
  N   N66       1.0  0.98726  0.05449  0.32134  1.0000
  C   C807      1.0  0.62039  0.43027  0.28834  1.0000
  C   C808      1.0  0.72681  0.34870  0.28554  1.0000
  S   S288      1.0  0.51988  0.46774  0.33709  1.0000
  H   H826      1.0  0.70346  0.98592  0.28554  1.0000
  H   H827      1.0  0.98165  0.24024  0.24177  1.0000
  C   C809      1.0  0.60408  0.40949  0.32391  1.0000
  C   C810      1.0  0.73938  0.22607  0.29086  1.0000
  H   H828      1.0  0.66169  0.30609  0.27195  1.0000
  C   C811      1.0  0.54657  0.38983  0.36955  1.0000
  H   H829      1.0  0.75165  0.17116  0.26698  1.0000
  C   C812      1.0  0.76152  0.20456  0.26390  1.0000
  H   H830      1.0  0.94592  0.00057  0.48708  1.0000
  C   C813      1.0  0.61991  0.33048  0.30528  1.0000
  H   H831      1.0  0.66895  0.27222  0.25443  1.0000
  H   H832      1.0  0.61399  0.34197  0.29092  1.0000
  C   C814      1.0  0.52568  0.38616  0.36514  1.0000
  N   N67       1.0  0.73022  0.18866  0.29121  1.0000
  C   C815      1.0  0.72620  0.20780  0.30017  1.0000
  H   H833      1.0  0.74802  0.34034  0.48919  1.0000
  H   H834      1.0  0.63033  0.46321  0.28786  1.0000
  H   H835      1.0  0.63878  0.33158  0.30353  1.0000
  C   C816      1.0  0.98507  0.03168  0.32429  1.0000
  H   H836      1.0  0.98970  0.08633  0.29841  1.0000
  C   C817      1.0  0.66223  0.30853  0.25474  1.0000
  C   C818      1.0  0.90670  0.17584  0.25644  1.0000
  H   H837      1.0  0.62595  0.43147  0.27095  1.0000
  H   H838      1.0  0.61477  0.38738  0.45508  1.0000
  H   H839      1.0  0.88805  0.15280  0.24794  1.0000
  H   H840      1.0  0.92543  0.07630  0.25083  1.0000
  H   H841      1.0  0.97220  0.01851  0.37949  1.0000
  H   H842      1.0  0.60971  0.27075  0.27639  1.0000
  S   S289      1.0  0.60640  0.18913  0.24941  1.0000
  C   C819      1.0  0.97809  0.05197  0.35996  1.0000
  S   S290      1.0  0.69985  0.44687  0.25498  1.0000
  H   H843      1.0  0.89654  0.24772  0.24718  1.0000
  C   C820      1.0  0.61974  0.14348  0.24571  1.0000
  Fe  Fe146     1.0  0.50000  0.47760  0.39647  1.0000
  H   H844      1.0  0.98786  0.06232  0.28730  1.0000
  C   C821      1.0  0.75723  0.06733  0.24929  1.0000
  H   H845      1.0  0.72402  0.39989  0.48021  1.0000
  C   C822      1.0  0.57910  0.15868  0.24681  1.0000
  C   C823      1.0  0.60162  0.16167  0.24773  1.0000
  H   H846      1.0  0.56501  0.17263  0.24848  1.0000
  C   C824      1.0  0.73844  0.08443  0.24644  1.0000
  C   C825      1.0  0.65917  0.33081  0.24233  1.0000
  C   C826      1.0  0.94364  0.07181  0.24228  1.0000
  H   H847      1.0  0.55720  0.13590  0.24253  1.0000
  C   C827      1.0  0.59279  0.11993  0.24056  1.0000
  H   H848      1.0  0.93474  0.03846  0.62403  1.0000
  Fe  Fe147     1.0  0.84498  0.00066  0.68394  1.0000
  H   H849      1.0  0.85070  0.45732  0.65809  1.0000
  C   C828      1.0  0.97561  0.29135  0.71976  1.0000
  Fe  Fe148     1.0  0.82133  0.04953  0.68121  1.0000
  S   S291      1.0  0.81604  0.04776  0.71691  1.0000
  S   S292      1.0  0.80723  0.08131  0.66016  1.0000
  Fe  Fe149     1.0  0.85283  0.02977  0.71298  1.0000
  C   C829      1.0  0.73441  0.40991  0.50594  1.0000
  Fe  Fe150     1.0  0.80534  0.01302  0.71985  1.0000
  C   C830      1.0  0.92495  0.33061  0.70159  1.0000
  S   S293      1.0  0.85894  0.03442  0.67685  1.0000
  S   S294      1.0  0.80787  0.01624  0.68426  1.0000
  H   H850      1.0  0.96400  0.21534  0.70061  1.0000
  C   C831      1.0  0.59353  0.45033  0.66004  1.0000
  C   C832      1.0  0.62086  0.28527  0.62211  1.0000
  H   H851      1.0  0.75496  0.08534  0.67061  1.0000
  S   S295      1.0  0.67856  0.33711  0.53892  1.0000
  C   C833      1.0  0.74533  0.01039  0.66428  1.0000
  S   S296      1.0  0.98021  0.04935  0.66890  1.0000
  C   C834      1.0  0.90202  0.32977  0.71340  1.0000
  H   H852      1.0  0.59182  0.45760  0.57782  1.0000
  S   S297      1.0  0.52386  0.46220  0.70358  1.0000
  C   C835      1.0  0.73401  0.35041  0.58894  1.0000
  C   C836      1.0  0.95474  0.32869  0.66818  1.0000
  S   S298      1.0  0.84285  0.15099  0.72254  1.0000
  C   C837      1.0  0.88800  0.44665  0.70875  1.0000
  S   S299      1.0  0.66794  0.13792  0.72356  1.0000
  S   S300      1.0  0.89473  0.16774  0.69974  1.0000
  N   N68       1.0  0.93072  0.32766  0.68054  1.0000
  Fe  Fe151     1.0  0.96564  0.39191  0.68821  1.0000
  S   S301      1.0  0.68024  0.07290  0.71383  1.0000
  H   H853      1.0  0.91868  0.32107  0.65422  1.0000
  C   C838      1.0  0.53625  0.38873  0.71683  1.0000
  S   S302      1.0  0.90342  0.22845  0.70320  1.0000
  Fe  Fe152     1.0  0.86011  0.17062  0.69055  1.0000
  H   H854      1.0  0.86567  0.01313  0.63531  1.0000
  S   S303      1.0  0.85519  0.16740  0.65822  1.0000
  H   H855      1.0  0.57657  0.34089  0.72168  1.0000
  H   H856      1.0  0.59994  0.30695  0.52471  1.0000
  H   H857      1.0  0.90726  0.02026  0.65590  1.0000
  H   H858      1.0  0.76638  0.24029  0.64503  1.0000
  S   S304      1.0  0.84715  0.20534  0.69875  1.0000
  H   H859      1.0  0.94751  0.14601  0.71816  1.0000
  Fe  Fe153     1.0  0.61027  0.27781  0.67752  1.0000
  Fe  Fe154     1.0  0.61703  0.27510  0.72272  1.0000
  S   S305      1.0  0.64121  0.30229  0.71227  1.0000
  H   H860      1.0  0.85266  0.44450  0.70745  1.0000
  Fe  Fe155     1.0  0.65714  0.28359  0.68502  1.0000
  S   S306      1.0  0.69519  0.27551  0.67080  1.0000
  S   S307      1.0  0.59010  0.29567  0.70417  1.0000
  S   S308      1.0  0.63491  0.25502  0.69705  1.0000
  Fe  Fe156     1.0  0.78835  0.36424  0.64992  1.0000
  S   S309      1.0  0.76258  0.38612  0.63050  1.0000
  Fe  Fe157     1.0  0.83129  0.32935  0.65305  1.0000
  S   S310      1.0  0.86249  0.30936  0.63559  1.0000
  Fe  Fe158     1.0  0.78912  0.32644  0.68979  1.0000
  S   S311      1.0  0.76579  0.30406  0.71559  1.0000
  S   S312      1.0  0.79402  0.32579  0.65449  1.0000
  H   H861      1.0  0.57336  0.41919  0.59027  1.0000
  H   H862      1.0  0.82723  0.28701  0.62674  1.0000
  C   C839      1.0  0.71454  0.28294  0.68385  1.0000
  C   C840      1.0  0.73829  0.28141  0.67423  1.0000
  C   C841      1.0  0.75416  0.28749  0.68420  1.0000
  C   C842      1.0  0.74625  0.29524  0.70373  1.0000
  C   C843      1.0  0.72259  0.29623  0.71365  1.0000
  C   C844      1.0  0.70672  0.29013  0.70367  1.0000
  H   H863      1.0  0.74429  0.27582  0.65892  1.0000
  H   H864      1.0  0.77254  0.28599  0.67695  1.0000
  H   H865      1.0  0.71650  0.30206  0.72886  1.0000
  H   H866      1.0  0.68856  0.29082  0.71143  1.0000
  C   C845      1.0  0.89213  0.25132  0.68472  1.0000
  C   C846      1.0  0.86812  0.25864  0.68807  1.0000
  C   C847      1.0  0.85894  0.27638  0.67289  1.0000
  C   C848      1.0  0.87375  0.28660  0.65419  1.0000
  C   C849      1.0  0.89774  0.27910  0.65069  1.0000
  C   C850      1.0  0.90699  0.26171  0.66614  1.0000
  H   H867      1.0  0.85660  0.25082  0.70252  1.0000
  H   H868      1.0  0.84034  0.28188  0.67553  1.0000
  H   H869      1.0  0.90919  0.28694  0.63618  1.0000
  H   H870      1.0  0.92554  0.25592  0.66344  1.0000
  C   C851      1.0  0.59243  0.34647  0.62930  1.0000
  S   S313      1.0  0.72254  0.33551  0.57429  1.0000
  C   C852      1.0  0.56846  0.35758  0.71466  1.0000
  C   C853      1.0  0.93050  0.99165  0.54222  1.0000
  C   C854      1.0  0.55164  0.41217  0.62232  1.0000
  H   H871      1.0  0.64299  0.30391  0.59453  1.0000
  C   C855      1.0  0.95311  0.18168  0.70938  1.0000
  H   H872      1.0  0.86722  0.37654  0.65842  1.0000
  Fe  Fe159     1.0  0.67137  0.37365  0.52188  1.0000
  C   C856      1.0  0.82562  0.26887  0.63307  1.0000
  C   C857      1.0  0.59883  0.27798  0.63054  1.0000
  H   H873      1.0  0.93876  0.02165  0.51746  1.0000
  H   H874      1.0  0.76487  0.25054  0.73486  1.0000
  H   H875      1.0  0.72231  0.39827  0.61107  1.0000
  C   C858      1.0  0.75234  0.37271  0.61375  1.0000
  Fe  Fe160     1.0  0.87627  0.15150  0.73275  1.0000
  H   H876      1.0  0.61605  0.29226  0.50330  1.0000
  S   S314      1.0  0.97535  0.42627  0.68843  1.0000
  S   S315      1.0  0.82637  0.36796  0.64504  1.0000
  H   H877      1.0  0.87109  0.39055  0.71951  1.0000
  H   H878      1.0  0.76153  0.06756  0.69559  1.0000
  N   N69       1.0  0.57802  0.36895  0.62668  1.0000
  C   C859      1.0  0.98405  0.14999  0.70721  1.0000
  H   H879      1.0  0.82272  0.10231  0.71923  1.0000
  H   H880      1.0  0.57746  0.40127  0.67084  1.0000
  C   C860      1.0  0.86632  0.38339  0.68983  1.0000
  H   H881      1.0  0.58198  0.33273  0.63951  1.0000
  H   H882      1.0  0.75506  0.37258  0.54746  1.0000
  C   C861      1.0  0.74889  0.07157  0.68461  1.0000
  C   C862      1.0  0.95742  0.99146  0.66869  1.0000
  C   C863      1.0  0.61542  0.30699  0.51112  1.0000
  H   H883      1.0  0.58855  0.44201  0.69503  1.0000
  C   C864      1.0  0.91733  0.98757  0.68913  1.0000
  N   N70       1.0  0.94102  0.08316  0.72331  1.0000
  N   N71       1.0  0.73666  0.37072  0.50229  1.0000
  H   H884      1.0  0.96339  0.31114  0.66643  1.0000
  H   H885      1.0  0.68315  0.02441  0.71581  1.0000
  Fe  Fe161     1.0  0.51291  0.46841  0.67173  1.0000
  C   C865      1.0  0.62147  0.42501  0.64083  1.0000
  H   H886      1.0  0.93793  0.33420  0.70921  1.0000
  H   H887      1.0  0.96687  0.29227  0.70666  1.0000
  H   H888      1.0  0.60321  0.22440  0.68851  1.0000
  H   H889      1.0  0.61714  0.34771  0.51905  1.0000
  S   S316      1.0  0.50932  0.40054  0.73078  1.0000
  C   C866      1.0  0.59867  0.21089  0.70256  1.0000
  H   H890      1.0  0.87793  0.32022  0.67418  1.0000
  Fe  Fe162     1.0  0.49829  0.43647  0.71384  1.0000
  H   H891      1.0  0.64158  0.46246  0.50421  1.0000
  H   H892      1.0  0.91922  0.11307  0.71185  1.0000
  C   C867      1.0  0.82141  0.10472  0.65944  1.0000
  C   C868      1.0  0.83668  0.10304  0.67342  1.0000
  C   C869      1.0  0.84685  0.12238  0.67348  1.0000
  C   C870      1.0  0.84233  0.14312  0.65903  1.0000
  C   C871      1.0  0.82740  0.14460  0.64485  1.0000
  C   C872      1.0  0.81669  0.12553  0.64528  1.0000
  H   H893      1.0  0.84061  0.08688  0.68420  1.0000
  H   H894      1.0  0.85867  0.12112  0.68423  1.0000
  H   H895      1.0  0.82399  0.16056  0.63359  1.0000
  H   H896      1.0  0.80494  0.12686  0.63445  1.0000
  C   C873      1.0  0.92808  0.02975  0.72013  1.0000
  C   C874      1.0  0.80362  0.26128  0.64018  1.0000
  H   H897      1.0  0.63414  0.28056  0.63173  1.0000
  C   C875      1.0  0.90795  0.03886  0.71182  1.0000
  C   C876      1.0  0.91012  0.05104  0.69034  1.0000
  C   C877      1.0  0.93237  0.05418  0.67735  1.0000
  C   C878      1.0  0.71774  0.22936  0.71155  1.0000
  H   H898      1.0  0.89468  0.05873  0.68394  1.0000
  H   H899      1.0  0.93391  0.06406  0.66090  1.0000
  H   H900      1.0  0.66410  0.35622  0.69320  1.0000
  C   C879      1.0  0.62599  0.29818  0.60092  1.0000
  C   C880      1.0  0.58763  0.29501  0.59599  1.0000
  C   C881      1.0  0.58237  0.28245  0.61733  1.0000
  H   H901      1.0  0.57473  0.29880  0.58592  1.0000
  H   H902      1.0  0.56539  0.27666  0.62373  1.0000
  C   C882      1.0  0.73152  0.38234  0.60668  1.0000
  S   S317      1.0  0.95467  0.38165  0.72437  1.0000
  C   C883      1.0  0.93677  0.00352  0.52079  1.0000
  S   S318      1.0  0.63403  0.30471  0.66303  1.0000
  H   H903      1.0  0.61397  0.15382  0.72104  1.0000
  H   H904      1.0  0.64107  0.22481  0.73652  1.0000
  H   H905      1.0  0.71656  0.00534  0.69158  1.0000
  H   H906      1.0  0.93431  0.44313  0.66666  1.0000
  C   C884      1.0  0.94072  0.99176  0.50380  1.0000
  C   C885      1.0  0.61042  0.18862  0.70257  1.0000
  C   C886      1.0  0.73277  0.35389  0.49078  1.0000
  C   C887      1.0  0.60475  0.17110  0.72056  1.0000
  H   H907      1.0  0.74844  0.34478  0.52753  1.0000
  C   C888      1.0  0.92582  0.01500  0.65467  1.0000
  H   H908      1.0  0.67431  0.33642  0.49722  1.0000
  H   H909      1.0  0.62396  0.18505  0.68880  1.0000
  S   S319      1.0  0.54046  0.46953  0.64145  1.0000
  C   C889      1.0  0.91638  0.44391  0.67565  1.0000
  H   H910      1.0  0.77465  0.02006  0.63873  1.0000
  C   C890      1.0  0.92341  0.09471  0.71051  1.0000
  C   C891      1.0  0.96982  0.19700  0.70218  1.0000
  N   N72       1.0  0.69642  0.33474  0.65000  1.0000
  C   C892      1.0  0.67713  0.34235  0.66409  1.0000
  C   C893      1.0  0.71831  0.33594  0.65265  1.0000
  C   C894      1.0  0.67949  0.35076  0.68179  1.0000
  C   C895      1.0  0.72133  0.34467  0.66989  1.0000
  C   C896      1.0  0.70179  0.35192  0.68465  1.0000
  C   C897      1.0  0.69346  0.32599  0.63160  1.0000
  H   H911      1.0  0.65977  0.34183  0.66179  1.0000
  H   H912      1.0  0.73360  0.32985  0.64160  1.0000
  H   H913      1.0  0.73876  0.34559  0.67188  1.0000
  H   H914      1.0  0.90960  0.37867  0.64540  1.0000
  H   H915      1.0  0.68797  0.34045  0.61891  1.0000
  H   H916      1.0  0.70986  0.31622  0.62418  1.0000
  H   H917      1.0  0.68023  0.31383  0.63694  1.0000
  C   C898      1.0  0.56077  0.37436  0.64360  1.0000
  C   C899      1.0  0.54721  0.39597  0.64162  1.0000
  H   H918      1.0  0.55757  0.36204  0.65886  1.0000
  H   H919      1.0  0.53356  0.40025  0.65509  1.0000
  C   C900      1.0  0.95027  0.03242  0.70698  1.0000
  N   N73       1.0  0.80163  0.23842  0.64819  1.0000
  C   C901      1.0  0.82112  0.22278  0.64994  1.0000
  C   C902      1.0  0.84339  0.22978  0.64295  1.0000
  C   C903      1.0  0.84560  0.25297  0.63439  1.0000
  C   C904      1.0  0.77840  0.23088  0.65592  1.0000
  H   H920      1.0  0.81958  0.20474  0.65677  1.0000
  H   H921      1.0  0.85881  0.21727  0.64434  1.0000
  H   H922      1.0  0.86276  0.25867  0.62900  1.0000
  H   H923      1.0  0.77105  0.23404  0.67257  1.0000
  H   H924      1.0  0.97731  0.02644  0.62069  1.0000
  C   C905      1.0  0.89109  0.32271  0.68217  1.0000
  H   H925      1.0  0.78819  0.27381  0.63922  1.0000
  H   H926      1.0  0.96966  0.08756  0.69626  1.0000
  H   H927      1.0  0.93473  0.18817  0.71316  1.0000
  C   C906      1.0  0.96422  0.08163  0.71365  1.0000
  C   C907      1.0  0.61560  0.34865  0.50251  1.0000
  Fe  Fe163     1.0  0.68920  0.35213  0.56328  1.0000
  C   C908      1.0  0.73125  0.39380  0.49475  1.0000
  C   C909      1.0  0.76429  0.35222  0.60787  1.0000
  C   C910      1.0  0.98125  0.07183  0.72596  1.0000
  H   H928      1.0  0.65002  0.42982  0.53385  1.0000
  H   H929      1.0  0.55993  0.47832  0.59600  1.0000
  S   S320      1.0  0.65342  0.35425  0.58476  1.0000
  C   C911      1.0  0.92146  0.99507  0.61171  1.0000
  C   C912      1.0  0.90016  0.00928  0.61520  1.0000
  S   S321      1.0  0.59131  0.26447  0.65789  1.0000
  C   C913      1.0  0.90129  0.38109  0.66166  1.0000
  C   C914      1.0  0.89850  0.44181  0.66579  1.0000
  H   H930      1.0  0.73156  0.07863  0.69324  1.0000
  H   H931      1.0  0.90292  0.43942  0.64912  1.0000
  H   H932      1.0  0.96545  0.02535  0.71372  1.0000
  C   C915      1.0  0.63550  0.44294  0.53710  1.0000
  H   H933      1.0  0.61467  0.45732  0.60678  1.0000
  S   S322      1.0  0.60740  0.35935  0.68150  1.0000
  C   C916      1.0  0.54743  0.40103  0.69704  1.0000
  C   C917      1.0  0.52722  0.47798  0.61896  1.0000
  C   C918      1.0  0.76281  0.04500  0.65942  1.0000
  H   H934      1.0  0.84268  0.43216  0.67838  1.0000
  C   C919      1.0  0.95256  0.04471  0.68555  1.0000
  C   C920      1.0  0.74494  0.36309  0.52107  1.0000
  C   C921      1.0  0.58271  0.38487  0.60781  1.0000
  C   C922      1.0  0.85741  0.44003  0.66649  1.0000
  H   H935      1.0  0.96520  0.33644  0.67615  1.0000
  C   C923      1.0  0.87954  0.38773  0.70341  1.0000
  N   N74       1.0  0.87596  0.44187  0.67723  1.0000
  C   C924      1.0  0.75556  0.98799  0.73347  1.0000
  C   C925      1.0  0.74322  0.40228  0.52492  1.0000
  S   S323      1.0  0.83597  0.38394  0.69865  1.0000
  Fe  Fe164     1.0  0.88023  0.20084  0.71090  1.0000
  C   C926      1.0  0.60284  0.45874  0.56192  1.0000
  C   C927      1.0  0.59837  0.43745  0.67984  1.0000
  S   S324      1.0  0.82693  0.32638  0.68888  1.0000
  C   C928      1.0  0.66300  0.05216  0.73057  1.0000
  C   C929      1.0  0.76693  0.18000  0.70624  1.0000
  H   H936      1.0  0.77182  0.17827  0.68943  1.0000
  S   S325      1.0  0.72488  0.16821  0.70590  1.0000
  H   H937      1.0  0.75331  0.23229  0.71117  1.0000
  C   C930      1.0  0.73118  0.03653  0.68898  1.0000
  H   H938      1.0  0.63008  0.41968  0.62565  1.0000
  C   C931      1.0  0.96517  0.01854  0.63467  1.0000
  C   C932      1.0  0.63073  0.46144  0.52031  1.0000
  H   H939      1.0  0.70614  0.37862  0.58909  1.0000
  S   S326      1.0  0.78090  0.36472  0.68552  1.0000
  H   H940      1.0  0.59677  0.38087  0.59455  1.0000
  S   S327      1.0  0.61493  0.32041  0.56194  1.0000
  Fe  Fe165     1.0  0.64237  0.34292  0.55839  1.0000
  C   C933      1.0  0.60927  0.30324  0.58796  1.0000
  C   C934      1.0  0.54672  0.36690  0.72552  1.0000
  C   C935      1.0  0.87053  0.44451  0.69837  1.0000
  C   C936      1.0  0.72235  0.37122  0.59428  1.0000
  H   H941      1.0  0.89737  0.33266  0.72989  1.0000
  H   H942      1.0  0.90159  0.99992  0.69348  1.0000
  H   H943      1.0  0.95479  0.33988  0.65184  1.0000
  H   H944      1.0  0.53933  0.41768  0.69000  1.0000
  C   C937      1.0  0.73541  0.23457  0.71991  1.0000
  C   C938      1.0  0.66902  0.02915  0.72855  1.0000
  C   C939      1.0  0.62684  0.41183  0.66032  1.0000
  C   C940      1.0  0.56954  0.40665  0.60530  1.0000
  C   C941      1.0  0.77689  0.18761  0.73795  1.0000
  H   H945      1.0  0.71938  0.04072  0.70347  1.0000
  C   C942      1.0  0.88202  0.00201  0.63246  1.0000
  C   C943      1.0  0.74462  0.17604  0.71823  1.0000
  C   C944      1.0  0.59914  0.45702  0.62036  1.0000
  S   S328      1.0  0.68507  0.38849  0.54463  1.0000
  S   S329      1.0  0.94441  0.38747  0.66519  1.0000
  C   C945      1.0  0.88498  0.32592  0.70354  1.0000
  H   H946      1.0  0.86696  0.32591  0.71225  1.0000
  S   S330      1.0  0.63436  0.37851  0.53970  1.0000
  Fe  Fe166     1.0  0.81953  0.36477  0.68118  1.0000
  C   C946      1.0  0.94128  0.02544  0.63665  1.0000
  Fe  Fe167     1.0  0.61594  0.32100  0.69122  1.0000
  H   H947      1.0  0.97846  0.32783  0.71287  1.0000
  C   C947      1.0  0.72964  0.01640  0.68245  1.0000
  H   H948      1.0  0.63135  0.30423  0.51809  1.0000
  C   C948      1.0  0.91107  0.44632  0.69729  1.0000
  H   H949      1.0  0.77908  0.21222  0.65626  1.0000
  H   H950      1.0  0.59983  0.34129  0.61339  1.0000
  H   H951      1.0  0.60694  0.34716  0.63714  1.0000
  N   N75       1.0  0.73024  0.24225  0.73900  1.0000
  S   S331      1.0  0.84154  0.99467  0.71996  1.0000
  C   C949      1.0  0.62169  0.44172  0.55800  1.0000
  S   S332      1.0  0.88039  0.03585  0.72894  1.0000
  H   H952      1.0  0.61843  0.40742  0.69522  1.0000
  H   H953      1.0  0.72180  0.22331  0.69638  1.0000
  C   C950      1.0  0.57043  0.23917  0.72031  1.0000
  C   C951      1.0  0.78319  0.18546  0.71618  1.0000
  C   C952      1.0  0.90363  0.38864  0.69615  1.0000
  H   H954      1.0  0.88378  0.44836  0.72561  1.0000
  Fe  Fe168     1.0  0.64843  0.38960  0.56424  1.0000
  H   H955      1.0  0.80055  0.18813  0.70697  1.0000
  C   C953      1.0  0.75508  0.34106  0.59557  1.0000
  S   S333      1.0  0.94446  0.00496  0.59093  1.0000
  Fe  Fe169     1.0  0.83274  0.18558  0.73163  1.0000
  C   C954      1.0  0.56913  0.39175  0.68624  1.0000
  H   H956      1.0  0.92481  0.44771  0.70526  1.0000
  H   H957      1.0  0.74459  0.99451  0.65940  1.0000
  Fe  Fe170     1.0  0.96738  0.41436  0.72462  1.0000
  H   H958      1.0  0.91359  0.39232  0.70660  1.0000
  C   C955      1.0  0.91451  0.38549  0.67518  1.0000
  H   H959      1.0  0.89781  0.02607  0.60482  1.0000
  H   H960      1.0  0.76427  0.32508  0.59126  1.0000
  N   N76       1.0  0.61436  0.32910  0.49574  1.0000
  H   H961      1.0  0.86392  0.42864  0.65449  1.0000
  C   C956      1.0  0.76210  0.02471  0.65269  1.0000
  H   H962      1.0  0.77604  0.05596  0.65044  1.0000
  C   C957      1.0  0.59790  0.47707  0.54510  1.0000
  C   C958      1.0  0.97336  0.00145  0.65076  1.0000
  H   H963      1.0  0.98998  0.13166  0.70956  1.0000
  S   S334      1.0  0.97359  0.24471  0.72889  1.0000
  H   H964      1.0  0.90704  0.08656  0.71653  1.0000
  H   H965      1.0  0.92955  0.09372  0.69312  1.0000
  S   S335      1.0  0.62772  0.41882  0.57922  1.0000
  H   H966      1.0  0.59186  0.47516  0.62128  1.0000
  C   C959      1.0  0.57980  0.37013  0.69510  1.0000
  H   H967      1.0  0.74545  0.41454  0.53397  1.0000
  C   C960      1.0  0.91420  0.32342  0.67090  1.0000
  C   C961      1.0  0.96031  0.15804  0.71210  1.0000
  H   H968      1.0  0.70400  0.35831  0.69831  1.0000
  H   H969      1.0  0.54130  0.42901  0.62064  1.0000
  H   H970      1.0  0.78063  0.34500  0.61278  1.0000
  N   N77       1.0  0.74732  0.05075  0.67727  1.0000
  H   H971      1.0  0.92744  0.00092  0.55532  1.0000
  C   C962      1.0  0.74860  0.37874  0.53252  1.0000
  C   C963      1.0  0.57647  0.19860  0.73788  1.0000
  C   C964      1.0  0.87729  0.37982  0.66903  1.0000
  H   H972      1.0  0.63929  0.39634  0.66030  1.0000
  C   C965      1.0  0.61518  0.41811  0.67994  1.0000
  H   H973      1.0  0.61766  0.38521  0.49327  1.0000
  C   C966      1.0  0.98202  0.31135  0.72331  1.0000
  C   C967      1.0  0.80843  0.10598  0.73240  1.0000
  H   H974      1.0  0.92651  0.02052  0.73681  1.0000
  N   N78       1.0  0.58186  0.21559  0.72005  1.0000
  H   H975      1.0  0.78693  0.10644  0.69893  1.0000
  C   C968      1.0  0.98099  0.26998  0.73303  1.0000
  H   H976      1.0  0.57103  0.24956  0.70359  1.0000
  Fe  Fe171     1.0  0.68142  0.10043  0.73144  1.0000
  C   C969      1.0  0.61193  0.47856  0.52429  1.0000
  C   C970      1.0  0.78379  0.12226  0.70577  1.0000
  C   C971      1.0  0.58750  0.17604  0.73823  1.0000
  Fe  Fe172     1.0  0.70211  0.14353  0.72938  1.0000
  H   H977      1.0  0.79615  0.13434  0.69563  1.0000
  H   H978      1.0  0.72964  0.42816  0.50012  1.0000
  N   N79       1.0  0.93396  0.99849  0.67057  1.0000
  H   H979      1.0  0.76581  0.13065  0.70450  1.0000
  C   C972      1.0  0.73835  0.17818  0.73998  1.0000
  H   H980      1.0  0.58574  0.44875  0.61658  1.0000
  H   H981      1.0  0.55174  0.23933  0.72845  1.0000
  H   H982      1.0  0.71698  0.34573  0.49979  1.0000
  N   N80       1.0  0.60524  0.44416  0.64088  1.0000
  S   S336      1.0  0.71673  0.10628  0.73385  1.0000
  H   H983      1.0  0.57923  0.24758  0.72921  1.0000
  H   H984      1.0  0.68096  0.22799  0.71642  1.0000
  C   C973      1.0  0.69471  0.23189  0.72291  1.0000
  N   N81       1.0  0.78715  0.11644  0.72823  1.0000
  H   H985      1.0  0.58005  0.46503  0.66014  1.0000
  H   H986      1.0  0.92511  0.98159  0.70381  1.0000
  H   H987      1.0  0.49195  0.47885  0.63769  1.0000
  S   S337      1.0  0.62159  0.14856  0.77649  1.0000
  Fe  Fe173     1.0  0.64084  0.01071  0.88097  1.0000
  H   H988      1.0  0.96833  0.46189  0.80629  1.0000
  S   S338      1.0  0.63584  0.04897  0.87017  1.0000
  C   C974      1.0  0.60021  0.19053  0.78448  1.0000
  C   C975      1.0  0.61853  0.17874  0.77166  1.0000
  H   H989      1.0  0.92330  0.41622  0.82960  1.0000
  H   H990      1.0  0.52309  0.99579  0.88938  1.0000
  C   C976      1.0  0.59722  0.01929  0.95607  1.0000
  C   C977      1.0  0.91667  0.11547  0.78654  1.0000
  N   N82       1.0  0.59966  0.03515  0.82560  1.0000
  C   C978      1.0  0.97007  0.44802  0.79775  1.0000
  H   H991      1.0  0.95520  0.34319  0.77933  1.0000
  S   S339      1.0  0.95437  0.15285  0.80672  1.0000
  C   C979      1.0  0.53269  0.98312  0.88005  1.0000
  Fe  Fe174     1.0  0.70125  0.10510  0.76906  1.0000
  S   S340      1.0  0.71904  0.08235  0.79471  1.0000
  C   C980      1.0  0.63904  0.01775  0.76022  1.0000
  C   C981      1.0  0.59103  0.01273  0.83382  1.0000
  N   N83       1.0  0.71351  0.03025  0.77619  1.0000
  Fe  Fe175     1.0  0.65665  0.13432  0.75972  1.0000
  C   C982      1.0  0.89566  0.18244  0.81591  1.0000
  H   H992      1.0  0.59356  0.00593  0.85071  1.0000
  S   S341      1.0  0.94717  0.43711  0.74730  1.0000
  H   H993      1.0  0.70363  0.25032  0.76569  1.0000
  C   C983      1.0  0.93850  0.14393  0.79106  1.0000
  C   C984      1.0  0.93280  0.15848  0.77220  1.0000
  C   C985      1.0  0.98375  0.42719  0.80401  1.0000
  C   C986      1.0  0.59418  0.01545  0.97869  1.0000
  H   H994      1.0  0.56628  0.98700  0.88520  1.0000
  S   S342      1.0  0.89303  0.12140  0.75381  1.0000
  C   C987      1.0  0.93420  0.07512  0.74514  1.0000
  H   H995      1.0  0.74952  0.18588  0.76662  1.0000
  H   H996      1.0  0.95945  0.32697  0.80558  1.0000
  C   C988      1.0  0.62960  0.21532  0.74977  1.0000
  C   C989      1.0  0.65986  0.05877  0.85061  1.0000
  C   C990      1.0  0.65761  0.08103  0.83802  1.0000
  C   C991      1.0  0.67591  0.08838  0.82099  1.0000
  C   C992      1.0  0.69692  0.07388  0.81716  1.0000
  C   C993      1.0  0.69965  0.05207  0.83052  1.0000
  C   C994      1.0  0.68094  0.04428  0.84689  1.0000
  H   H997      1.0  0.64147  0.09240  0.84105  1.0000
  H   H998      1.0  0.67379  0.10540  0.81096  1.0000
  H   H999      1.0  0.71608  0.04110  0.82801  1.0000
  H   H1000     1.0  0.68291  0.02718  0.85676  1.0000
  C   C995      1.0  0.88801  0.20500  0.78103  1.0000
  C   C996      1.0  0.72219  0.00305  0.80780  1.0000
  S   S343      1.0  0.79690  0.19493  0.75028  1.0000
  N   N84       1.0  0.94994  0.36293  0.80428  1.0000
  S   S344      1.0  0.66893  0.99000  0.89792  1.0000
  H   H1001     1.0  0.91002  0.17725  0.82511  1.0000
  H   H1002     1.0  0.93873  0.17521  0.76671  1.0000
  H   H1003     1.0  0.66897  0.99860  0.79938  1.0000
  C   C997      1.0  0.96124  0.43330  0.76911  1.0000
  H   H1004     1.0  0.57224  0.01387  0.83352  1.0000
  H   H1005     1.0  0.62328  0.09403  0.80580  1.0000
  H   H1006     1.0  0.93199  0.20661  0.80484  1.0000
  H   H1007     1.0  0.67306  0.02492  0.95458  1.0000
  C   C998      1.0  0.58468  0.05500  0.82718  1.0000
  H   H1008     1.0  0.58271  0.22368  0.79028  1.0000
  S   S345      1.0  0.68970  0.14299  0.76509  1.0000
  C   C999      1.0  0.70050  0.99537  0.81145  1.0000
  H   H1009     1.0  0.73092  0.03793  0.74332  1.0000
  H   H1010     1.0  0.56627  0.05432  0.83411  1.0000
  H   H1011     1.0  0.93442  0.11129  0.81295  1.0000
  C   C1000     1.0  0.77219  0.11521  0.76636  1.0000
  C   C1001     1.0  0.92705  0.22714  0.77386  1.0000
  C   C1002     1.0  0.93020  0.40095  0.82283  1.0000
  H   H1012     1.0  0.65038  0.05768  0.80403  1.0000
  S   S346      1.0  0.64655  0.98855  0.85655  1.0000
  H   H1013     1.0  0.63480  0.02027  0.81654  1.0000
  C   C1003     1.0  0.59678  0.21464  0.78017  1.0000
  C   C1004     1.0  0.72119  0.04704  0.75646  1.0000
  H   H1014     1.0  0.93143  0.37876  0.77894  1.0000
  C   C1005     1.0  0.62299  0.03600  0.81753  1.0000
  H   H1015     1.0  0.63892  0.07592  0.74802  1.0000
  C   C1006     1.0  0.69220  0.02283  0.77971  1.0000
  Fe  Fe176     1.0  0.99060  0.21552  0.75101  1.0000
  S   S347      1.0  0.66705  0.09626  0.76707  1.0000
  C   C1007     1.0  0.93022  0.12251  0.79829  1.0000
  N   N85       1.0  0.90186  0.19973  0.79609  1.0000
  H   H1016     1.0  0.75775  0.11874  0.77952  1.0000
  H   H1017     1.0  0.87976  0.18929  0.82664  1.0000
  H   H1018     1.0  0.98078  0.34487  0.78874  1.0000
  C   C1008     1.0  0.65512  0.99671  0.95511  1.0000
  H   H1019     1.0  0.66260  0.99425  0.74223  1.0000
  H   H1020     1.0  0.65704  0.00029  0.93779  1.0000
  H   H1021     1.0  0.59027  0.00836  0.94862  1.0000
  H   H1022     1.0  0.91370  0.41261  0.79520  1.0000
  H   H1023     1.0  0.94527  0.05928  0.77528  1.0000
  C   C1009     1.0  0.95501  0.36463  0.82337  1.0000
  H   H1024     1.0  0.58109  0.09223  0.82113  1.0000
  H   H1025     1.0  0.70607  0.05852  0.75092  1.0000
  H   H1026     1.0  0.58342  0.16267  0.75254  1.0000
  H   H1027     1.0  0.58872  0.18100  0.79786  1.0000
  C   C1010     1.0  0.79386  0.10459  0.77075  1.0000
  C   C1011     1.0  0.63224  0.04088  0.76164  1.0000
  C   C1012     1.0  0.63339  0.19115  0.75438  1.0000
  Fe  Fe177     1.0  0.98273  0.17353  0.78660  1.0000
  C   C1013     1.0  0.61129  0.22710  0.76267  1.0000
  C   C1014     1.0  0.91855  0.15176  0.76087  1.0000
  H   H1028     1.0  0.89252  0.16651  0.81172  1.0000
  C   C1015     1.0  0.91062  0.13017  0.76795  1.0000
  C   C1016     1.0  0.60993  0.03680  0.94317  1.0000
  H   H1029     1.0  0.72093  0.17588  0.74910  1.0000
  C   C1017     1.0  0.96174  0.34360  0.79395  1.0000
  H   H1030     1.0  0.95014  0.38537  0.84757  1.0000
  C   C1018     1.0  0.97486  0.41246  0.77543  1.0000
  C   C1019     1.0  0.92102  0.21077  0.79287  1.0000
  H   H1031     1.0  0.91044  0.09883  0.79217  1.0000
  C   C1020     1.0  0.63183  0.05712  0.81021  1.0000
  C   C1021     1.0  0.59292  0.07647  0.81991  1.0000
  C   C1022     1.0  0.61664  0.07748  0.81130  1.0000
  H   H1032     1.0  0.62963  0.06362  0.94317  1.0000
  C   C1023     1.0  0.75443  0.18413  0.74980  1.0000
  H   H1033     1.0  0.61757  0.04554  0.77400  1.0000
  H   H1034     1.0  0.87265  0.19645  0.78376  1.0000
  C   C1024     1.0  0.66411  0.01076  0.96470  1.0000
  H   H1035     1.0  0.72541  0.99433  0.75811  1.0000
  C   C1025     1.0  0.72856  0.02048  0.78982  1.0000
  C   C1026     1.0  0.64431  0.05807  0.74692  1.0000
  H   H1036     1.0  0.74562  0.02615  0.78677  1.0000
  S   S348      1.0  0.61103  0.99337  0.90318  1.0000
  C   C1027     1.0  0.92474  0.39887  0.80359  1.0000
  C   C1028     1.0  0.76918  0.12119  0.74487  1.0000
  H   H1037     1.0  0.73392  0.99560  0.81888  1.0000
  H   H1038     1.0  0.96704  0.35146  0.83109  1.0000
  H   H1039     1.0  0.68055  0.03023  0.76865  1.0000
  C   C1029     1.0  0.94533  0.38368  0.83288  1.0000
  C   C1030     1.0  0.68550  0.00506  0.79717  1.0000
  S   S349      1.0  0.62579  0.99596  0.77997  1.0000
  C   C1031     1.0  0.74903  0.24720  0.74775  1.0000
  C   C1032     1.0  0.95863  0.45100  0.78047  1.0000
  H   H1040     1.0  0.60058  0.00006  0.82369  1.0000
  C   C1033     1.0  0.81215  0.09997  0.75368  1.0000
  H   H1041     1.0  0.94808  0.46714  0.77569  1.0000
  H   H1042     1.0  0.73283  0.05801  0.75941  1.0000
  H   H1043     1.0  0.67164  0.24147  0.75148  1.0000
  H   H1044     1.0  0.94227  0.23587  0.77116  1.0000
  C   C1034     1.0  0.93489  0.37966  0.79443  1.0000
  C   C1035     1.0  0.91349  0.23203  0.75808  1.0000
  H   H1045     1.0  0.61287  0.03967  0.92556  1.0000
  S   S350      1.0  0.60603  0.25732  0.75736  1.0000
  H   H1046     1.0  0.75404  0.23233  0.76035  1.0000
  H   H1047     1.0  0.56391  0.20252  0.75212  1.0000
  C   C1036     1.0  0.61933  0.05027  0.95304  1.0000
  C   C1037     1.0  0.89365  0.22116  0.76179  1.0000
  H   H1048     1.0  0.64755  0.18212  0.74437  1.0000
  H   H1049     1.0  0.74358  0.26296  0.75475  1.0000
  C   C1038     1.0  0.65725  0.01199  0.74348  1.0000
  S   S351      1.0  0.77267  0.00252  0.74340  1.0000
  H   H1050     1.0  0.79645  0.09998  0.78735  1.0000
  S   S352      1.0  0.98230  0.21054  0.78734  1.0000
  S   S353      1.0  0.86457  0.18435  0.74479  1.0000
  C   C1039     1.0  0.70770  0.24449  0.75043  1.0000
  H   H1051     1.0  0.82915  0.09181  0.75686  1.0000
  H   H1052     1.0  0.98750  0.05628  0.75801  1.0000
  H   H1053     1.0  0.97622  0.39838  0.76734  1.0000
  H   H1054     1.0  0.88288  0.22516  0.74967  1.0000
  C   C1040     1.0  0.73239  0.98661  0.74418  1.0000
  C   C1041     1.0  0.61605  0.04588  0.97571  1.0000
  C   C1042     1.0  0.95077  0.06541  0.75794  1.0000
  C   C1043     1.0  0.98593  0.40932  0.79296  1.0000
  H   H1055     1.0  0.91376  0.16324  0.74663  1.0000
  C   C1044     1.0  0.68956  0.23947  0.74252  1.0000
  H   H1056     1.0  0.98351  0.28504  0.80692  1.0000
  C   C1045     1.0  0.97444  0.06380  0.74826  1.0000
  H   H1057     1.0  0.91581  0.07624  0.75278  1.0000
  H   H1058     1.0  0.62405  0.05594  0.98325  1.0000
  C   C1046     1.0  0.66118  0.00696  0.98724  1.0000
  H   H1059     1.0  0.91841  0.24417  0.74297  1.0000
  H   H1060     1.0  0.75236  0.12964  0.74165  1.0000
  H   H1061     1.0  0.69538  0.98188  0.82526  1.0000
  H   H1062     1.0  0.58459  0.00157  0.98857  1.0000
  N   N86       1.0  0.60382  0.02849  0.98820  1.0000
  S   S354      1.0  0.98766  0.17927  0.75063  1.0000
  H   H1063     1.0  0.53811  0.35729  0.74080  1.0000
  S   S355      1.0  0.50277  0.91202  0.19408  1.0000
  C   C1047     1.0  0.62783  0.92587  0.05470  1.0000
  Fe  Fe178     1.0  0.55865  0.94064  0.02527  1.0000
  Fe  Fe179     1.0  0.51587  0.91127  0.15870  1.0000
  C   C1048     1.0  0.60582  0.48911  0.15295  1.0000
  C   C1049     1.0  0.63681  0.93992  0.06463  1.0000
  H   H1064     1.0  0.64343  0.91727  0.00128  1.0000
  C   C1050     1.0  0.66181  0.91031  0.99527  1.0000
  Fe  Fe180     1.0  0.56094  0.58962  0.19955  1.0000
  S   S356      1.0  0.53550  0.56840  0.19608  1.0000
  S   S357      1.0  0.56327  0.62405  0.17698  1.0000
  H   H1065     1.0  0.50677  0.91297  0.10525  1.0000
  C   C1051     1.0  0.65131  0.92989  0.07948  1.0000
  Fe  Fe181     1.0  0.56430  0.53912  0.19748  1.0000
  H   H1066     1.0  0.55530  0.79808  0.11656  1.0000
  Fe  Fe182     1.0  0.54028  0.89481  0.04384  1.0000
  S   S358      1.0  0.59068  0.56112  0.19779  1.0000
  H   H1067     1.0  0.65350  0.87363  0.07726  1.0000
  C   C1052     1.0  0.64836  0.52245  0.18363  1.0000
  H   H1068     1.0  0.55271  0.83840  0.16327  1.0000
  S   S359      1.0  0.55164  0.93391  0.21376  1.0000
  S   S360      1.0  0.53417  0.92280  0.01537  1.0000
  S   S361      1.0  0.51642  0.77374  0.10428  1.0000
  N   N87       1.0  0.61925  0.95824  0.13116  1.0000
  H   H1069     1.0  0.62041  0.94011  0.16323  1.0000
  H   H1070     1.0  0.54828  0.84498  0.06470  1.0000
  H   H1071     1.0  0.66802  0.89815  0.09572  1.0000
  S   S362      1.0  0.62557  0.88391  0.04530  1.0000
  H   H1072     1.0  0.61666  0.93358  0.04323  1.0000
  C   C1053     1.0  0.51406  0.80308  0.09185  1.0000
  C   C1054     1.0  0.53421  0.81331  0.08102  1.0000
  C   C1055     1.0  0.53263  0.83709  0.07253  1.0000
  H   H1073     1.0  0.71350  0.97045  0.00331  1.0000
  C   C1056     1.0  0.51379  0.67899  0.16801  1.0000
  C   C1057     1.0  0.50065  0.84094  0.14788  1.0000
  H   H1074     1.0  0.55108  0.80289  0.07945  1.0000
  C   C1058     1.0  0.64858  0.89208  0.07387  1.0000
  S   S363      1.0  0.55152  0.58267  0.23595  1.0000
  C   C1059     1.0  0.53655  0.64218  0.17930  1.0000
  C   C1060     1.0  0.53519  0.66455  0.16670  1.0000
  H   H1075     1.0  0.53837  0.61761  0.14507  1.0000
  C   C1061     1.0  0.55025  0.82255  0.15935  1.0000
  Fe  Fe183     1.0  0.57892  0.55191  0.23400  1.0000
  C   C1062     1.0  0.66420  0.50640  0.17339  1.0000
  H   H1076     1.0  0.55073  0.67076  0.15600  1.0000
  C   C1063     1.0  0.54135  0.78298  0.14946  1.0000
  Fe  Fe184     1.0  0.53012  0.93512  0.18920  1.0000
  H   H1077     1.0  0.69689  0.94207  0.03568  1.0000
  S   S364      1.0  0.66258  0.94641  0.09279  1.0000
  H   H1078     1.0  0.53114  0.95094  0.06552  1.0000
  C   C1064     1.0  0.69767  0.97038  0.22738  1.0000
  C   C1065     1.0  0.55138  0.80025  0.13323  1.0000
  C   C1066     1.0  0.56435  0.83838  0.12062  1.0000
  H   H1079     1.0  0.75207  0.96425  0.20242  1.0000
  H   H1080     1.0  0.98160  0.92654  0.21338  1.0000
  C   C1067     1.0  0.57250  0.96736  0.18277  1.0000
  C   C1068     1.0  0.90561  0.94197  0.20333  1.0000
  H   H1081     1.0  0.52492  0.95585  0.10350  1.0000
  H   H1082     1.0  0.52687  0.77291  0.18362  1.0000
  Fe  Fe185     1.0  0.52027  0.96251  0.14624  1.0000
  C   C1069     1.0  0.52990  0.60238  0.14745  1.0000
  Fe  Fe186     1.0  0.59221  0.89774  0.03381  1.0000
  C   C1070     1.0  0.51640  0.63419  0.19306  1.0000
  C   C1071     1.0  0.57024  0.95531  0.20424  1.0000
  C   C1072     1.0  0.67036  0.96956  0.20532  1.0000
  C   C1073     1.0  0.56828  0.58069  0.13691  1.0000
  H   H1083     1.0  0.57692  0.56298  0.14226  1.0000
  H   H1084     1.0  0.55923  0.84302  0.99952  1.0000
  N   N88       1.0  0.66085  0.50536  0.21723  1.0000
  C   C1074     1.0  0.69446  0.94175  0.01963  1.0000
  C   C1075     1.0  0.67831  0.48980  0.18527  1.0000
  H   H1085     1.0  0.66537  0.89283  0.00523  1.0000
  S   S365      1.0  0.51976  0.88014  0.14378  1.0000
  S   S366      1.0  0.57059  0.51713  0.17271  1.0000
  Fe  Fe187     1.0  0.56629  0.90460  0.99734  1.0000
  C   C1076     1.0  0.91757  0.95000  0.23449  1.0000
  C   C1077     1.0  0.67630  0.48941  0.20735  1.0000
  H   H1086     1.0  0.49578  0.61970  0.15889  1.0000
  H   H1087     1.0  0.53758  0.76782  0.14519  1.0000
  S   S367      1.0  0.50792  0.88019  0.06378  1.0000
  C   C1078     1.0  0.59098  0.96705  0.10838  1.0000
  H   H1088     1.0  0.53488  0.80833  0.19258  1.0000
  H   H1089     1.0  0.64847  0.94680  0.14646  1.0000
  H   H1090     1.0  0.59823  0.49584  0.13873  1.0000
  N   N89       1.0  0.55561  0.81977  0.13824  1.0000
  C   C1079     1.0  0.63142  0.94157  0.14660  1.0000
  H   H1091     1.0  0.91136  0.94948  0.18581  1.0000
  H   H1092     1.0  0.49968  0.54804  0.15735  1.0000
  H   H1093     1.0  0.63080  0.96087  0.00069  1.0000
  C   C1080     1.0  0.59562  0.49659  0.17233  1.0000
  H   H1094     1.0  0.50436  0.53544  0.21363  1.0000
  H   H1095     1.0  0.73904  0.97270  0.13591  1.0000
  H   H1096     1.0  0.90200  0.92409  0.20510  1.0000
  C   C1081     1.0  0.64692  0.52168  0.20569  1.0000
  Fe  Fe188     1.0  0.52818  0.55901  0.23217  1.0000
  C   C1082     1.0  0.53505  0.96644  0.06873  1.0000
  C   C1083     1.0  0.64017  0.97474  0.99063  1.0000
  N   N90       1.0  0.71516  0.97315  0.20928  1.0000
  C   C1084     1.0  0.68136  0.92580  0.01706  1.0000
  N   N91       1.0  0.54283  0.58196  0.14387  1.0000
  H   H1097     1.0  0.95096  0.92764  0.19270  1.0000
  H   H1098     1.0  0.57926  0.83151  0.10886  1.0000
  H   H1099     1.0  0.52549  0.85264  0.02816  1.0000
  C   C1085     1.0  0.50574  0.60366  0.15523  1.0000
  C   C1086     1.0  0.53095  0.96947  0.09022  1.0000
  H   H1100     1.0  0.66496  0.50623  0.15649  1.0000
  C   C1087     1.0  0.50215  0.85856  0.15809  1.0000
  C   C1088     1.0  0.63398  0.90190  0.05918  1.0000
  C   C1089     1.0  0.60332  0.95129  0.12261  1.0000
  C   C1090     1.0  0.60550  0.48765  0.19073  1.0000
  S   S368      1.0  0.59051  0.92546  0.00420  1.0000
  H   H1101     1.0  0.50938  0.84122  0.13115  1.0000
  C   C1091     1.0  0.54171  0.84121  0.99845  1.0000
  C   C1092     1.0  0.65686  0.90597  0.08425  1.0000
  C   C1093     1.0  0.54009  0.80563  0.17601  1.0000
  C   C1094     1.0  0.70385  0.95753  0.00150  1.0000
  H   H1102     1.0  0.63230  0.95840  0.06101  1.0000
  H   H1103     1.0  0.51732  0.61701  0.20291  1.0000
  H   H1104     1.0  0.55015  0.84721  0.11195  1.0000
  S   S369      1.0  0.57081  0.87532  0.02518  1.0000
  H   H1105     1.0  0.57034  0.85158  0.12683  1.0000
  H   H1106     1.0  0.60021  0.93344  0.12665  1.0000
  H   H1107     1.0  0.54235  0.54664  0.14367  1.0000
  H   H1108     1.0  0.57315  0.58575  0.11897  1.0000
  C   C1095     1.0  0.53551  0.78578  0.17098  1.0000
  S   S370      1.0  0.54565  0.93134  0.15482  1.0000
  H   H1109     1.0  0.57845  0.96146  0.10154  1.0000
  H   H1110     1.0  0.49172  0.92084  0.08292  1.0000
  H   H1111     1.0  0.74061  0.97275  0.22816  1.0000
  H   H1112     1.0  0.63538  0.92442  0.14199  1.0000
  S   S371      1.0  0.56212  0.91416  0.05550  1.0000
  H   H1113     1.0  0.67399  0.91372  0.03123  1.0000
  C   C1096     1.0  0.53212  0.56281  0.14664  1.0000
  H   H1114     1.0  0.63686  0.53504  0.17469  1.0000
  C   C1097     1.0  0.51081  0.85053  0.07440  1.0000
  C   C1098     1.0  0.49499  0.64851  0.19420  1.0000
  H   H1115     1.0  0.56245  0.96394  0.17224  1.0000
  C   C1099     1.0  0.52255  0.84680  0.01450  1.0000
  H   H1116     1.0  0.72461  0.97630  0.17494  1.0000
  C   C1100     1.0  0.67502  0.96867  0.22567  1.0000
  H   H1117     1.0  0.51286  0.69627  0.15833  1.0000
  H   H1118     1.0  0.57519  0.59225  0.14440  1.0000
  H   H1119     1.0  0.68483  0.97324  0.17102  1.0000
  C   C1101     1.0  0.71076  0.97402  0.18926  1.0000
  C   C1102     1.0  0.58294  0.96040  0.21791  1.0000
  N   N92       1.0  0.50036  0.84546  0.01274  1.0000
  C   C1103     1.0  0.94620  0.93378  0.20783  1.0000
  S   S372      1.0  0.55468  0.52744  0.23349  1.0000
  C   C1104     1.0  0.49368  0.67096  0.18179  1.0000
  N   N93       1.0  0.92355  0.94218  0.21543  1.0000
  C   C1105     1.0  0.96356  0.93307  0.21941  1.0000
  H   H1120     1.0  0.63444  0.53410  0.21358  1.0000
  C   C1106     1.0  0.50798  0.56348  0.15437  1.0000
  N   N94       1.0  0.67753  0.92567  0.99706  1.0000
  S   S373      1.0  0.50659  0.96758  0.18040  1.0000
  H   H1121     1.0  0.59761  0.49332  0.20579  1.0000
  H   H1122     1.0  0.49205  0.87113  0.18791  1.0000
  C   C1107     1.0  0.49478  0.58399  0.15891  1.0000
  C   C1108     1.0  0.68835  0.97218  0.18696  1.0000
  H   H1123     1.0  0.65275  0.96878  0.20370  1.0000
  H   H1124     1.0  0.88895  0.95252  0.20910  1.0000
  C   C1109     1.0  0.59807  0.97738  0.20997  1.0000
  C   C1110     1.0  0.73858  0.97614  0.21100  1.0000
  H   H1125     1.0  0.66110  0.96731  0.24005  1.0000
  H   H1126     1.0  0.58102  0.95121  0.23461  1.0000
  S   S374      1.0  0.55227  0.97863  0.02480  1.0000
  C   C1111     1.0  0.62312  0.98079  0.12611  1.0000
  S   S375      1.0  0.49185  0.74951  0.16433  1.0000
  S   S376      1.0  0.49188  0.94225  0.14667  1.0000
  C   C1112     1.0  0.49663  0.83806  0.99550  1.0000
  C   C1113     1.0  0.95760  0.94102  0.23882  1.0000
  C   C1114     1.0  0.49227  0.81649  0.09298  1.0000
  C   C1115     1.0  0.58438  0.50198  0.32257  1.0000
  H   H1127     1.0  0.57121  0.51902  0.38154  1.0000
  H   H1128     1.0  0.65757  0.52199  0.24362  1.0000
  H   H1129     1.0  0.63178  0.52326  0.28767  1.0000
  H   H1130     1.0  0.52446  0.60583  0.46496  1.0000
  C   C1116     1.0  0.57282  0.52805  0.41157  1.0000
  C   C1117     1.0  0.60729  0.50717  0.31482  1.0000
  C   C1118     1.0  0.57476  0.52179  0.28787  1.0000
  C   C1119     1.0  0.52777  0.62482  0.48806  1.0000
  H   H1131     1.0  0.57921  0.54439  0.40377  1.0000
  C   C1120     1.0  0.59781  0.52665  0.28006  1.0000
  C   C1121     1.0  0.51220  0.54135  0.42775  1.0000
  C   C1122     1.0  0.55952  0.49317  0.40954  1.0000
  C   C1123     1.0  0.49554  0.50494  0.46006  1.0000
  H   H1132     1.0  0.67306  0.49341  0.24712  1.0000
  H   H1133     1.0  0.55596  0.48241  0.39972  1.0000
  H   H1134     1.0  0.57209  0.53212  0.44402  1.0000
  C   C1124     1.0  0.61402  0.51933  0.29357  1.0000
  H   H1135     1.0  0.50226  0.52302  0.48257  1.0000
  C   C1125     1.0  0.98377  0.93628  0.47285  1.0000
  C   C1126     1.0  0.56823  0.51394  0.39913  1.0000
  H   H1136     1.0  0.55026  0.50566  0.31514  1.0000
  C   C1127     1.0  0.93451  0.94967  0.24638  1.0000
  S   S377      1.0  0.51089  0.50598  0.36842  1.0000
  S   S378      1.0  0.57685  0.48561  0.34887  1.0000
  S   S379      1.0  0.98254  0.94714  0.44545  1.0000
  C   C1128     1.0  0.51195  0.54104  0.44950  1.0000
  H   H1137     1.0  0.61988  0.50176  0.32524  1.0000
  C   C1129     1.0  0.56806  0.50937  0.30913  1.0000
  C   C1130     1.0  0.56891  0.52115  0.43413  1.0000
  H   H1138     1.0  0.51875  0.55536  0.41518  1.0000
  C   C1131     1.0  0.50321  0.52304  0.46569  1.0000
  H   H1139     1.0  0.92985  0.95664  0.26109  1.0000
  S   S380      1.0  0.99069  0.97903  0.25723  1.0000
  H   H1140     1.0  0.50531  0.52339  0.40534  1.0000
  S   S381      1.0  0.52394  0.56250  0.45601  1.0000
  C   C1132     1.0  0.49676  0.50470  0.43823  1.0000
  H   H1141     1.0  0.56209  0.52770  0.27760  1.0000
  H   H1142     1.0  0.96035  0.91155  0.47630  1.0000
  C   C1133     1.0  0.56015  0.50030  0.44400  1.0000
  S   S382      1.0  0.60702  0.54147  0.25343  1.0000
  Fe  Fe189     1.0  0.53391  0.55124  0.48862  1.0000
  C   C1134     1.0  0.97015  0.91895  0.48455  1.0000
  H   H1143     1.0  0.55684  0.49523  0.46157  1.0000
  H   H1144     1.0  0.51366  0.51476  0.27274  1.0000
  H   H1145     1.0  0.97093  0.94062  0.24788  1.0000
  C   C1135     1.0  0.51524  0.61391  0.47845  1.0000
  C   C1136     1.0  0.49768  0.50622  0.27985  1.0000
  C   C1137     1.0  0.50477  0.52312  0.42212  1.0000
  H   H1146     1.0  0.70099  0.96987  0.24327  1.0000
  C   C1138     1.0  0.50839  0.48609  0.24939  1.0000
  H   H1147     1.0  0.52663  0.48637  0.24917  1.0000
  H   H1148     1.0  0.54647  0.62490  0.48233  1.0000
  H   H1149     1.0  0.64175  0.49761  0.24955  1.0000
  H   H1150     1.0  0.50056  0.49281  0.29431  1.0000
  N   N95       1.0  0.55529  0.48676  0.43172  1.0000
  N   N96       1.0  0.49184  0.61298  0.48625  1.0000
  H   H1151     1.0  0.89972  0.95708  0.24038  1.0000
  C   C1139     1.0  0.65828  0.50445  0.24051  1.0000
  C   C1140     1.0  0.49594  0.54418  0.61359  1.0000
  C   C1141     1.0  0.92265  0.95625  0.56916  1.0000
  C   C1142     1.0  0.51337  0.54752  0.59488  1.0000
  S   S383      1.0  0.55498  0.53379  0.54306  1.0000
  C   C1143     1.0  0.49260  0.48987  0.60341  1.0000
  H   H1152     1.0  0.52640  0.51665  0.68938  1.0000
  Fe  Fe190     1.0  0.67570  0.94099  0.73621  1.0000
  N   N97       1.0  0.92883  0.96858  0.54662  1.0000
  C   C1144     1.0  0.93803  0.96848  0.50840  1.0000
  C   C1145     1.0  0.49302  0.63056  0.58284  1.0000
  S   S384      1.0  0.70943  0.94791  0.71197  1.0000
  N   N98       1.0  0.58891  0.87818  0.68082  1.0000
  C   C1146     1.0  0.53091  0.48890  0.57999  1.0000
  S   S385      1.0  0.64048  0.96091  0.73365  1.0000
  H   H1153     1.0  0.62111  0.89133  0.66636  1.0000
  H   H1154     1.0  0.54376  0.56406  0.57880  1.0000
  Fe  Fe191     1.0  0.52223  0.52690  0.53534  1.0000
  H   H1155     1.0  0.60351  0.90476  0.68820  1.0000
  C   C1147     1.0  0.76467  0.97708  0.71580  1.0000
  H   H1156     1.0  0.90860  0.94931  0.65271  1.0000
  C   C1148     1.0  0.50412  0.73446  0.71587  1.0000
  C   C1149     1.0  0.50197  0.56114  0.71489  1.0000
  H   H1157     1.0  0.75769  0.95593  0.69579  1.0000
  H   H1158     1.0  0.93056  0.93881  0.53350  1.0000
  H   H1159     1.0  0.92773  0.96485  0.58051  1.0000
  H   H1160     1.0  0.51374  0.53929  0.58156  1.0000
  C   C1150     1.0  0.53336  0.62831  0.56345  1.0000
  S   S386      1.0  0.49820  0.64885  0.68365  1.0000
  S   S387      1.0  0.57637  0.82113  0.73519  1.0000
  C   C1151     1.0  0.54696  0.58755  0.60831  1.0000
  H   H1161     1.0  0.53823  0.60443  0.61216  1.0000
  H   H1162     1.0  0.54705  0.54778  0.66379  1.0000
  S   S388      1.0  0.59581  0.92114  0.73477  1.0000
  C   C1152     1.0  0.59035  0.89305  0.73635  1.0000
  H   H1163     1.0  0.52798  0.74796  0.66188  1.0000
  S   S389      1.0  0.51028  0.71129  0.65204  1.0000
  C   C1153     1.0  0.53026  0.56161  0.59342  1.0000
  S   S390      1.0  0.51650  0.65461  0.63051  1.0000
  H   H1164     1.0  0.96395  0.97822  0.68115  1.0000
  C   C1154     1.0  0.50288  0.48172  0.62163  1.0000
  H   H1165     1.0  0.55417  0.62087  0.69202  1.0000
  H   H1166     1.0  0.55844  0.57946  0.62004  1.0000
  N   N99       1.0  0.54790  0.65504  0.69811  1.0000
  H   H1167     1.0  0.90355  0.95551  0.57386  1.0000
  Fe  Fe192     1.0  0.53961  0.81586  0.73538  1.0000
  S   S391      1.0  0.54183  0.59653  0.66250  1.0000
  H   H1168     1.0  0.52904  0.63186  0.72392  1.0000
  C   C1155     1.0  0.51620  0.63498  0.50561  1.0000
  C   C1156     1.0  0.56753  0.66877  0.65439  1.0000
  C   C1157     1.0  0.51501  0.63798  0.57804  1.0000
  C   C1158     1.0  0.53701  0.64799  0.72105  1.0000
  C   C1159     1.0  0.52928  0.57405  0.68167  1.0000
  H   H1169     1.0  0.54435  0.69049  0.69983  1.0000
  C   C1160     1.0  0.49567  0.70800  0.69628  1.0000
  S   S392      1.0  0.86311  0.97134  0.66808  1.0000
  C   C1161     1.0  0.56512  0.86802  0.73110  1.0000
  H   H1170     1.0  0.50524  0.58962  0.55191  1.0000
  C   C1162     1.0  0.55087  0.85902  0.67754  1.0000
  C   C1163     1.0  0.52992  0.61085  0.55398  1.0000
  N   N100      1.0  0.52942  0.57256  0.60995  1.0000
  C   C1164     1.0  0.52276  0.53395  0.69246  1.0000
  C   C1165     1.0  0.55046  0.67771  0.68969  1.0000
  H   H1171     1.0  0.51769  0.65169  0.58505  1.0000
  Fe  Fe193     1.0  0.50873  0.77954  0.73743  1.0000
  H   H1172     1.0  0.55024  0.63442  0.55947  1.0000
  S   S393      1.0  0.49456  0.50920  0.56046  1.0000
  S   S394      1.0  0.51284  0.56319  0.51853  1.0000
  S   S395      1.0  0.55315  0.59943  0.53549  1.0000
  C   C1166     1.0  0.56017  0.68493  0.66771  1.0000
  C   C1167     1.0  0.50777  0.71988  0.67677  1.0000
  H   H1173     1.0  0.49426  0.78852  0.66049  1.0000
  C   C1168     1.0  0.58093  0.84872  0.73685  1.0000
  C   C1169     1.0  0.54979  0.88283  0.67477  1.0000
  C   C1170     1.0  0.56994  0.89010  0.73060  1.0000
  H   H1174     1.0  0.53587  0.85153  0.67662  1.0000
  C   C1171     1.0  0.75051  0.96472  0.70917  1.0000
  H   H1175     1.0  0.94111  0.96295  0.62349  1.0000
  C   C1172     1.0  0.59023  0.85484  0.68323  1.0000
  C   C1173     1.0  0.50651  0.53876  0.71091  1.0000
  S   S396      1.0  0.98723  0.97558  0.54902  1.0000
  Fe  Fe194     1.0  0.54709  0.56907  0.52377  1.0000
  C   C1174     1.0  0.96881  0.91140  0.50692  1.0000
  C   C1175     1.0  0.56569  0.64558  0.66329  1.0000
  H   H1176     1.0  0.52265  0.66137  0.72626  1.0000
  S   S397      1.0  0.56753  0.56036  0.49216  1.0000
  C   C1176     1.0  0.51836  0.73884  0.67690  1.0000
  Fe  Fe195     1.0  0.49803  0.67725  0.65420  1.0000
  C   C1177     1.0  0.51292  0.57888  0.70001  1.0000
  H   H1177     1.0  0.57437  0.67427  0.63716  1.0000
  H   H1178     1.0  0.51200  0.57775  0.64158  1.0000
  C   C1178     1.0  0.55593  0.63893  0.68536  1.0000
  S   S398      1.0  0.97579  0.91398  0.54630  1.0000
  S   S399      1.0  0.53110  0.80090  0.70974  1.0000
  H   H1179     1.0  0.94105  0.95919  0.49530  1.0000
  C   C1179     1.0  0.50802  0.60316  0.55904  1.0000
  H   H1180     1.0  0.55794  0.59097  0.59169  1.0000
  C   C1180     1.0  0.56915  0.89220  0.67634  1.0000
  S   S400      1.0  0.97354  0.93980  0.59584  1.0000
  H   H1181     1.0  0.54171  0.49105  0.56390  1.0000
  C   C1181     1.0  0.49554  0.55498  0.63056  1.0000
  Fe  Fe196     1.0  0.51335  0.62602  0.65966  1.0000
  H   H1182     1.0  0.50879  0.59627  0.70283  1.0000
  S   S401      1.0  0.51001  0.84468  0.73469  1.0000
  H   H1183     1.0  0.56113  0.70308  0.66087  1.0000
  H   H1184     1.0  0.57217  0.82635  0.68444  1.0000
  C   C1182     1.0  0.57123  0.84492  0.68174  1.0000
  C   C1183     1.0  0.60906  0.88823  0.68242  1.0000
  C   C1184     1.0  0.88504  0.98032  0.64589  1.0000
  C   C1185     1.0  0.98062  0.92153  0.51785  1.0000
  H   H1185     1.0  0.57132  0.63283  0.65309  1.0000
  Fe  Fe197     1.0  0.57237  0.52418  0.51103  1.0000
  H   H1186     1.0  0.55025  0.64521  0.73128  1.0000
  H   H1187     1.0  0.52462  0.76085  0.69628  1.0000
  Fe  Fe198     1.0  0.49278  0.48780  0.71229  1.0000
  C   C1186     1.0  0.51640  0.74622  0.69637  1.0000
  S   S402      1.0  0.54030  0.51429  0.50493  1.0000
  H   H1188     1.0  0.52585  0.64312  0.51346  1.0000
  H   H1189     1.0  0.95799  0.89818  0.51587  1.0000
  C   C1187     1.0  0.53449  0.55154  0.67803  1.0000
  C   C1188     1.0  0.49392  0.71521  0.71580  1.0000
  H   H1190     1.0  0.60568  0.84362  0.68721  1.0000
  H   H1191     1.0  0.53394  0.89388  0.67162  1.0000
  H   H1192     1.0  0.56812  0.91071  0.67438  1.0000
  C   C1189     1.0  0.93204  0.95708  0.53004  1.0000
  S   S403      1.0  0.60631  0.50165  0.50311  1.0000
  C   C1190     1.0  0.50671  0.49418  0.58264  1.0000
  H   H1193     1.0  0.61866  0.87662  0.69447  1.0000
  C   C1191     1.0  0.51247  0.56927  0.62841  1.0000
  C   C1192     1.0  0.92449  0.97354  0.62536  1.0000
  C   C1193     1.0  0.72716  0.96360  0.71995  1.0000
  H   H1194     1.0  0.54967  0.86607  0.72610  1.0000
  Fe  Fe199     1.0  0.49983  0.82774  0.71155  1.0000
  C   C1194     1.0  0.90616  0.96598  0.64216  1.0000
  H   H1195     1.0  0.93206  0.93844  0.57124  1.0000
  H   H1196     1.0  0.58333  0.49010  0.54825  1.0000
  C   C1195     1.0  0.71813  0.97508  0.73710  1.0000
  H   H1197     1.0  0.78275  0.97751  0.70769  1.0000
  H   H1198     1.0  0.91166  0.97276  0.68507  1.0000
  Fe  Fe200     1.0  0.97475  0.97779  0.58409  1.0000
  H   H1199     1.0  0.55783  0.90499  0.72568  1.0000
  Fe  Fe201     1.0  0.98918  0.93759  0.56130  1.0000
  C   C1196     1.0  0.54119  0.48119  0.59814  1.0000
  C   C1197     1.0  0.49243  0.63368  0.51367  1.0000
  C   C1198     1.0  0.50564  0.94613  0.93308  1.0000
  C   C1199     1.0  0.51788  0.89127  0.77168  1.0000
  H   H1200     1.0  0.49241  0.94091  0.94800  1.0000
  H   H1201     1.0  0.55721  0.88149  0.85683  1.0000
  H   H1202     1.0  0.59297  0.90222  0.89815  1.0000
  C   C1200     1.0  0.55345  0.92010  0.79566  1.0000
  C   C1201     1.0  0.56958  0.95402  0.94749  1.0000
  H   H1203     1.0  0.66548  0.95309  0.83658  1.0000
  C   C1202     1.0  0.51539  0.83229  0.97918  1.0000
  C   C1203     1.0  0.57326  0.88441  0.86040  1.0000
  C   C1204     1.0  0.61497  0.88479  0.85091  1.0000
  S   S404      1.0  0.64476  0.94490  0.89841  1.0000
  C   C1205     1.0  0.67458  0.93619  0.83577  1.0000
  H   H1204     1.0  0.63536  0.89279  0.89205  1.0000
  S   S405      1.0  0.50512  0.90816  0.88682  1.0000
  S   S406      1.0  0.67321  0.94459  0.77031  1.0000
  C   C1206     1.0  0.56912  0.96093  0.86653  1.0000
  S   S407      1.0  0.56951  0.89607  0.96459  1.0000
  Fe  Fe202     1.0  0.67153  0.96566  0.87572  1.0000
  C   C1207     1.0  0.54421  0.88417  0.93976  1.0000
  C   C1208     1.0  0.59356  0.89573  0.88371  1.0000
  C   C1209     1.0  0.69798  0.89225  0.83273  1.0000
  H   H1205     1.0  0.77321  0.95977  0.78492  1.0000
  S   S408      1.0  0.52023  0.79166  0.76313  1.0000
  Fe  Fe203     1.0  0.65702  0.91203  0.78008  1.0000
  C   C1210     1.0  0.49243  0.92040  0.78904  1.0000
  C   C1211     1.0  0.63590  0.89640  0.87430  1.0000
  S   S409      1.0  0.62043  0.93010  0.78207  1.0000
  C   C1212     1.0  0.51167  0.92593  0.79490  1.0000
  C   C1213     1.0  0.69392  0.92797  0.84544  1.0000
  H   H1206     1.0  0.56659  0.93659  0.84779  1.0000
  H   H1207     1.0  0.70698  0.96958  0.96696  1.0000
  H   H1208     1.0  0.55621  0.89552  0.89019  1.0000
  C   C1214     1.0  0.51784  0.84780  0.81166  1.0000
  C   C1215     1.0  0.55716  0.94955  0.85684  1.0000
  C   C1216     1.0  0.59448  0.88084  0.84603  1.0000
  H   H1209     1.0  0.54845  0.93753  0.90987  1.0000
  H   H1210     1.0  0.53655  0.84338  0.80996  1.0000
  N   N101      1.0  0.61436  0.89178  0.86972  1.0000
  H   H1211     1.0  0.55365  0.88704  0.77469  1.0000
  H   H1212     1.0  0.63136  0.88221  0.83956  1.0000
  C   C1217     1.0  0.54345  0.89148  0.95894  1.0000
  Fe  Fe204     1.0  0.63730  0.96242  0.76852  1.0000
  C   C1218     1.0  0.56954  0.94657  0.92863  1.0000
  H   H1213     1.0  0.65218  0.92943  0.81693  1.0000
  S   S410      1.0  0.67096  0.88557  0.80624  1.0000
  C   C1219     1.0  0.67890  0.90088  0.82269  1.0000
  H   H1214     1.0  0.55079  0.93825  0.79773  1.0000
  C   C1220     1.0  0.64324  0.97864  0.96793  1.0000
  N   N102      1.0  0.53349  0.91454  0.78905  1.0000
  H   H1215     1.0  0.70721  0.87533  0.83134  1.0000
  C   C1221     1.0  0.52757  0.95601  0.95671  1.0000
  S   S411      1.0  0.52093  0.87641  0.83794  1.0000
  C   C1222     1.0  0.53663  0.89699  0.77812  1.0000
  C   C1223     1.0  0.66712  0.92275  0.82440  1.0000
  C   C1224     1.0  0.50571  0.83802  0.80056  1.0000
  H   H1216     1.0  0.56080  0.88108  0.92893  1.0000
  H   H1217     1.0  0.70005  0.97543  0.74481  1.0000
  H   H1218     1.0  0.59509  0.87514  0.83115  1.0000
  C   C1225     1.0  0.53294  0.95435  0.85933  1.0000
  S   S412      1.0  0.70332  0.94535  0.85925  1.0000
  C   C1226     1.0  0.54834  0.94367  0.92437  1.0000
  H   H1219     1.0  0.72065  0.89946  0.85137  1.0000
  H   H1220     1.0  0.62190  0.87595  0.74688  1.0000
  H   H1221     1.0  0.52444  0.87379  0.92044  1.0000
  C   C1227     1.0  0.52367  0.88019  0.93491  1.0000
  S   S413      1.0  0.59870  0.95148  0.86590  1.0000
  H   H1222     1.0  0.63822  0.91477  0.86763  1.0000
  H   H1223     1.0  0.65142  0.88557  0.86682  1.0000
  C   C1228     1.0  0.57272  0.89206  0.87928  1.0000
  C   C1229     1.0  0.49564  0.90304  0.77722  1.0000
  H   H1224     1.0  0.58586  0.94253  0.91767  1.0000
  S   S414      1.0  0.63268  0.96070  0.95557  1.0000
  C   C1230     1.0  0.70569  0.90596  0.84387  1.0000
  C   C1231     1.0  0.72718  0.90449  0.76137  1.0000
  H   H1225     1.0  0.71559  0.89503  0.77558  1.0000
  C   C1232     1.0  0.52207  0.89480  0.97328  1.0000
  H   H1226     1.0  0.52372  0.94519  0.85212  1.0000
  H   H1227     1.0  0.51513  0.82597  0.79052  1.0000
  H   H1228     1.0  0.56964  0.91807  0.78304  1.0000
  H   H1229     1.0  0.52042  0.87713  0.76327  1.0000
  C   C1233     1.0  0.50578  0.86333  0.82480  1.0000
  N   N103      1.0  0.74001  0.91940  0.76804  1.0000
  C   C1234     1.0  0.76109  0.92493  0.75562  1.0000
  H   H1230     1.0  0.61382  0.83680  0.74687  1.0000
  C   C1235     1.0  0.54848  0.95887  0.96162  1.0000
  C   C1236     1.0  0.76397  0.94821  0.78039  1.0000
  H   H1231     1.0  0.73462  0.94963  0.80733  1.0000
  H   H1232     1.0  0.68338  0.94125  0.96334  1.0000
  H   H1233     1.0  0.55270  0.83026  0.96781  1.0000
  N   N104      1.0  0.52773  0.94829  0.93837  1.0000
  C   C1237     1.0  0.68697  0.94085  0.97913  1.0000
  S   S415      1.0  0.66207  0.90661  0.74604  1.0000
  C   C1238     1.0  0.73035  0.92853  0.78611  1.0000
  C   C1239     1.0  0.74227  0.94280  0.79275  1.0000
  H   H1234     1.0  0.71330  0.92487  0.79544  1.0000
  H   H1235     1.0  0.58598  0.95552  0.95139  1.0000
  H   H1236     1.0  0.50798  0.93274  0.92321  1.0000
  C   C1240     1.0  0.70029  0.95698  0.98107  1.0000
  H   H1237     1.0  0.51124  0.95975  0.96779  1.0000
  Fe  Fe205     1.0  0.62637  0.92703  0.74713  1.0000
  C   C1241     1.0  0.77348  0.93923  0.76171  1.0000
  C   C1242     1.0  0.52061  0.97065  0.87142  1.0000
  H   H1238     1.0  0.51224  0.82734  0.96513  1.0000
  H   H1239     1.0  0.78997  0.94402  0.75161  1.0000
  H   H1240     1.0  0.52133  0.90008  0.98823  1.0000
  C   C1243     1.0  0.53805  0.83400  0.98066  1.0000
  Fe  Fe206     1.0  0.63935  0.97127  0.91901  1.0000
  Fe  Fe207     1.0  0.61959  0.96895  0.88030  1.0000
  H   H1241     1.0  0.55597  0.90848  0.81123  1.0000
  H   H1242     1.0  0.66352  0.90859  0.97821  1.0000
  H   H1243     1.0  0.54838  0.96448  0.97644  1.0000
  H   H1244     1.0  0.49871  0.96276  0.92360  1.0000
  C   C1244     1.0  0.50151  0.89079  0.96847  1.0000
  H   H1245     1.0  0.73929  0.89142  0.75319  1.0000
  Fe  Fe208     1.0  0.49475  0.89475  0.86148  1.0000
  C   C1245     1.0  0.50229  0.88352  0.94925  1.0000
  C   C1246     1.0  0.55706  0.97818  0.87767  1.0000
  H   H1246     1.0  0.50899  0.93913  0.80443  1.0000
  H   H1247     1.0  0.71629  0.91500  0.74994  1.0000
  C   C1247     1.0  0.60604  0.87379  0.74252  1.0000
  H   H1248     1.0  0.76824  0.91861  0.74070  1.0000
  S   S416      1.0  0.50162  0.74323  0.74050  1.0000
  C   C1248     1.0  0.60143  0.85167  0.74252  1.0000
