data_image0
_chemical_formula_structural       HFeS2FeSCHCHSC2HFeS2FeSFeS3HCHCNC7H4CH2CHC2H2C6H2CHC2H3NCFeH3C2H5CSC4FeCH2CS2HNHFeSCH5CFeSC3HNCFeSFeS2FeSFeS3FeS2FeS2FeS2FeS2FeSFeS3FeS2FeS2FeSFeS3HC3H3CHC7H6C6H4CHCH2C6H5C5H3C7H4C3H4C3H2CH3NC6H8NC2HC4H2CH5NCH2CH5CHFeC3HSCH2C2HCNCH2CHNHSH4CHCHCNCH2C2H2C2HCHCH2C2HCNH3CHCH3CHC6H4C2S2CHCHCNFeS2FeS2FeSFeS2HFeS2FeS2Fe2S4CH4CFeCHCH2C6H4C2H2C7H4C6H2CH2C2HCHNC2HCH3C3HCN2SC2NC6H8CHCHC2H6CH6C2HCHSHNHFeS2FeSFeSFeS3FeS2Fe2S2FeS2FeS2FeSFeS3FeS2FeS2FeSFeS4H2C3H2CH2CH2C7H4C8H4C2H3C6H5C6H4NHC6H6CH3CH8NCHC4HCH5CH2CHC2NH2CHC2H2SCH3C2NC6H8CH5CHC5N2CHSH3C2H2C4HSNC3HC5HCSNC2H2C3H3C4HCHFeS2CHCFeSCSHSFeS2FeHFeS2FeS2FeS2FeSFeS3FeS2FeS2FeSFeS3CNCHCNHC2H2C3H2C2HCH4C10H4NCSC6H4C6H4CHCSHC6H4C2H2C2HCH3C2H3C2H2C6H3C2HCH2NCH2CHC2FeC2H3CH3CNHCH3CSC3H2NH2NCH2C2H5FeHCHNCSC2H3CH5C2H4C2H2CHC2H3C2HC2SHSFeS2CHS2CHFeS2FeSFeHS2H4FeCHCHC6H5CHC6SHNHC6H3CHC3HCSC2HC4HCNCNHFeSFe2CH4CHCHC2SCH4CH3CH4SHFeCHS2CFeS2FeS2FeSFeS3FeS2FeS2FeSFeS3CHSFeS2FeSCFeSFeS3CHNHC3SH3C2HSC3H3C6H5C6H4CH3C6HCH2CH3C7H4C6H7NC6H8CHSCHFeC3SHCHCNHCH2CFeCHCH3CHC2N2FeHCSHCNH2CHC8H3C3NH2CHCHCHCHCH5C2H3C2HC2NH4CH2SHCHCH2C2H6CHFeS2FeSFeSFeS3CHSHSC3HFeS2FeCFeSFeS3CH2SC7H3NCH3C2H3C6H4C6H4NC6H10NHCHC3H2C3H3CHCSHCH3S2CH2CHFeCH2SHC2SC2SCFeS2FeHSFeS2CFeS2FeS2FeS2C6H4C4HC7H4C2HCHCHCH6C2HFeH6C2H2CHNSHC2H2CSNHCHC2H3NC3H3SC2NH3C2H4C2H2CH2CHSCFeHSFeS2FeSCFeS2Fe2SHSFeS2FeS2FeSFeS3FeS2FeS2FeSFeS3C6H4C6H4C6H4C7H3C6H2CHCSHC4H2CHCHC2H2SC2HNH3C4SCHNCHCHC2HCHC2NH5CSH2SHSHC2HC3H2CHCH2SCH4CH4CH2FeHC2NH4C3H2NC3H4C4H2CNC4H2C2HCH4NHC2HC2H3C3HC2FeCFeS2FeS2FeSFeS2H2CSC2FeS2FeS2HFeS3C7H3C6H4C6H5NCFeCNHC5H2CHC2H5CH2CSHCH3CFeSH2CNC2HC3H2CHC2H2SCH7CHC3H3CSFeS2FeS2FeSFeS3FeS2FeS2FeSFeS3FeS2NFeS2FeS2FeS2Fe2S3H2C6H4CHC6H4C6H4C6H4C6H4C2H7C2HNHCHCHCSH2CHNC6H8NH5C5NH3NH2C2H2C3H3CHNHC2HCHCHC2HCHCNC7HCH4C2H3CH2CHFeCNC6H2CH3C2HC3HCHCHSHCH4FeH5FeSFeS2FeS3FeCSFeHSFeSCS2FeS2FeS2FeSFeS3FeS2FeS2FeSFeS5C3HCFeCHC2HC2H3CHC6H4C6H4C6H3C7H4C6H5C2SH2C3HCHC3NH3NHCH3CH3CHCSC2HC2NHNC6H8NC6H8NC6H3CH4CHCH3CH6C3HCH5CSHNCH4CSHC2H2CHC3HNHC2FeS2FeHFeSC2SH2S4HNFeSCHC6H4C2SFeHC7HFeH2C8H2C4H2CSC2H3NS2NH2NHSFeHCH4CHCHSHC3H2FeH3CHCHCH4CH2FeS2FeS2FeSFeS3FeSFeS2FeSFeS3FeSHFeS2FeSFeS5HSH2SNC3SC6H4C6H4C6H4C6H4C6H5SCH4NHC2H4FeC2H2CH2NCHCHCH4CHC2HNC6H9NC4H5CHCHNCHCH2CHSFeH4NC4HSCH2CHCHC3HFeHC4H2SC2NCSHC2HC3H2CFeH2C4HCHCHCHCH2C4HNHCH2C2H2FeS2FeS2FeSCS2FeS2FeS2FeSFeS2H2C3H3SC7H4C6H4C3NHCH4C2HCHNC5H4NHC4HCFeH3CH4CH2C2HCH2CNCHCH4SH2CHC2H4CHC2FeNHCH3C3
_chemical_formula_sum              "H1152 Fe192 S384 C1152 N96"
_cell_length_a       48.5613
_cell_length_b       98.2873
_cell_length_c       52.0628
_cell_angle_alpha    84.8368
_cell_angle_beta     87.47
_cell_angle_gamma    85.7461

_space_group_name_H-M_alt    "P 1"
_space_group_IT_number       1

loop_
  _space_group_symop_operation_xyz
  'x, y, z'

loop_
  _atom_site_type_symbol
  _atom_site_label
  _atom_site_symmetry_multiplicity
  _atom_site_fract_x
  _atom_site_fract_y
  _atom_site_fract_z
  _atom_site_occupancy
  H   H1        1.0  0.41020  0.01712  0.08075  1.0000
  Fe  Fe1       1.0  0.15857  0.03284  0.36615  1.0000
  S   S1        1.0  0.14837  0.03287  0.32434  1.0000
  S   S2        1.0  0.15185  0.05231  0.38650  1.0000
  Fe  Fe2       1.0  0.12625  0.01392  0.33689  1.0000
  S   S3        1.0  0.08488  0.00712  0.32486  1.0000
  C   C1        1.0  0.47051  0.05064  0.20584  1.0000
  H   H2        1.0  0.13711  0.07043  0.42598  1.0000
  C   C2        1.0  0.26552  0.03965  0.36149  1.0000
  H   H3        1.0  0.20586  0.05900  0.37142  1.0000
  S   S4        1.0  0.36385  0.04677  0.02475  1.0000
  C   C3        1.0  0.28945  0.02181  0.24277  1.0000
  C   C4        1.0  0.32765  0.08786  0.01799  1.0000
  H   H4        1.0  0.24463  0.04714  0.39550  1.0000
  Fe  Fe3       1.0  0.39787  0.02961  0.16884  1.0000
  S   S5        1.0  0.39979  0.03027  0.21200  1.0000
  S   S6        1.0  0.39923  0.04843  0.14047  1.0000
  Fe  Fe4       1.0  0.43703  0.01532  0.20897  1.0000
  S   S7        1.0  0.47736  0.01524  0.22986  1.0000
  Fe  Fe5       1.0  0.37376  0.01200  0.21457  1.0000
  S   S8        1.0  0.34172  0.00767  0.24801  1.0000
  S   S9        1.0  0.43681  0.01618  0.16621  1.0000
  S   S10       1.0  0.36971  0.01229  0.17112  1.0000
  H   H5        1.0  0.26072  0.00583  0.30879  1.0000
  C   C5        1.0  0.22232  0.05349  0.36100  1.0000
  H   H6        1.0  0.40492  0.01344  0.11518  1.0000
  C   C6        1.0  0.26192  0.02519  0.25138  1.0000
  N   N1        1.0  0.22128  0.05280  0.33493  1.0000
  C   C7        1.0  0.51323  0.05123  0.22903  1.0000
  C   C8        1.0  0.37487  0.04693  0.05661  1.0000
  C   C9        1.0  0.39482  0.05558  0.06259  1.0000
  C   C10       1.0  0.40220  0.05592  0.08837  1.0000
  C   C11       1.0  0.39015  0.04742  0.10823  1.0000
  C   C12       1.0  0.37043  0.03866  0.10218  1.0000
  C   C13       1.0  0.36270  0.03848  0.07648  1.0000
  H   H7        1.0  0.40424  0.06217  0.04745  1.0000
  H   H8        1.0  0.41729  0.06282  0.09292  1.0000
  H   H9        1.0  0.36055  0.03234  0.11745  1.0000
  H   H10       1.0  0.34705  0.03187  0.07201  1.0000
  C   C14       1.0  0.05099  0.01508  0.32909  1.0000
  H   H11       1.0  0.43223  0.00426  0.09884  1.0000
  H   H12       1.0  0.06368  0.03444  0.33878  1.0000
  C   C15       1.0  0.30677  0.01260  0.25788  1.0000
  H   H13       1.0  0.35895  0.00653  0.11550  1.0000
  C   C16       1.0  0.26853  0.01037  0.29046  1.0000
  C   C17       1.0  0.25114  0.01946  0.27520  1.0000
  H   H14       1.0  0.33310  0.08918  0.03756  1.0000
  H   H15       1.0  0.31921  0.06678  0.02671  1.0000
  C   C18       1.0  0.16454  0.05299  0.41765  1.0000
  C   C19       1.0  0.18615  0.04389  0.42681  1.0000
  C   C20       1.0  0.19737  0.04539  0.45078  1.0000
  C   C21       1.0  0.18655  0.05571  0.46616  1.0000
  C   C22       1.0  0.16442  0.06456  0.45733  1.0000
  C   C23       1.0  0.15372  0.06330  0.43302  1.0000
  H   H16       1.0  0.19462  0.03589  0.41516  1.0000
  H   H17       1.0  0.21453  0.03852  0.45746  1.0000
  C   C24       1.0  0.01907  0.03466  0.33745  1.0000
  H   H18       1.0  0.46000  0.04728  0.22389  1.0000
  C   C25       1.0  0.02808  0.00769  0.32491  1.0000
  C   C26       1.0  0.31997  0.07516  0.01168  1.0000
  H   H19       1.0  0.33492  0.10858  0.00330  1.0000
  H   H20       1.0  0.43373  0.05077  0.18384  1.0000
  H   H21       1.0  0.24218  0.04612  0.30089  1.0000
  N   N2        1.0  0.39208  0.99839  0.09189  1.0000
  C   C27       1.0  0.41074  0.00885  0.09678  1.0000
  Fe  Fe6       1.0  0.38777  0.05727  0.99120  1.0000
  H   H22       1.0  0.03143  0.99725  0.31978  1.0000
  H   H23       1.0  0.19316  0.05363  0.30444  1.0000
  H   H24       1.0  0.17869  0.05996  0.33359  1.0000
  C   C28       1.0  0.24432  0.04684  0.37472  1.0000
  C   C29       1.0  0.45558  0.05244  0.18327  1.0000
  H   H25       1.0  0.28249  0.03426  0.37191  1.0000
  H   H26       1.0  0.29720  0.02626  0.22435  1.0000
  H   H27       1.0  0.20233  0.07006  0.31345  1.0000
  H   H28       1.0  0.30912  0.99983  0.29372  1.0000
  H   H29       1.0  0.28103  0.03385  0.32415  1.0000
  C   C30       1.0  0.04630  0.02858  0.33564  1.0000
  S   S11       1.0  0.21611  0.02424  0.28495  1.0000
  C   C31       1.0  0.46898  0.05636  0.15984  1.0000
  C   C32       1.0  0.36590  0.99872  0.10280  1.0000
  C   C33       1.0  0.19775  0.05950  0.32090  1.0000
  C   C34       1.0  0.24255  0.04628  0.32169  1.0000
  Fe  Fe7       1.0  0.18760  0.01904  0.32057  1.0000
  C   C35       1.0  0.26476  0.03943  0.33476  1.0000
  H   H30       1.0  0.49539  0.02358  0.17663  1.0000
  H   H31       1.0  0.24880  0.03224  0.23934  1.0000
  C   C36       1.0  0.29605  0.00698  0.28183  1.0000
  S   S12       1.0  0.19900  0.02051  0.36168  1.0000
  S   S13       1.0  0.13389  0.01491  0.37883  1.0000
  H   H32       1.0  0.15609  0.07263  0.46888  1.0000
  N   N3        1.0  0.49808  0.05277  0.20508  1.0000
  H   H33       1.0  0.45749  0.05762  0.14222  1.0000
  Fe  Fe8       1.0  0.17337  0.00242  0.37112  1.0000
  S   S14       1.0  0.16454  0.99994  0.32986  1.0000
  C   C37       1.0  0.32867  0.09871  0.99881  1.0000
  H   H34       1.0  0.50482  0.04312  0.24287  1.0000
  H   H35       1.0  0.13082  0.03984  0.47988  1.0000
  H   H36       1.0  0.51170  0.06105  0.23813  1.0000
  H   H37       1.0  0.31772  0.05143  0.99189  1.0000
  H   H38       1.0  0.50775  0.06157  0.14110  1.0000
  C   C38       1.0  0.49707  0.05859  0.15925  1.0000
  Fe  Fe9       1.0  0.40935  0.99878  0.17173  1.0000
  S   S15       1.0  0.41172  0.99702  0.21478  1.0000
  C   C39       1.0  0.51012  0.01806  0.21481  1.0000
  C   C40       1.0  0.51134  0.05686  0.18224  1.0000
  C   C41       1.0  0.51321  0.02239  0.18857  1.0000
  H   H39       1.0  0.49215  0.99605  0.16043  1.0000
  N   N4        1.0  0.50377  0.19367  0.80928  1.0000
  C   C42       1.0  0.18825  0.18249  0.60672  1.0000
  Fe  Fe10      1.0  0.17816  0.06679  0.52940  1.0000
  S   S16       1.0  0.16189  0.05065  0.55798  1.0000
  Fe  Fe11      1.0  0.15409  0.08975  0.56171  1.0000
  S   S17       1.0  0.13580  0.07507  0.59204  1.0000
  S   S18       1.0  0.14304  0.11228  0.56629  1.0000
  Fe  Fe12      1.0  0.17621  0.06279  0.58832  1.0000
  S   S19       1.0  0.19387  0.05157  0.62404  1.0000
  Fe  Fe13      1.0  0.12325  0.06430  0.55884  1.0000
  S   S20       1.0  0.08336  0.05407  0.56013  1.0000
  S   S21       1.0  0.19597  0.07815  0.56009  1.0000
  S   S22       1.0  0.13822  0.07983  0.52826  1.0000
  Fe  Fe14      1.0  0.38301  0.07683  0.94211  1.0000
  S   S23       1.0  0.42685  0.07183  0.92937  1.0000
  S   S24       1.0  0.35647  0.09098  0.91513  1.0000
  Fe  Fe15      1.0  0.41910  0.04996  0.94181  1.0000
  S   S25       1.0  0.43907  0.03345  0.91814  1.0000
  S   S26       1.0  0.37415  0.05472  0.95118  1.0000
  Fe  Fe16      1.0  0.39693  0.18936  0.82386  1.0000
  S   S27       1.0  0.40773  0.17635  0.79098  1.0000
  S   S28       1.0  0.40920  0.21093  0.81179  1.0000
  Fe  Fe17      1.0  0.37802  0.16443  0.85825  1.0000
  S   S29       1.0  0.38692  0.15023  0.82721  1.0000
  S   S30       1.0  0.36935  0.15512  0.89893  1.0000
  Fe  Fe18      1.0  0.42644  0.16078  0.82046  1.0000
  S   S31       1.0  0.46756  0.14846  0.82471  1.0000
  Fe  Fe19      1.0  0.36681  0.16735  0.80113  1.0000
  S   S32       1.0  0.33942  0.16496  0.76748  1.0000
  S   S33       1.0  0.41833  0.17431  0.85260  1.0000
  S   S34       1.0  0.35510  0.18109  0.83274  1.0000
  Fe  Fe20      1.0  0.17970  0.18803  0.67769  1.0000
  S   S35       1.0  0.15848  0.18891  0.71648  1.0000
  S   S36       1.0  0.19816  0.20678  0.65770  1.0000
  Fe  Fe21      1.0  0.17471  0.15714  0.67831  1.0000
  S   S37       1.0  0.15261  0.15604  0.71734  1.0000
  S   S38       1.0  0.19145  0.13772  0.66110  1.0000
  Fe  Fe22      1.0  0.12850  0.17530  0.70159  1.0000
  S   S39       1.0  0.08340  0.18340  0.70291  1.0000
  Fe  Fe23      1.0  0.18483  0.16981  0.72793  1.0000
  S   S40       1.0  0.20785  0.16760  0.76547  1.0000
  S   S41       1.0  0.14877  0.17545  0.66176  1.0000
  S   S42       1.0  0.20796  0.16978  0.68998  1.0000
  H   H40       1.0  0.23851  0.02006  0.68921  1.0000
  C   C43       1.0  0.05330  0.16076  0.71741  1.0000
  C   C44       1.0  0.05295  0.17448  0.70752  1.0000
  C   C45       1.0  0.12223  0.02503  0.53784  1.0000
  H   H41       1.0  0.42246  0.23841  0.79861  1.0000
  H   H42       1.0  0.07275  0.15520  0.72210  1.0000
  H   H43       1.0  0.23047  0.00585  0.72701  1.0000
  C   C46       1.0  0.44544  0.12493  0.92940  1.0000
  H   H44       1.0  0.20997  0.19576  0.78448  1.0000
  C   C47       1.0  0.13338  0.01457  0.55520  1.0000
  C   C48       1.0  0.30283  0.16597  0.76771  1.0000
  C   C49       1.0  0.28648  0.16632  0.79050  1.0000
  C   C50       1.0  0.25741  0.16681  0.78956  1.0000
  C   C51       1.0  0.24443  0.16718  0.76586  1.0000
  C   C52       1.0  0.26083  0.16702  0.74311  1.0000
  C   C53       1.0  0.28982  0.16627  0.74408  1.0000
  H   H45       1.0  0.29626  0.16602  0.80885  1.0000
  H   H46       1.0  0.24496  0.16689  0.80732  1.0000
  H   H47       1.0  0.25131  0.16726  0.72476  1.0000
  H   H48       1.0  0.30229  0.16599  0.72636  1.0000
  H   H49       1.0  0.08544  0.10133  0.54610  1.0000
  H   H50       1.0  0.47851  0.08281  0.92706  1.0000
  C   C54       1.0  0.36136  0.10868  0.91070  1.0000
  C   C55       1.0  0.35308  0.11611  0.88774  1.0000
  C   C56       1.0  0.35585  0.13030  0.88383  1.0000
  C   C57       1.0  0.36623  0.13724  0.90318  1.0000
  C   C58       1.0  0.37402  0.12985  0.92640  1.0000
  C   C59       1.0  0.37207  0.11556  0.93000  1.0000
  H   H51       1.0  0.34442  0.11089  0.87287  1.0000
  H   H52       1.0  0.34918  0.13592  0.86612  1.0000
  H   H53       1.0  0.38185  0.13518  0.94154  1.0000
  H   H54       1.0  0.37833  0.10995  0.94787  1.0000
  C   C60       1.0  0.05713  0.06248  0.54145  1.0000
  H   H55       1.0  0.50541  0.05174  0.95725  1.0000
  C   C61       1.0  0.06247  0.07351  0.52350  1.0000
  H   H56       1.0  0.04334  0.11535  0.53795  1.0000
  H   H57       1.0  0.08325  0.07647  0.51972  1.0000
  C   C62       1.0  0.15450  0.11880  0.59420  1.0000
  C   C63       1.0  0.14426  0.13184  0.60081  1.0000
  C   C64       1.0  0.15431  0.13752  0.62218  1.0000
  C   C65       1.0  0.17506  0.13028  0.63671  1.0000
  C   C66       1.0  0.18495  0.11718  0.63029  1.0000
  C   C67       1.0  0.17458  0.11142  0.60926  1.0000
  H   H58       1.0  0.12863  0.13758  0.58928  1.0000
  H   H59       1.0  0.14656  0.14762  0.62697  1.0000
  H   H60       1.0  0.20102  0.11151  0.64139  1.0000
  H   H61       1.0  0.18259  0.10137  0.60436  1.0000
  H   H62       1.0  0.03012  0.15490  0.66059  1.0000
  C   C68       1.0  0.37351  0.01212  0.90400  1.0000
  C   C69       1.0  0.38988  0.02154  0.91373  1.0000
  C   C70       1.0  0.41786  0.02180  0.90624  1.0000
  C   C71       1.0  0.42940  0.01251  0.88909  1.0000
  C   C72       1.0  0.50091  0.08206  0.96199  1.0000
  H   H63       1.0  0.35186  0.01199  0.90982  1.0000
  H   H64       1.0  0.38083  0.02857  0.92705  1.0000
  H   H65       1.0  0.36027  0.22770  0.78654  1.0000
  C   C73       1.0  0.21875  0.14242  0.59045  1.0000
  C   C74       1.0  0.19874  0.00586  0.61391  1.0000
  C   C75       1.0  0.20881  0.01510  0.59432  1.0000
  C   C76       1.0  0.20703  0.02916  0.59734  1.0000
  C   C77       1.0  0.19576  0.03400  0.62024  1.0000
  C   C78       1.0  0.18608  0.02476  0.64006  1.0000
  C   C79       1.0  0.18725  0.01070  0.63677  1.0000
  H   H66       1.0  0.46213  0.19269  0.79789  1.0000
  H   H67       1.0  0.21482  0.03626  0.58211  1.0000
  H   H68       1.0  0.17721  0.02852  0.65773  1.0000
  H   H69       1.0  0.17937  0.00366  0.65191  1.0000
  C   C80       1.0  0.14625  0.23464  0.69173  1.0000
  C   C81       1.0  0.15758  0.22253  0.68195  1.0000
  C   C82       1.0  0.18318  0.22228  0.66862  1.0000
  H   H70       1.0  0.21816  0.01139  0.57681  1.0000
  H   H71       1.0  0.20107  0.21362  0.77412  1.0000
  H   H72       1.0  0.14613  0.21347  0.68434  1.0000
  H   H73       1.0  0.44298  0.14631  0.91518  1.0000
  C   C83       1.0  0.19720  0.23435  0.66477  1.0000
  C   C84       1.0  0.39282  0.22487  0.85458  1.0000
  C   C85       1.0  0.40499  0.22538  0.82970  1.0000
  H   H74       1.0  0.46529  0.19776  0.82958  1.0000
  H   H75       1.0  0.48383  0.05252  0.92996  1.0000
  C   C86       1.0  0.27893  0.20031  0.74086  1.0000
  H   H76       1.0  0.38662  0.21522  0.86390  1.0000
  H   H77       1.0  0.51189  0.19651  0.84830  1.0000
  H   H78       1.0  0.18766  0.19995  0.75837  1.0000
  N   N5        1.0  0.21233  0.13236  0.75347  1.0000
  C   C87       1.0  0.21444  0.13146  0.72736  1.0000
  C   C88       1.0  0.23534  0.13381  0.76697  1.0000
  C   C89       1.0  0.24015  0.13176  0.71418  1.0000
  C   C90       1.0  0.26142  0.13403  0.75444  1.0000
  C   C91       1.0  0.26377  0.13303  0.72786  1.0000
  C   C92       1.0  0.18520  0.13245  0.76701  1.0000
  H   H79       1.0  0.19619  0.13056  0.71648  1.0000
  H   H80       1.0  0.23351  0.13517  0.78744  1.0000
  H   H81       1.0  0.24156  0.13112  0.69344  1.0000
  H   H82       1.0  0.27955  0.13546  0.76514  1.0000
  H   H83       1.0  0.28382  0.13348  0.71786  1.0000
  H   H84       1.0  0.17787  0.14314  0.77052  1.0000
  H   H85       1.0  0.16957  0.12816  0.75564  1.0000
  H   H86       1.0  0.18640  0.12621  0.78586  1.0000
  N   N6        1.0  0.43175  0.12017  0.87985  1.0000
  C   C93       1.0  0.43496  0.10942  0.89838  1.0000
  C   C94       1.0  0.43450  0.13327  0.88575  1.0000
  H   H87       1.0  0.26414  0.00329  0.61809  1.0000
  C   C95       1.0  0.17498  0.17551  0.58919  1.0000
  C   C96       1.0  0.22044  0.16275  0.61416  1.0000
  C   C97       1.0  0.42390  0.11777  0.85386  1.0000
  C   C98       1.0  0.32191  0.09676  0.97370  1.0000
  H   H88       1.0  0.43099  0.14183  0.87133  1.0000
  H   H89       1.0  0.23800  0.15778  0.62429  1.0000
  C   C99       1.0  0.44216  0.11162  0.92335  1.0000
  H   H90       1.0  0.20558  0.21065  0.71695  1.0000
  H   H91       1.0  0.40120  0.11970  0.85223  1.0000
  H   H92       1.0  0.43437  0.12471  0.83907  1.0000
  H   H93       1.0  0.42994  0.10711  0.84930  1.0000
  H   H94       1.0  0.37898  0.23651  0.88659  1.0000
  N   N7        1.0  0.22989  0.20345  0.74927  1.0000
  C   C100      1.0  0.41306  0.23795  0.81788  1.0000
  H   H95       1.0  0.22631  0.13622  0.60801  1.0000
  H   H96       1.0  0.12638  0.23466  0.70196  1.0000
  C   C101      1.0  0.50162  0.15808  0.78431  1.0000
  H   H97       1.0  0.29943  0.19712  0.74772  1.0000
  H   H98       1.0  0.12094  0.01046  0.57148  1.0000
  H   H99       1.0  0.23605  0.14340  0.57589  1.0000
  H   H100      1.0  0.08320  0.10228  0.58058  1.0000
  H   H101      1.0  0.33997  0.23399  0.82854  1.0000
  C   C102      1.0  0.18506  0.16224  0.58426  1.0000
  H   H102      1.0  0.17469  0.15687  0.57057  1.0000
  Fe  Fe24      1.0  0.43582  0.07338  0.97069  1.0000
  C   C103      1.0  0.21110  0.17609  0.61931  1.0000
  C   C104      1.0  0.49828  0.04568  0.94209  1.0000
  C   C105      1.0  0.25591  0.20004  0.75798  1.0000
  H   H103      1.0  0.25895  0.19674  0.77816  1.0000
  S   S43       1.0  0.20169  0.05734  0.49592  1.0000
  C   C106      1.0  0.22614  0.20768  0.72382  1.0000
  H   H104      1.0  0.48662  0.03720  0.95172  1.0000
  H   H105      1.0  0.10414  0.04400  0.50369  1.0000
  C   C107      1.0  0.04065  0.08097  0.51072  1.0000
  C   C108      1.0  0.47483  0.19089  0.81529  1.0000
  H   H106      1.0  0.17800  0.03049  0.49884  1.0000
  C   C109      1.0  0.44140  0.13586  0.91056  1.0000
  N   N8        1.0  0.24302  0.99821  0.69056  1.0000
  C   C110      1.0  0.51455  0.19288  0.78468  1.0000
  H   H107      1.0  0.49444  0.03069  0.90268  1.0000
  H   H108      1.0  0.50185  0.19021  0.76953  1.0000
  C   C111      1.0  0.17695  0.01539  0.53126  1.0000
  H   H109      1.0  0.15698  0.18035  0.57955  1.0000
  N   N9        1.0  0.20747  0.15602  0.59678  1.0000
  H   H110      1.0  0.31004  0.05835  0.95996  1.0000
  S   S44       1.0  0.39229  0.07990  0.98298  1.0000
  H   H111      1.0  0.44472  0.10311  0.93806  1.0000
  H   H112      1.0  0.48410  0.15793  0.77222  1.0000
  H   H113      1.0  0.02598  0.04979  0.55918  1.0000
  H   H114      1.0  0.04295  0.07955  0.59044  1.0000
  C   C112      1.0  0.25233  0.01321  0.65259  1.0000
  H   H115      1.0  0.10095  0.02888  0.54091  1.0000
  C   C113      1.0  0.35456  0.23837  0.78939  1.0000
  H   H116      1.0  0.20273  0.13655  0.58264  1.0000
  C   C114      1.0  0.20602  0.20326  0.76751  1.0000
  N   N10       1.0  0.13812  0.03053  0.51771  1.0000
  C   C115      1.0  0.03016  0.05845  0.54556  1.0000
  H   H117      1.0  0.02865  0.14384  0.73018  1.0000
  H   H118      1.0  0.08489  0.08594  0.56698  1.0000
  C   C116      1.0  0.38497  0.00295  0.88664  1.0000
  C   C117      1.0  0.16087  0.00969  0.55176  1.0000
  H   H119      1.0  0.45101  0.01266  0.88318  1.0000
  H   H120      1.0  0.30979  0.08244  0.94832  1.0000
  C   C118      1.0  0.30579  0.05990  0.98071  1.0000
  C   C119      1.0  0.38844  0.23694  0.86734  1.0000
  H   H121      1.0  0.02673  0.00715  0.67457  1.0000
  C   C120      1.0  0.27524  0.20434  0.71478  1.0000
  H   H122      1.0  0.32284  0.10506  0.95851  1.0000
  C   C121      1.0  0.49874  0.15446  0.81083  1.0000
  H   H123      1.0  0.21696  0.23427  0.65433  1.0000
  H   H124      1.0  0.45061  0.12678  0.94880  1.0000
  C   C122      1.0  0.16519  0.02587  0.51434  1.0000
  C   C123      1.0  0.02749  0.18162  0.70176  1.0000
  H   H125      1.0  0.19855  0.01191  0.52880  1.0000
  C   C124      1.0  0.24872  0.20816  0.70620  1.0000
  N   N11       1.0  0.04605  0.09746  0.56437  1.0000
  H   H126      1.0  0.18066  0.19278  0.61088  1.0000
  H   H127      1.0  0.43164  0.09910  0.89402  1.0000
  H   H128      1.0  0.24558  0.21144  0.68600  1.0000
  C   C125      1.0  0.24422  0.01118  0.67870  1.0000
  H   H129      1.0  0.04470  0.08975  0.49738  1.0000
  C   C126      1.0  0.02829  0.15437  0.72202  1.0000
  H   H130      1.0  0.29288  0.20449  0.70124  1.0000
  H   H131      1.0  0.22135  0.18145  0.63311  1.0000
  H   H132      1.0  0.47356  0.18007  0.82323  1.0000
  C   C127      1.0  0.03187  0.08793  0.57933  1.0000
  H   H133      1.0  0.25248  0.02349  0.64303  1.0000
  C   C128      1.0  0.49849  0.08137  0.93547  1.0000
  C   C129      1.0  0.07631  0.09675  0.56456  1.0000
  C   C130      1.0  0.31457  0.08389  0.96803  1.0000
  C   C131      1.0  0.41299  0.00314  0.87923  1.0000
  C   C132      1.0  0.25891  0.00188  0.63859  1.0000
  C   C133      1.0  0.12680  0.04197  0.50037  1.0000
  H   H134      1.0  0.02705  0.19224  0.69417  1.0000
  H   H135      1.0  0.13679  0.05144  0.50367  1.0000
  H   H136      1.0  0.50503  0.00143  0.78178  1.0000
  H   H137      1.0  0.16981  0.00164  0.56523  1.0000
  C   C134      1.0  0.03212  0.10786  0.54993  1.0000
  C   C135      1.0  0.34320  0.24201  0.81320  1.0000
  S   S45       1.0  0.47146  0.08443  0.98221  1.0000
  S   S46       1.0  0.43225  0.05104  0.98233  1.0000
  C   C136      1.0  0.01824  0.00123  0.66058  1.0000
  H   H138      1.0  0.28342  0.05908  0.98538  1.0000
  C   C137      1.0  0.51560  0.03259  0.90625  1.0000
  H   H139      1.0  0.42198  0.99615  0.86575  1.0000
  C   C138      1.0  0.23455  0.99607  0.71793  1.0000
  N   N12       1.0  0.31406  0.07325  0.98685  1.0000
  Fe  Fe25      1.0  0.10660  0.47115  0.33607  1.0000
  S   S47       1.0  0.12297  0.46759  0.37596  1.0000
  S   S48       1.0  0.06231  0.48055  0.33408  1.0000
  Fe  Fe26      1.0  0.16301  0.46190  0.31078  1.0000
  S   S49       1.0  0.18298  0.45729  0.34903  1.0000
  S   S50       1.0  0.18403  0.45873  0.27123  1.0000
  Fe  Fe27      1.0  0.14328  0.44818  0.36280  1.0000
  S   S51       1.0  0.13785  0.42885  0.38887  1.0000
  Fe  Fe28      1.0  0.16082  0.47716  0.35902  1.0000
  S   S52       1.0  0.12463  0.45096  0.32369  1.0000
  S   S53       1.0  0.14325  0.48247  0.31996  1.0000
  H   H140      1.0  0.10704  0.46916  0.43871  1.0000
  Fe  Fe29      1.0  0.33366  0.45951  0.19710  1.0000
  S   S54       1.0  0.31342  0.46951  0.16169  1.0000
  S   S55       1.0  0.31242  0.45780  0.23736  1.0000
  Fe  Fe30      1.0  0.39109  0.45715  0.16834  1.0000
  S   S56       1.0  0.37458  0.46759  0.13137  1.0000
  S   S57       1.0  0.43475  0.44702  0.16665  1.0000
  Fe  Fe31      1.0  0.35067  0.48182  0.15684  1.0000
  Fe  Fe32      1.0  0.33929  0.45421  0.13948  1.0000
  S   S58       1.0  0.32201  0.44321  0.10792  1.0000
  S   S59       1.0  0.37012  0.47267  0.19326  1.0000
  S   S60       1.0  0.35652  0.44297  0.17544  1.0000
  S   S61       1.0  0.18378  0.49168  0.37988  1.0000
  C   C139      1.0  0.01814  0.41088  0.47710  1.0000
  H   H141      1.0  0.48583  0.48288  0.19416  1.0000
  H   H142      1.0  0.40229  0.42680  0.14963  1.0000
  H   H143      1.0  0.13862  0.42299  0.30027  1.0000
  H   H144      1.0  0.16319  0.41445  0.27892  1.0000
  C   C140      1.0  0.15622  0.45795  0.47848  1.0000
  Fe  Fe33      1.0  0.39926  0.40779  0.99012  1.0000
  C   C141      1.0  0.46542  0.45509  0.17098  1.0000
  H   H145      1.0  0.49095  0.43875  0.15646  1.0000
  C   C142      1.0  0.46532  0.46752  0.18124  1.0000
  H   H146      1.0  0.15309  0.47647  0.42108  1.0000
  H   H147      1.0  0.44569  0.47271  0.18649  1.0000
  C   C143      1.0  0.34476  0.43750  0.08306  1.0000
  C   C144      1.0  0.33541  0.42913  0.06520  1.0000
  C   C145      1.0  0.35387  0.42348  0.04667  1.0000
  C   C146      1.0  0.38174  0.42628  0.04588  1.0000
  C   C147      1.0  0.39072  0.43514  0.06294  1.0000
  C   C148      1.0  0.37238  0.44068  0.08150  1.0000
  H   H148      1.0  0.31405  0.42659  0.06636  1.0000
  H   H149      1.0  0.34684  0.41647  0.03391  1.0000
  H   H150      1.0  0.41223  0.43737  0.06244  1.0000
  H   H151      1.0  0.37990  0.44705  0.09511  1.0000
  C   C149      1.0  0.03298  0.47116  0.33121  1.0000
  C   C150      1.0  0.03417  0.45975  0.31683  1.0000
  H   H152      1.0  0.46839  0.40693  0.09147  1.0000
  H   H153      1.0  0.05388  0.45570  0.30924  1.0000
  C   C151      1.0  0.44923  0.40865  0.08039  1.0000
  C   C152      1.0  0.21983  0.45856  0.26226  1.0000
  C   C153      1.0  0.22817  0.45739  0.23626  1.0000
  C   C154      1.0  0.25636  0.45715  0.22825  1.0000
  C   C155      1.0  0.27661  0.45785  0.24629  1.0000
  C   C156      1.0  0.26828  0.45882  0.27237  1.0000
  C   C157      1.0  0.24007  0.45929  0.28030  1.0000
  H   H154      1.0  0.21272  0.45672  0.22216  1.0000
  H   H155      1.0  0.26241  0.45633  0.20817  1.0000
  H   H156      1.0  0.28377  0.45935  0.28649  1.0000
  H   H157      1.0  0.23402  0.46019  0.30036  1.0000
  C   C158      1.0  0.15211  0.42793  0.41955  1.0000
  C   C159      1.0  0.17558  0.43479  0.42347  1.0000
  C   C160      1.0  0.18721  0.43350  0.44788  1.0000
  C   C161      1.0  0.17484  0.42583  0.46874  1.0000
  C   C162      1.0  0.15099  0.41922  0.46495  1.0000
  C   C163      1.0  0.13995  0.42009  0.44028  1.0000
  H   H158      1.0  0.18512  0.44085  0.40760  1.0000
  H   H159      1.0  0.20571  0.43860  0.45072  1.0000
  C   C164      1.0  0.19797  0.46966  0.46936  1.0000
  H   H160      1.0  0.12192  0.41469  0.43724  1.0000
  H   H161      1.0  0.35585  0.49186  0.05747  1.0000
  C   C165      1.0  0.25135  0.49292  0.20078  1.0000
  C   C166      1.0  0.11903  0.45995  0.44748  1.0000
  H   H162      1.0  0.02179  0.40476  0.46080  1.0000
  C   C167      1.0  0.40178  0.42035  0.13384  1.0000
  H   H163      1.0  0.35870  0.41668  0.14038  1.0000
  N   N13       1.0  0.29171  0.49417  0.22536  1.0000
  C   C168      1.0  0.49064  0.44855  0.16453  1.0000
  C   C169      1.0  0.42532  0.41815  0.11790  1.0000
  H   H164      1.0  0.44824  0.39987  0.06846  1.0000
  C   C170      1.0  0.40105  0.40429  0.09281  1.0000
  H   H165      1.0  0.40023  0.39844  0.07617  1.0000
  H   H166      1.0  0.35797  0.40225  0.10361  1.0000
  H   H167      1.0  0.45049  0.41804  0.06690  1.0000
  C   C171      1.0  0.16106  0.47216  0.43941  1.0000
  C   C172      1.0  0.27968  0.49444  0.20201  1.0000
  C   C173      1.0  0.37704  0.40643  0.10822  1.0000
  H   H168      1.0  0.44385  0.42310  0.12154  1.0000
  C   C174      1.0  0.37744  0.41455  0.12881  1.0000
  N   N14       1.0  0.42478  0.41014  0.09775  1.0000
  N   N15       1.0  0.14586  0.46361  0.45558  1.0000
  S   S62       1.0  0.40687  0.41749  0.02683  1.0000
  C   C175      1.0  0.18723  0.47539  0.44608  1.0000
  C   C176      1.0  0.24771  0.49108  0.24730  1.0000
  N   N16       1.0  0.18132  0.42400  0.30829  1.0000
  C   C177      1.0  0.20684  0.42757  0.29905  1.0000
  C   C178      1.0  0.17671  0.42050  0.33408  1.0000
  C   C179      1.0  0.22836  0.42810  0.31587  1.0000
  C   C180      1.0  0.19778  0.42087  0.35145  1.0000
  C   C181      1.0  0.22371  0.42477  0.34225  1.0000
  C   C182      1.0  0.15922  0.42351  0.29016  1.0000
  H   H169      1.0  0.21051  0.43029  0.27857  1.0000
  H   H170      1.0  0.15655  0.41758  0.34150  1.0000
  H   H171      1.0  0.24837  0.43123  0.30844  1.0000
  H   H172      1.0  0.19379  0.41836  0.37197  1.0000
  H   H173      1.0  0.24007  0.42531  0.35559  1.0000
  H   H174      1.0  0.15812  0.43295  0.27661  1.0000
  H   H175      1.0  0.21848  0.47184  0.47454  1.0000
  H   H176      1.0  0.03703  0.48954  0.27796  1.0000
  C   C183      1.0  0.49022  0.47332  0.18551  1.0000
  H   H177      1.0  0.07228  0.41293  0.46158  1.0000
  C   C184      1.0  0.06809  0.40983  0.48235  1.0000
  H   H178      1.0  0.19915  0.48215  0.43302  1.0000
  C   C185      1.0  0.23530  0.49126  0.22361  1.0000
  C   C186      1.0  0.18240  0.46089  0.48570  1.0000
  H   H179      1.0  0.10643  0.45547  0.46400  1.0000
  H   H180      1.0  0.33163  0.48544  0.23441  1.0000
  H   H181      1.0  0.23551  0.48942  0.26515  1.0000
  H   H182      1.0  0.07089  0.39849  0.48581  1.0000
  H   H183      1.0  0.12224  0.45233  0.43290  1.0000
  H   H184      1.0  0.21341  0.48975  0.22305  1.0000
  C   C187      1.0  0.27617  0.49240  0.24782  1.0000
  H   H185      1.0  0.24200  0.49284  0.18227  1.0000
  H   H186      1.0  0.28588  0.49169  0.26631  1.0000
  H   H187      1.0  0.14148  0.41320  0.48089  1.0000
  H   H188      1.0  0.35667  0.49439  0.09134  1.0000
  H   H189      1.0  0.31506  0.43462  0.99952  1.0000
  H   H190      1.0  0.34794  0.45866  0.99642  1.0000
  C   C188      1.0  0.32151  0.49539  0.22659  1.0000
  C   C189      1.0  0.51571  0.45427  0.16809  1.0000
  H   H191      1.0  0.29204  0.49573  0.18418  1.0000
  C   C190      1.0  0.10953  0.34579  0.61821  1.0000
  H   H192      1.0  0.12675  0.32937  0.65828  1.0000
  S   S63       1.0  0.18449  0.48511  0.65290  1.0000
  H   H193      1.0  0.04876  0.29769  0.78177  1.0000
  N   N17       1.0  0.03986  0.41452  0.49027  1.0000
  H   H194      1.0  0.33118  0.25121  0.85818  1.0000
  Fe  Fe34      1.0  0.16167  0.40083  0.58721  1.0000
  S   S64       1.0  0.11768  0.40835  0.59498  1.0000
  S   S65       1.0  0.17985  0.38744  0.62094  1.0000
  Fe  Fe35      1.0  0.16377  0.41708  0.53422  1.0000
  S   S66       1.0  0.11976  0.42541  0.53791  1.0000
  Fe  Fe36      1.0  0.12992  0.42894  0.57831  1.0000
  S   S67       1.0  0.11090  0.44832  0.59400  1.0000
  Fe  Fe37      1.0  0.11174  0.40418  0.55420  1.0000
  S   S68       1.0  0.07514  0.39352  0.54363  1.0000
  S   S69       1.0  0.17471  0.42199  0.57385  1.0000
  S   S70       1.0  0.15496  0.39525  0.54710  1.0000
  Fe  Fe38      1.0  0.37618  0.41360  0.93694  1.0000
  S   S71       1.0  0.35992  0.40238  0.97349  1.0000
  S   S72       1.0  0.35004  0.42851  0.91101  1.0000
  Fe  Fe39      1.0  0.43441  0.40032  0.94237  1.0000
  Fe  Fe40      1.0  0.38541  0.38415  0.95936  1.0000
  S   S73       1.0  0.37711  0.36175  0.96230  1.0000
  S   S74       1.0  0.39800  0.39496  0.92143  1.0000
  Fe  Fe41      1.0  0.36894  0.31578  0.84881  1.0000
  S   S75       1.0  0.38885  0.32077  0.80982  1.0000
  S   S76       1.0  0.34479  0.33438  0.86293  1.0000
  Fe  Fe42      1.0  0.38946  0.28545  0.84859  1.0000
  S   S77       1.0  0.41131  0.28865  0.80990  1.0000
  S   S78       1.0  0.38863  0.26464  0.87105  1.0000
  Fe  Fe43      1.0  0.42549  0.30767  0.82500  1.0000
  S   S79       1.0  0.46644  0.31709  0.82750  1.0000
  Fe  Fe44      1.0  0.37213  0.30142  0.79913  1.0000
  S   S80       1.0  0.34991  0.29954  0.76213  1.0000
  S   S81       1.0  0.40613  0.30356  0.86464  1.0000
  S   S82       1.0  0.34980  0.29725  0.83715  1.0000
  Fe  Fe45      1.0  0.15977  0.28285  0.69818  1.0000
  S   S83       1.0  0.15200  0.29226  0.73582  1.0000
  S   S84       1.0  0.14473  0.26142  0.70153  1.0000
  Fe  Fe46      1.0  0.17293  0.31064  0.67041  1.0000
  S   S85       1.0  0.16571  0.32152  0.70639  1.0000
  S   S86       1.0  0.17895  0.32244  0.63126  1.0000
  Fe  Fe47      1.0  0.19035  0.30331  0.72539  1.0000
  S   S87       1.0  0.21859  0.30558  0.75843  1.0000
  Fe  Fe48      1.0  0.12833  0.30926  0.71297  1.0000
  S   S88       1.0  0.08606  0.31885  0.72444  1.0000
  S   S89       1.0  0.19987  0.29288  0.68888  1.0000
  S   S90       1.0  0.13408  0.29945  0.67599  1.0000
  S   S91       1.0  0.37697  0.49037  0.90947  1.0000
  H   H195      1.0  0.32424  0.42840  0.96837  1.0000
  H   H196      1.0  0.19665  0.25582  0.67163  1.0000
  C   C191      1.0  0.05568  0.31110  0.71764  1.0000
  C   C192      1.0  0.05690  0.29914  0.70484  1.0000
  C   C193      1.0  0.08595  0.46876  0.68683  1.0000
  H   H197      1.0  0.07662  0.29476  0.69791  1.0000
  H   H198      1.0  0.10560  0.35318  0.57802  1.0000
  C   C194      1.0  0.45759  0.43776  0.90309  1.0000
  H   H199      1.0  0.41408  0.25961  0.82084  1.0000
  H   H200      1.0  0.08118  0.26072  0.70479  1.0000
  C   C195      1.0  0.10879  0.44965  0.66655  1.0000
  H   H201      1.0  0.33307  0.26879  0.84765  1.0000
  H   H202      1.0  0.10893  0.44200  0.65272  1.0000
  C   C196      1.0  0.48660  0.28375  0.86302  1.0000
  C   C197      1.0  0.31331  0.29992  0.76163  1.0000
  C   C198      1.0  0.30049  0.29895  0.73821  1.0000
  C   C199      1.0  0.27142  0.30010  0.73696  1.0000
  C   C200      1.0  0.25495  0.30229  0.75916  1.0000
  C   C201      1.0  0.26779  0.30290  0.78263  1.0000
  C   C202      1.0  0.29675  0.30172  0.78389  1.0000
  H   H203      1.0  0.31309  0.29755  0.72085  1.0000
  H   H204      1.0  0.26179  0.29961  0.71874  1.0000
  H   H205      1.0  0.25523  0.30463  0.79989  1.0000
  H   H206      1.0  0.30613  0.30263  0.80198  1.0000
  C   C203      1.0  0.32847  0.43613  0.98180  1.0000
  C   C204      1.0  0.47740  0.36573  0.89386  1.0000
  C   C205      1.0  0.36867  0.35435  0.93431  1.0000
  C   C206      1.0  0.37612  0.34042  0.93190  1.0000
  C   C207      1.0  0.36951  0.33424  0.90982  1.0000
  C   C208      1.0  0.35468  0.34187  0.89036  1.0000
  C   C209      1.0  0.34728  0.35580  0.89275  1.0000
  C   C210      1.0  0.35455  0.36207  0.91448  1.0000
  H   H207      1.0  0.38697  0.33439  0.94723  1.0000
  H   H208      1.0  0.37512  0.32348  0.90826  1.0000
  H   H209      1.0  0.33575  0.36176  0.87778  1.0000
  H   H210      1.0  0.34859  0.37279  0.91623  1.0000
  C   C211      1.0  0.04489  0.39979  0.55945  1.0000
  C   C212      1.0  0.04543  0.41067  0.57496  1.0000
  H   H211      1.0  0.42770  0.34043  0.83925  1.0000
  H   H212      1.0  0.06452  0.41524  0.57746  1.0000
  H   H213      1.0  0.40239  0.43410  0.86705  1.0000
  C   C213      1.0  0.18020  0.36937  0.62316  1.0000
  C   C214      1.0  0.18375  0.36201  0.64732  1.0000
  C   C215      1.0  0.18350  0.34765  0.65003  1.0000
  C   C216      1.0  0.18013  0.34048  0.62850  1.0000
  C   C217      1.0  0.17708  0.34782  0.60423  1.0000
  C   C218      1.0  0.17684  0.36222  0.60159  1.0000
  H   H214      1.0  0.18664  0.36747  0.66404  1.0000
  H   H215      1.0  0.18642  0.34214  0.66870  1.0000
  H   H216      1.0  0.17470  0.34234  0.58743  1.0000
  H   H217      1.0  0.17439  0.36777  0.58283  1.0000
  H   H218      1.0  0.45966  0.47752  0.87190  1.0000
  C   C219      1.0  0.37075  0.47318  0.90780  1.0000
  C   C220      1.0  0.38106  0.46366  0.92721  1.0000
  C   C221      1.0  0.37497  0.44996  0.92800  1.0000
  C   C222      1.0  0.35886  0.44560  0.90920  1.0000
  C   C223      1.0  0.34879  0.45510  0.88946  1.0000
  C   C224      1.0  0.35478  0.46893  0.88870  1.0000
  H   H219      1.0  0.39317  0.46697  0.94216  1.0000
  H   H220      1.0  0.38173  0.44297  0.94389  1.0000
  H   H221      1.0  0.33609  0.45179  0.87494  1.0000
  H   H222      1.0  0.34662  0.47630  0.87374  1.0000
  N   N18       1.0  0.43995  0.35110  0.87054  1.0000
  H   H223      1.0  0.15093  0.44455  0.67652  1.0000
  C   C225      1.0  0.16429  0.47529  0.63537  1.0000
  C   C226      1.0  0.13662  0.47933  0.63073  1.0000
  C   C227      1.0  0.12081  0.47123  0.61706  1.0000
  C   C228      1.0  0.13237  0.45890  0.60840  1.0000
  C   C229      1.0  0.16010  0.45487  0.61286  1.0000
  C   C230      1.0  0.17607  0.46311  0.62615  1.0000
  H   H224      1.0  0.30235  0.26040  0.84163  1.0000
  H   H225      1.0  0.09933  0.47437  0.61378  1.0000
  H   H226      1.0  0.16917  0.44534  0.60641  1.0000
  H   H227      1.0  0.19749  0.45993  0.62964  1.0000
  H   H228      1.0  0.33619  0.27623  0.80105  1.0000
  H   H229      1.0  0.47339  0.45704  0.90896  1.0000
  C   C231      1.0  0.35281  0.26229  0.77398  1.0000
  H   H230      1.0  0.03403  0.28299  0.69279  1.0000
  H   H231      1.0  0.02573  0.26401  0.74246  1.0000
  H   H232      1.0  0.49180  0.37163  0.90282  1.0000
  C   C232      1.0  0.34145  0.26556  0.79800  1.0000
  H   H233      1.0  0.44809  0.27454  0.85961  1.0000
  H   H234      1.0  0.06734  0.45783  0.65875  1.0000
  H   H235      1.0  0.47694  0.29288  0.87088  1.0000
  H   H236      1.0  0.11026  0.27270  0.74255  1.0000
  H   H237      1.0  0.29857  0.44418  0.94044  1.0000
  H   H238      1.0  0.08385  0.41409  0.49361  1.0000
  H   H239      1.0  0.42270  0.47954  0.86936  1.0000
  H   H240      1.0  0.09778  0.29238  0.76846  1.0000
  N   N19       1.0  0.11242  0.34925  0.64277  1.0000
  C   C233      1.0  0.11302  0.36269  0.64752  1.0000
  H   H241      1.0  0.41658  0.33372  0.87107  1.0000
  C   C234      1.0  0.11093  0.37307  0.62735  1.0000
  C   C235      1.0  0.44968  0.36630  0.90217  1.0000
  C   C236      1.0  0.10792  0.36966  0.60224  1.0000
  C   C237      1.0  0.11395  0.33849  0.66416  1.0000
  H   H242      1.0  0.11586  0.36545  0.66688  1.0000
  C   C238      1.0  0.41843  0.43904  0.87583  1.0000
  H   H243      1.0  0.11255  0.38366  0.63109  1.0000
  H   H244      1.0  0.50792  0.35689  0.86766  1.0000
  H   H245      1.0  0.10675  0.37760  0.58633  1.0000
  H   H246      1.0  0.12378  0.34193  0.68109  1.0000
  H   H247      1.0  0.09294  0.33540  0.67029  1.0000
  C   C239      1.0  0.10722  0.35593  0.59758  1.0000
  H   H248      1.0  0.48296  0.29492  0.79482  1.0000
  H   H249      1.0  0.15273  0.46692  0.72963  1.0000
  C   C240      1.0  0.50325  0.39737  0.94375  1.0000
  H   H250      1.0  0.19084  0.45598  0.50348  1.0000
  C   C241      1.0  0.01976  0.39435  0.55550  1.0000
  C   C242      1.0  0.33506  0.46065  0.97979  1.0000
  N   N20       1.0  0.13257  0.46094  0.69716  1.0000
  H   H251      1.0  0.47049  0.25413  0.84029  1.0000
  H   H252      1.0  0.40436  0.45925  0.86065  1.0000
  C   C243      1.0  0.41954  0.45329  0.87247  1.0000
  H   H253      1.0  0.01923  0.38602  0.54332  1.0000
  C   C244      1.0  0.02099  0.41595  0.58682  1.0000
  C   C245      1.0  0.47039  0.27355  0.85639  1.0000
  H   H254      1.0  0.09564  0.25002  0.73140  1.0000
  H   H255      1.0  0.47252  0.43171  0.91516  1.0000
  S   S92       1.0  0.47624  0.40010  0.92207  1.0000
  C   C246      1.0  0.49890  0.30981  0.81707  1.0000
  H   H256      1.0  0.40963  0.35945  0.89671  1.0000
  H   H257      1.0  0.06014  0.24891  0.72411  1.0000
  H   H258      1.0  0.36884  0.24595  0.75137  1.0000
  C   C247      1.0  0.10980  0.46979  0.70043  1.0000
  C   C248      1.0  0.16023  0.24669  0.68817  1.0000
  N   N21       1.0  0.27549  0.33531  0.75553  1.0000
  C   C249      1.0  0.30338  0.33380  0.75040  1.0000
  C   C250      1.0  0.26539  0.33676  0.78018  1.0000
  C   C251      1.0  0.32196  0.33348  0.77029  1.0000
  C   C252      1.0  0.28341  0.33650  0.80053  1.0000
  C   C253      1.0  0.31185  0.33484  0.79549  1.0000
  C   C254      1.0  0.25645  0.33598  0.73428  1.0000
  H   H259      1.0  0.31143  0.33246  0.73095  1.0000
  H   H260      1.0  0.24328  0.33783  0.78429  1.0000
  H   H261      1.0  0.34401  0.33180  0.76625  1.0000
  H   H262      1.0  0.27544  0.33742  0.82016  1.0000
  H   H263      1.0  0.32600  0.33445  0.81115  1.0000
  H   H264      1.0  0.23570  0.33280  0.74123  1.0000
  H   H265      1.0  0.25421  0.34657  0.72483  1.0000
  H   H266      1.0  0.26403  0.32886  0.71968  1.0000
  C   C255      1.0  0.43113  0.35889  0.89021  1.0000
  H   H267      1.0  0.06813  0.47595  0.68933  1.0000
  H   H268      1.0  0.44263  0.37246  0.91780  1.0000
  H   H269      1.0  0.02155  0.42438  0.59877  1.0000
  H   H270      1.0  0.10979  0.33510  0.61440  1.0000
  H   H271      1.0  0.47439  0.34368  0.84757  1.0000
  C   C256      1.0  0.43765  0.43126  0.89118  1.0000
  H   H272      1.0  0.40005  0.34933  0.85611  1.0000
  C   C257      1.0  0.15768  0.46240  0.71101  1.0000
  C   C258      1.0  0.08547  0.45859  0.66984  1.0000
  C   C259      1.0  0.32521  0.25912  0.84237  1.0000
  C   C260      1.0  0.42015  0.34326  0.85866  1.0000
  C   C261      1.0  0.46726  0.35015  0.86274  1.0000
  N   N22       1.0  0.33727  0.25548  0.81738  1.0000
  N   N23       1.0  0.43899  0.45961  0.88442  1.0000
  C   C262      1.0  0.31526  0.47661  0.94645  1.0000
  H   H273      1.0  0.43696  0.42021  0.89407  1.0000
  S   S93       1.0  0.41401  0.41994  0.95434  1.0000
  H   H274      1.0  0.14477  0.45073  0.49094  1.0000
  H   H275      1.0  0.48066  0.38489  0.97219  1.0000
  H   H276      1.0  0.17142  0.46918  0.69902  1.0000
  C   C263      1.0  0.30299  0.46584  0.93675  1.0000
  C   C264      1.0  0.03268  0.29249  0.70193  1.0000
  H   H277      1.0  0.10994  0.47776  0.71354  1.0000
  H   H278      1.0  0.16916  0.45232  0.71544  1.0000
  C   C265      1.0  0.43971  0.47457  0.88130  1.0000
  C   C266      1.0  0.49983  0.38953  0.96730  1.0000
  C   C267      1.0  0.45793  0.45204  0.89951  1.0000
  C   C268      1.0  0.13248  0.45114  0.68010  1.0000
  H   H279      1.0  0.12723  0.48861  0.63775  1.0000
  S   S94       1.0  0.42331  0.38852  0.97960  1.0000
  N   N24       1.0  0.06892  0.26697  0.74171  1.0000
  C   C269      1.0  0.04182  0.26980  0.74903  1.0000
  C   C270      1.0  0.08891  0.27480  0.74887  1.0000
  C   C271      1.0  0.48636  0.35753  0.87412  1.0000
  H   H280      1.0  0.35646  0.27036  0.75881  1.0000
  C   C272      1.0  0.08202  0.28584  0.76369  1.0000
  C   C273      1.0  0.30729  0.45257  0.94874  1.0000
  C   C274      1.0  0.07665  0.25610  0.72470  1.0000
  C   C275      1.0  0.48300  0.26209  0.84552  1.0000
  C   C276      1.0  0.35957  0.24861  0.76976  1.0000
  H   H281      1.0  0.31316  0.48684  0.93661  1.0000
  C   C277      1.0  0.40821  0.25001  0.83041  1.0000
  S   S95       1.0  0.18916  0.42511  0.49940  1.0000
  N   N25       1.0  0.32354  0.45010  0.96973  1.0000
  C   C278      1.0  0.02983  0.31665  0.72647  1.0000
  C   C279      1.0  0.50133  0.29897  0.80127  1.0000
  H   H282      1.0  0.05234  0.42475  0.52185  1.0000
  H   H283      1.0  0.43710  0.47880  0.90044  1.0000
  C   C280      1.0  0.05447  0.28882  0.77120  1.0000
  C   C281      1.0  0.39578  0.24957  0.85515  1.0000
  C   C282      1.0  0.03522  0.42216  0.51095  1.0000
  H   H284      1.0  0.29114  0.46766  0.91943  1.0000
  H   H285      1.0  0.34145  0.48231  0.97539  1.0000
  H   H286      1.0  0.02869  0.32590  0.73639  1.0000
  C   C283      1.0  0.33126  0.47404  0.96820  1.0000
  C   C284      1.0  0.03421  0.28071  0.76400  1.0000
  C   C285      1.0  0.18577  0.24655  0.67456  1.0000
  C   C286      1.0  0.51177  0.26101  0.84140  1.0000
  H   H287      1.0  0.01708  0.48897  0.72148  1.0000
  C   C287      1.0  0.51532  0.28229  0.85882  1.0000
  H   H288      1.0  0.35048  0.43409  0.98700  1.0000
  Fe  Fe49      1.0  0.12696  0.55340  0.45235  1.0000
  S   S96       1.0  0.17044  0.55867  0.45735  1.0000
  S   S97       1.0  0.10894  0.53443  0.44099  1.0000
  C   C288      1.0  0.17355  0.71249  0.26985  1.0000
  H   H289      1.0  0.03416  0.60085  0.40452  1.0000
  C   C289      1.0  0.23764  0.65765  0.20150  1.0000
  Fe  Fe50      1.0  0.15641  0.57999  0.44124  1.0000
  S   S98       1.0  0.18031  0.59178  0.40959  1.0000
  C   C290      1.0  0.42955  0.65726  0.10598  1.0000
  S   S99       1.0  0.11473  0.57397  0.43229  1.0000
  H   H290      1.0  0.11582  0.63670  0.35799  1.0000
  S   S100      1.0  0.40758  0.55718  0.01226  1.0000
  Fe  Fe51      1.0  0.40237  0.58559  0.06114  1.0000
  S   S101      1.0  0.44124  0.57267  0.05244  1.0000
  S   S102      1.0  0.41117  0.59900  0.09289  1.0000
  Fe  Fe52      1.0  0.43009  0.57624  0.01126  1.0000
  H   H291      1.0  0.47513  0.54043  0.10727  1.0000
  Fe  Fe53      1.0  0.41451  0.55500  0.05480  1.0000
  S   S103      1.0  0.42916  0.53469  0.07522  1.0000
  S   S104      1.0  0.37612  0.56753  0.06583  1.0000
  Fe  Fe54      1.0  0.40977  0.67549  0.17782  1.0000
  S   S105      1.0  0.38676  0.68362  0.14236  1.0000
  S   S106      1.0  0.45522  0.67495  0.16499  1.0000
  Fe  Fe55      1.0  0.35504  0.67208  0.20932  1.0000
  S   S107      1.0  0.32967  0.67971  0.17556  1.0000
  S   S108      1.0  0.33190  0.66504  0.24669  1.0000
  Fe  Fe56      1.0  0.35936  0.66645  0.15275  1.0000
  S   S109      1.0  0.34323  0.65339  0.12364  1.0000
  Fe  Fe57      1.0  0.36000  0.69599  0.16903  1.0000
  S   S110      1.0  0.34394  0.71809  0.16067  1.0000
  S   S111      1.0  0.38332  0.65763  0.18682  1.0000
  S   S112      1.0  0.38432  0.68909  0.20403  1.0000
  Fe  Fe58      1.0  0.11160  0.66782  0.31309  1.0000
  S   S113      1.0  0.11365  0.67810  0.34950  1.0000
  S   S114      1.0  0.07294  0.65651  0.30898  1.0000
  Fe  Fe59      1.0  0.17173  0.67460  0.29600  1.0000
  S   S115      1.0  0.17745  0.68502  0.33196  1.0000
  S   S116      1.0  0.20162  0.67717  0.26099  1.0000
  Fe  Fe60      1.0  0.15589  0.66722  0.35241  1.0000
  S   S117      1.0  0.16493  0.65654  0.39189  1.0000
  Fe  Fe61      1.0  0.13470  0.69467  0.32544  1.0000
  S   S118      1.0  0.11999  0.71715  0.32274  1.0000
  S   S119      1.0  0.15317  0.65606  0.31692  1.0000
  S   S120      1.0  0.12957  0.68512  0.28855  1.0000
  C   C291      1.0  0.16287  0.50399  0.39575  1.0000
  N   N26       1.0  0.22581  0.60273  0.45155  1.0000
  C   C292      1.0  0.13951  0.73029  0.33141  1.0000
  H   H292      1.0  0.02787  0.55874  0.42151  1.0000
  C   C293      1.0  0.05774  0.62850  0.36822  1.0000
  N   N27       1.0  0.29169  0.64627  0.19780  1.0000
  H   H293      1.0  0.12435  0.49624  0.38698  1.0000
  C   C294      1.0  0.16035  0.72797  0.34934  1.0000
  C   C295      1.0  0.50286  0.58146  0.01252  1.0000
  H   H294      1.0  0.42703  0.57021  0.11280  1.0000
  H   H295      1.0  0.16590  0.71765  0.35746  1.0000
  C   C296      1.0  0.04057  0.66552  0.30281  1.0000
  C   C297      1.0  0.03868  0.67929  0.29317  1.0000
  C   C298      1.0  0.50643  0.69798  0.21885  1.0000
  H   H296      1.0  0.05727  0.68472  0.28978  1.0000
  H   H297      1.0  0.33122  0.49816  0.20724  1.0000
  C   C299      1.0  0.36637  0.73127  0.16250  1.0000
  C   C300      1.0  0.39402  0.72833  0.16877  1.0000
  H   H298      1.0  0.07291  0.73662  0.35218  1.0000
  C   C301      1.0  0.48746  0.58929  0.99363  1.0000
  H   H299      1.0  0.43156  0.55198  0.11720  1.0000
  H   H300      1.0  0.33776  0.72906  0.21710  1.0000
  H   H301      1.0  0.40225  0.71779  0.17155  1.0000
  H   H302      1.0  0.39818  0.62937  0.04435  1.0000
  C   C302      1.0  0.24890  0.64944  0.22223  1.0000
  C   C303      1.0  0.48569  0.67103  0.18228  1.0000
  C   C304      1.0  0.42032  0.63044  0.04782  1.0000
  C   C305      1.0  0.36888  0.74217  0.22651  1.0000
  C   C306      1.0  0.29617  0.66977  0.25220  1.0000
  C   C307      1.0  0.28131  0.67867  0.23450  1.0000
  C   C308      1.0  0.25259  0.68133  0.23823  1.0000
  C   C309      1.0  0.23829  0.67522  0.25979  1.0000
  C   C310      1.0  0.25324  0.66674  0.27812  1.0000
  C   C311      1.0  0.28204  0.66400  0.27427  1.0000
  H   H303      1.0  0.29180  0.68341  0.21773  1.0000
  H   H304      1.0  0.24127  0.68790  0.22392  1.0000
  H   H305      1.0  0.24251  0.66191  0.29477  1.0000
  H   H306      1.0  0.29332  0.65716  0.28820  1.0000
  N   N28       1.0  0.42320  0.63953  0.06825  1.0000
  C   C312      1.0  0.20540  0.72222  0.29753  1.0000
  S   S121      1.0  0.33102  0.56842  0.00442  1.0000
  C   C313      1.0  0.39051  0.61344  0.10233  1.0000
  C   C314      1.0  0.39922  0.62044  0.12254  1.0000
  C   C315      1.0  0.38459  0.63252  0.12961  1.0000
  C   C316      1.0  0.36102  0.63771  0.11651  1.0000
  C   C317      1.0  0.35198  0.63057  0.09660  1.0000
  C   C318      1.0  0.36666  0.61848  0.08950  1.0000
  H   H307      1.0  0.41762  0.61662  0.13261  1.0000
  H   H308      1.0  0.39182  0.63791  0.14493  1.0000
  H   H309      1.0  0.33371  0.63450  0.08641  1.0000
  H   H310      1.0  0.35968  0.61315  0.07395  1.0000
  C   C319      1.0  0.40600  0.52677  0.09778  1.0000
  C   C320      1.0  0.41206  0.51318  0.10760  1.0000
  C   C321      1.0  0.39294  0.50638  0.12424  1.0000
  C   C322      1.0  0.36778  0.51321  0.13117  1.0000
  C   C323      1.0  0.36236  0.52698  0.12238  1.0000
  C   C324      1.0  0.38134  0.53371  0.10563  1.0000
  H   H311      1.0  0.43127  0.50778  0.10186  1.0000
  H   H312      1.0  0.10428  0.73225  0.38844  1.0000
  H   H313      1.0  0.34305  0.53235  0.12792  1.0000
  H   H314      1.0  0.37666  0.54422  0.09871  1.0000
  C   C325      1.0  0.03570  0.58445  0.45967  1.0000
  H   H315      1.0  0.23467  0.60216  0.41107  1.0000
  C   C326      1.0  0.04256  0.57321  0.44542  1.0000
  S   S122      1.0  0.34179  0.50455  0.14891  1.0000
  H   H316      1.0  0.06296  0.56820  0.44585  1.0000
  C   C327      1.0  0.17307  0.60964  0.40430  1.0000
  C   C328      1.0  0.16385  0.61747  0.42454  1.0000
  C   C329      1.0  0.16145  0.63186  0.42051  1.0000
  C   C330      1.0  0.16744  0.63847  0.39607  1.0000
  C   C331      1.0  0.17590  0.63061  0.37569  1.0000
  C   C332      1.0  0.17910  0.61626  0.37991  1.0000
  H   H317      1.0  0.15937  0.61249  0.44347  1.0000
  H   H318      1.0  0.15490  0.63790  0.43636  1.0000
  H   H319      1.0  0.18088  0.63560  0.35687  1.0000
  H   H320      1.0  0.18651  0.61026  0.36424  1.0000
  C   C333      1.0  0.13009  0.52306  0.42319  1.0000
  C   C334      1.0  0.11780  0.51310  0.41079  1.0000
  H   H321      1.0  0.03349  0.52974  0.45595  1.0000
  H   H322      1.0  0.25894  0.61067  0.42835  1.0000
  C   C335      1.0  0.17522  0.51390  0.40825  1.0000
  C   C336      1.0  0.15885  0.52351  0.42178  1.0000
  H   H323      1.0  0.39746  0.49579  0.13126  1.0000
  C   C337      1.0  0.09961  0.64064  0.37170  1.0000
  H   H324      1.0  0.19747  0.51420  0.40738  1.0000
  H   H325      1.0  0.16847  0.53115  0.43130  1.0000
  H   H326      1.0  0.05219  0.63555  0.35164  1.0000
  C   C338      1.0  0.23681  0.60889  0.42684  1.0000
  C   C339      1.0  0.51106  0.67351  0.16937  1.0000
  H   H327      1.0  0.02134  0.61720  0.36681  1.0000
  H   H328      1.0  0.06576  0.54149  0.48039  1.0000
  H   H329      1.0  0.38156  0.51821  0.03781  1.0000
  C   C340      1.0  0.17664  0.73719  0.27013  1.0000
  C   C341      1.0  0.47980  0.57453  0.10294  1.0000
  H   H330      1.0  0.46121  0.71604  0.19177  1.0000
  H   H331      1.0  0.38683  0.65217  0.05852  1.0000
  C   C342      1.0  0.41099  0.73907  0.17145  1.0000
  C   C343      1.0  0.47049  0.70572  0.18799  1.0000
  C   C344      1.0  0.13411  0.50369  0.39687  1.0000
  C   C345      1.0  0.31301  0.52970  0.07242  1.0000
  C   C346      1.0  0.51052  0.55070  0.09183  1.0000
  C   C347      1.0  0.27622  0.64393  0.22014  1.0000
  H   H332      1.0  0.43075  0.63452  0.02964  1.0000
  H   H333      1.0  0.10968  0.64454  0.38807  1.0000
  H   H334      1.0  0.39193  0.66791  0.09213  1.0000
  C   C348      1.0  0.32505  0.53861  0.05353  1.0000
  C   C349      1.0  0.28074  0.65419  0.17721  1.0000
  H   H335      1.0  0.08783  0.64958  0.36175  1.0000
  C   C350      1.0  0.36214  0.52131  0.04747  1.0000
  H   H336      1.0  0.31537  0.54878  0.04859  1.0000
  H   H337      1.0  0.11598  0.74555  0.30755  1.0000
  N   N29       1.0  0.46880  0.56211  0.10835  1.0000
  C   C351      1.0  0.22713  0.58878  0.45648  1.0000
  H   H338      1.0  0.24523  0.66659  0.16270  1.0000
  H   H339      1.0  0.51143  0.67754  0.14933  1.0000
  C   C352      1.0  0.51048  0.66312  0.22098  1.0000
  H   H340      1.0  0.23456  0.58222  0.44159  1.0000
  C   C353      1.0  0.48541  0.66584  0.20818  1.0000
  C   C354      1.0  0.36264  0.49866  0.07151  1.0000
  Fe  Fe62      1.0  0.37109  0.57100  0.02286  1.0000
  C   C355      1.0  0.21673  0.73341  0.30689  1.0000
  C   C356      1.0  0.08895  0.62067  0.40112  1.0000
  H   H341      1.0  0.33065  0.64310  0.17733  1.0000
  H   H342      1.0  0.21450  0.62205  0.46612  1.0000
  H   H343      1.0  0.46001  0.62863  0.08205  1.0000
  C   C357      1.0  0.40451  0.65050  0.07073  1.0000
  H   H344      1.0  0.51021  0.65905  0.24101  1.0000
  H   H345      1.0  0.31642  0.50977  0.09317  1.0000
  H   H346      1.0  0.46580  0.64429  0.11601  1.0000
  C   C358      1.0  0.32578  0.51660  0.07829  1.0000
  N   N30       1.0  0.08146  0.62979  0.38077  1.0000
  H   H347      1.0  0.43180  0.66405  0.12098  1.0000
  C   C359      1.0  0.04749  0.60895  0.39772  1.0000
  H   H348      1.0  0.46597  0.66384  0.21829  1.0000
  H   H349      1.0  0.49826  0.57098  0.01815  1.0000
  H   H350      1.0  0.22515  0.61878  0.42098  1.0000
  C   C360      1.0  0.34971  0.53439  0.04091  1.0000
  S   S123      1.0  0.14327  0.58749  0.47968  1.0000
  C   C361      1.0  0.04029  0.61812  0.37661  1.0000
  C   C362      1.0  0.13220  0.74368  0.32130  1.0000
  C   C363      1.0  0.44866  0.64613  0.10317  1.0000
  H   H351      1.0  0.29304  0.65613  0.15950  1.0000
  H   H352      1.0  0.21681  0.66239  0.20338  1.0000
  N   N31       1.0  0.35014  0.51261  0.06597  1.0000
  H   H353      1.0  0.35902  0.54125  0.02610  1.0000
  H   H354      1.0  0.33229  0.64355  0.21165  1.0000
  N   N32       1.0  0.18543  0.72422  0.27955  1.0000
  C   C364      1.0  0.44523  0.63734  0.08399  1.0000
  H   H355      1.0  0.45815  0.69785  0.19889  1.0000
  H   H356      1.0  0.32010  0.62879  0.19838  1.0000
  C   C365      1.0  0.25363  0.66007  0.17883  1.0000
  C   C366      1.0  0.17341  0.73913  0.35739  1.0000
  H   H357      1.0  0.23683  0.64782  0.24017  1.0000
  H   H358      1.0  0.23185  0.73182  0.32179  1.0000
  H   H359      1.0  0.09555  0.51278  0.41168  1.0000
  H   H360      1.0  0.07788  0.60304  0.42633  1.0000
  H   H361      1.0  0.46772  0.58391  0.10691  1.0000
  Fe  Fe63      1.0  0.10226  0.57974  0.47193  1.0000
  H   H362      1.0  0.21893  0.57170  0.48436  1.0000
  C   C367      1.0  0.50630  0.57533  0.09141  1.0000
  H   H363      1.0  0.46875  0.70419  0.16722  1.0000
  N   N33       1.0  0.49947  0.70424  0.19523  1.0000
  C   C368      1.0  0.07203  0.61018  0.41000  1.0000
  S   S124      1.0  0.39318  0.59051  0.01913  1.0000
  C   C369      1.0  0.40734  0.65949  0.08966  1.0000
  C   C370      1.0  0.51466  0.60859  0.99812  1.0000
  H   H364      1.0  0.28521  0.63803  0.23672  1.0000
  H   H365      1.0  0.10806  0.62150  0.41066  1.0000
  H   H366      1.0  0.42949  0.61992  0.05331  1.0000
  C   C371      1.0  0.32008  0.64013  0.19615  1.0000
  H   H367      1.0  0.21228  0.71193  0.30510  1.0000
  H   H368      1.0  0.18933  0.73735  0.37145  1.0000
  H   H369      1.0  0.17951  0.70277  0.28145  1.0000
  H   H370      1.0  0.15059  0.71382  0.27093  1.0000
  H   H371      1.0  0.16062  0.73875  0.25607  1.0000
  C   C372      1.0  0.02242  0.56766  0.43194  1.0000
  C   C373      1.0  0.04368  0.54398  0.48253  1.0000
  H   H372      1.0  0.18086  0.71131  0.24960  1.0000
  H   H373      1.0  0.29395  0.53292  0.08251  1.0000
  H   H374      1.0  0.49083  0.69354  0.23190  1.0000
  H   H375      1.0  0.02205  0.50709  0.30751  1.0000
  C   C374      1.0  0.02549  0.53733  0.46879  1.0000
  C   C375      1.0  0.48384  0.55028  0.10309  1.0000
  H   H376      1.0  0.38558  0.49855  0.07047  1.0000
  H   H377      1.0  0.51378  0.71469  0.16003  1.0000
  C   C376      1.0  0.09896  0.74269  0.38068  1.0000
  H   H378      1.0  0.44232  0.56206  0.14185  1.0000
  C   C377      1.0  0.44112  0.56154  0.12073  1.0000
  C   C378      1.0  0.21573  0.61099  0.47010  1.0000
  H   H379      1.0  0.51474  0.58519  0.08650  1.0000
  H   H380      1.0  0.43235  0.73679  0.17626  1.0000
  H   H381      1.0  0.32563  0.50344  0.23928  1.0000
  C   C379      1.0  0.34225  0.73941  0.22053  1.0000
  C   C380      1.0  0.21826  0.58277  0.48054  1.0000
  H   H382      1.0  0.38514  0.73398  0.22784  1.0000
  C   C381      1.0  0.35592  0.74499  0.15876  1.0000
  C   C382      1.0  0.08109  0.74526  0.36017  1.0000
  S   S125      1.0  0.06064  0.59080  0.47802  1.0000
  H   H383      1.0  0.01749  0.64790  0.31421  1.0000
  S   S126      1.0  0.18166  0.55884  0.52902  1.0000
  Fe  Fe64      1.0  0.14080  0.53180  0.67038  1.0000
  S   S127      1.0  0.12669  0.53071  0.71239  1.0000
  S   S128      1.0  0.12857  0.55009  0.64247  1.0000
  C   C383      1.0  0.27961  0.54946  0.77035  1.0000
  H   H384      1.0  0.37138  0.57975  0.93149  1.0000
  S   S129      1.0  0.15039  0.49878  0.71606  1.0000
  S   S130      1.0  0.19214  0.52241  0.75608  1.0000
  C   C384      1.0  0.20804  0.59111  0.49958  1.0000
  H   H385      1.0  0.21232  0.54958  0.75907  1.0000
  Fe  Fe65      1.0  0.34763  0.53615  0.87055  1.0000
  S   S131      1.0  0.36142  0.53819  0.82877  1.0000
  S   S132      1.0  0.32768  0.55501  0.88737  1.0000
  Fe  Fe66      1.0  0.34239  0.51815  0.82611  1.0000
  S   S133      1.0  0.31855  0.51499  0.78995  1.0000
  Fe  Fe67      1.0  0.40035  0.52596  0.84136  1.0000
  H   H386      1.0  0.31946  0.54657  0.78759  1.0000
  S   S134      1.0  0.32594  0.51695  0.86740  1.0000
  S   S135      1.0  0.38743  0.52548  0.88316  1.0000
  H   H387      1.0  0.19822  0.61187  0.50891  1.0000
  H   H388      1.0  0.29811  0.57922  0.96257  1.0000
  H   H389      1.0  0.12805  0.56774  0.55141  1.0000
  H   H390      1.0  0.36481  0.54845  0.97520  1.0000
  Fe  Fe68      1.0  0.16816  0.51901  0.71998  1.0000
  C   C385      1.0  0.43921  0.55007  0.89083  1.0000
  H   H391      1.0  0.24110  0.54528  0.73837  1.0000
  C   C386      1.0  0.47933  0.51320  0.84501  1.0000
  H   H392      1.0  0.46180  0.50702  0.84850  1.0000
  C   C387      1.0  0.32961  0.55796  0.92024  1.0000
  C   C388      1.0  0.31172  0.56832  0.92973  1.0000
  C   C389      1.0  0.31249  0.57135  0.95546  1.0000
  C   C390      1.0  0.33177  0.56438  0.97195  1.0000
  C   C391      1.0  0.35010  0.55406  0.96254  1.0000
  C   C392      1.0  0.34884  0.55076  0.93673  1.0000
  H   H393      1.0  0.29684  0.57394  0.91719  1.0000
  H   H394      1.0  0.39265  0.57382  0.95792  1.0000
  H   H395      1.0  0.21758  0.51209  0.55600  1.0000
  H   H396      1.0  0.36277  0.54273  0.92957  1.0000
  H   H397      1.0  0.20082  0.58654  0.51822  1.0000
  C   C393      1.0  0.41472  0.55685  0.88200  1.0000
  H   H398      1.0  0.48165  0.60885  0.97166  1.0000
  C   C394      1.0  0.22714  0.51884  0.76561  1.0000
  C   C395      1.0  0.23360  0.52037  0.79131  1.0000
  C   C396      1.0  0.26122  0.51887  0.79933  1.0000
  C   C397      1.0  0.28297  0.51590  0.78168  1.0000
  C   C398      1.0  0.27648  0.51418  0.75608  1.0000
  C   C399      1.0  0.24884  0.51559  0.74810  1.0000
  S   S136      1.0  0.12184  0.51251  0.66301  1.0000
  H   H399      1.0  0.26571  0.52018  0.81908  1.0000
  N   N34       1.0  0.40845  0.56786  0.92146  1.0000
  H   H400      1.0  0.04711  0.52857  0.70025  1.0000
  C   C400      1.0  0.16699  0.55688  0.56066  1.0000
  C   C401      1.0  0.18240  0.54962  0.58031  1.0000
  C   C402      1.0  0.17072  0.54724  0.60540  1.0000
  C   C403      1.0  0.14376  0.55242  0.61112  1.0000
  C   C404      1.0  0.12859  0.55994  0.59158  1.0000
  C   C405      1.0  0.14003  0.56204  0.56635  1.0000
  H   H401      1.0  0.20335  0.54569  0.57609  1.0000
  H   H402      1.0  0.18269  0.54161  0.62042  1.0000
  H   H403      1.0  0.10785  0.56412  0.59599  1.0000
  C   C406      1.0  0.29748  0.54899  0.79082  1.0000
  H   H404      1.0  0.30028  0.55044  0.83174  1.0000
  C   C407      1.0  0.24094  0.55399  0.79861  1.0000
  C   C408      1.0  0.25824  0.55356  0.81954  1.0000
  C   C409      1.0  0.47515  0.52699  0.83590  1.0000
  H   H405      1.0  0.23178  0.56311  0.74297  1.0000
  C   C410      1.0  0.39321  0.57776  0.93722  1.0000
  S   S137      1.0  0.18311  0.52169  0.67824  1.0000
  C   C411      1.0  0.43256  0.56132  0.93018  1.0000
  C   C412      1.0  0.49825  0.53485  0.83137  1.0000
  H   H406      1.0  0.21881  0.55578  0.80187  1.0000
  C   C413      1.0  0.23338  0.55257  0.75264  1.0000
  C   C414      1.0  0.19275  0.50925  0.59115  1.0000
  C   C415      1.0  0.39943  0.56574  0.89768  1.0000
  C   C416      1.0  0.50638  0.50727  0.84882  1.0000
  H   H407      1.0  0.24967  0.55501  0.83878  1.0000
  C   C417      1.0  0.28669  0.55102  0.81558  1.0000
  N   N35       1.0  0.15049  0.52361  0.56354  1.0000
  C   C418      1.0  0.17587  0.52111  0.55168  1.0000
  N   N36       1.0  0.25171  0.55181  0.77445  1.0000
  H   H408      1.0  0.45117  0.54309  0.87891  1.0000
  Fe  Fe69      1.0  0.11027  0.51061  0.70516  1.0000
  S   S138      1.0  0.38297  0.50590  0.83531  1.0000
  Fe  Fe70      1.0  0.36746  0.50628  0.87663  1.0000
  Fe  Fe71      1.0  0.15435  0.56575  0.49548  1.0000
  C   C419      1.0  0.12791  0.53069  0.54870  1.0000
  H   H409      1.0  0.29302  0.51184  0.74221  1.0000
  H   H410      1.0  0.21707  0.52286  0.80509  1.0000
  H   H411      1.0  0.11343  0.53667  0.56130  1.0000
  H   H412      1.0  0.40345  0.58756  0.93529  1.0000
  C   C420      1.0  0.19740  0.51392  0.56532  1.0000
  H   H413      1.0  0.24440  0.51441  0.72828  1.0000
  C   C421      1.0  0.44821  0.55228  0.91508  1.0000
  H   H414      1.0  0.28816  0.54743  0.75136  1.0000
  C   C422      1.0  0.14577  0.51904  0.58884  1.0000
  C   C423      1.0  0.03329  0.55433  0.49787  1.0000
  S   S139      1.0  0.44163  0.53480  0.82940  1.0000
  C   C424      1.0  0.16686  0.51188  0.60298  1.0000
  H   H415      1.0  0.17971  0.52492  0.53172  1.0000
  H   H416      1.0  0.16329  0.50847  0.62308  1.0000
  H   H417      1.0  0.40754  0.55510  0.86317  1.0000
  H   H418      1.0  0.13601  0.53812  0.53336  1.0000
  C   C425      1.0  0.03016  0.52198  0.70333  1.0000
  H   H419      1.0  0.50946  0.49651  0.85526  1.0000
  H   H420      1.0  0.04767  0.55986  0.50761  1.0000
  H   H421      1.0  0.46726  0.54705  0.92207  1.0000
  C   C426      1.0  0.03559  0.50807  0.71114  1.0000
  H   H422      1.0  0.38020  0.57081  0.89075  1.0000
  H   H423      1.0  0.43983  0.56309  0.94892  1.0000
  H   H424      1.0  0.12582  0.52115  0.59844  1.0000
  H   H425      1.0  0.11646  0.52313  0.53963  1.0000
  S   S140      1.0  0.11194  0.55887  0.49167  1.0000
  H   H426      1.0  0.49527  0.54551  0.82423  1.0000
  Fe  Fe72      1.0  0.16273  0.50218  0.67411  1.0000
  C   C427      1.0  0.20656  0.60532  0.49433  1.0000
  H   H427      1.0  0.20909  0.50363  0.60215  1.0000
  S   S141      1.0  0.06974  0.50077  0.71683  1.0000
  S   S142      1.0  0.46030  0.58233  0.97950  1.0000
  C   C428      1.0  0.49357  0.60279  0.98623  1.0000
  Fe  Fe73      1.0  0.40399  0.78745  0.17796  1.0000
  S   S143      1.0  0.41279  0.79446  0.21640  1.0000
  S   S144      1.0  0.42200  0.76584  0.17343  1.0000
  Fe  Fe74      1.0  0.37872  0.81587  0.15894  1.0000
  S   S145      1.0  0.38559  0.82467  0.19623  1.0000
  S   S146      1.0  0.35837  0.82994  0.12732  1.0000
  Fe  Fe75      1.0  0.42748  0.81322  0.19387  1.0000
  S   S147      1.0  0.46747  0.82356  0.19603  1.0000
  Fe  Fe76      1.0  0.36991  0.80498  0.21480  1.0000
  S   S148      1.0  0.34186  0.80211  0.25082  1.0000
  S   S149      1.0  0.42138  0.80564  0.15538  1.0000
  S   S150      1.0  0.36024  0.79677  0.17763  1.0000
  Fe  Fe77      1.0  0.16939  0.78714  0.33668  1.0000
  S   S151      1.0  0.16026  0.78679  0.29506  1.0000
  S   S152      1.0  0.18191  0.76657  0.35773  1.0000
  Fe  Fe78      1.0  0.15350  0.81785  0.33654  1.0000
  S   S153      1.0  0.14255  0.81909  0.29470  1.0000
  S   S154      1.0  0.14444  0.83886  0.35150  1.0000
  Fe  Fe79      1.0  0.12171  0.79962  0.30526  1.0000
  S   S155      1.0  0.08116  0.79188  0.29462  1.0000
  Fe  Fe80      1.0  0.18220  0.80611  0.28908  1.0000
  S   S156      1.0  0.21034  0.81051  0.25361  1.0000
  S   S157      1.0  0.12996  0.79915  0.34728  1.0000
  S   S158      1.0  0.19436  0.80582  0.33025  1.0000
  C   C429      1.0  0.19713  0.84441  0.30484  1.0000
  H   H428      1.0  0.19026  0.85689  0.25230  1.0000
  S   S159      1.0  0.14034  0.92768  0.39712  1.0000
  Fe  Fe81      1.0  0.40680  0.89953  0.05932  1.0000
  S   S160      1.0  0.42300  0.91713  0.07713  1.0000
  S   S161      1.0  0.42547  0.87982  0.07936  1.0000
  Fe  Fe82      1.0  0.37646  0.91872  0.01863  1.0000
  S   S162      1.0  0.38983  0.93765  0.03405  1.0000
  C   C430      1.0  0.05833  0.76086  0.32670  1.0000
  Fe  Fe83      1.0  0.43103  0.92600  0.03664  1.0000
  S   S163      1.0  0.46932  0.93532  0.01977  1.0000
  Fe  Fe84      1.0  0.38040  0.92711  0.07299  1.0000
  S   S164      1.0  0.35837  0.93778  0.10532  1.0000
  S   S165      1.0  0.41857  0.90764  0.01879  1.0000
  S   S166      1.0  0.36314  0.90895  0.05782  1.0000
  C   C431      1.0  0.03603  0.90283  0.47739  1.0000
  H   H429      1.0  0.23746  0.96427  0.39444  1.0000
  N   N37       1.0  0.07549  0.75833  0.34932  1.0000
  H   H430      1.0  0.24364  0.83629  0.25802  1.0000
  C   C432      1.0  0.19059  0.84575  0.25829  1.0000
  C   C433      1.0  0.18762  0.74860  0.27897  1.0000
  C   C434      1.0  0.24064  0.83614  0.32323  1.0000
  S   S167      1.0  0.42748  0.98307  0.14556  1.0000
  H   H431      1.0  0.19827  0.83991  0.24175  1.0000
  H   H432      1.0  0.28974  0.77220  0.20517  1.0000
  H   H433      1.0  0.27286  0.83032  0.29560  1.0000
  C   C435      1.0  0.25168  0.83443  0.29843  1.0000
  C   C436      1.0  0.23500  0.83779  0.27722  1.0000
  H   H434      1.0  0.25319  0.83344  0.33991  1.0000
  S   S168      1.0  0.18555  0.98595  0.40238  1.0000
  C   C437      1.0  0.08766  0.95222  0.42528  1.0000
  C   C438      1.0  0.49661  0.93249  0.04099  1.0000
  C   C439      1.0  0.49131  0.93029  0.06759  1.0000
  H   H435      1.0  0.08838  0.95340  0.33645  1.0000
  H   H436      1.0  0.47045  0.93142  0.07546  1.0000
  H   H437      1.0  0.14798  0.87644  0.40641  1.0000
  C   C440      1.0  0.37805  0.94973  0.11805  1.0000
  C   C441      1.0  0.36615  0.95810  0.13663  1.0000
  C   C442      1.0  0.38121  0.96829  0.14567  1.0000
  C   C443      1.0  0.40829  0.96998  0.13630  1.0000
  C   C444      1.0  0.42034  0.96138  0.11822  1.0000
  C   C445      1.0  0.40523  0.95135  0.10898  1.0000
  H   H438      1.0  0.34513  0.95687  0.14373  1.0000
  H   H439      1.0  0.37184  0.97486  0.15972  1.0000
  H   H440      1.0  0.44132  0.96263  0.11097  1.0000
  H   H441      1.0  0.41455  0.94502  0.09459  1.0000
  H   H442      1.0  0.39552  0.75793  0.23371  1.0000
  C   C446      1.0  0.15309  0.94384  0.39858  1.0000
  C   C447      1.0  0.15798  0.94860  0.42234  1.0000
  C   C448      1.0  0.16688  0.96178  0.42335  1.0000
  C   C449      1.0  0.17142  0.97016  0.40059  1.0000
  C   C450      1.0  0.16650  0.96544  0.37679  1.0000
  C   C451      1.0  0.15736  0.95228  0.37580  1.0000
  H   H443      1.0  0.15500  0.94215  0.43999  1.0000
  H   H444      1.0  0.17067  0.96540  0.44180  1.0000
  H   H445      1.0  0.17029  0.97179  0.35912  1.0000
  H   H446      1.0  0.15366  0.94862  0.35735  1.0000
  C   C452      1.0  0.04879  0.80078  0.30061  1.0000
  H   H447      1.0  0.04601  0.75205  0.32408  1.0000
  H   H448      1.0  0.16912  0.84285  0.26295  1.0000
  H   H449      1.0  0.06533  0.81874  0.31291  1.0000
  C   C453      1.0  0.15383  0.84572  0.37986  1.0000
  C   C454      1.0  0.14728  0.85972  0.38231  1.0000
  C   C455      1.0  0.15330  0.86567  0.40479  1.0000
  C   C456      1.0  0.16592  0.85766  0.42514  1.0000
  C   C457      1.0  0.17286  0.84368  0.42258  1.0000
  C   C458      1.0  0.16688  0.83772  0.39999  1.0000
  H   H450      1.0  0.13726  0.86600  0.36678  1.0000
  C   C459      1.0  0.21327  0.84129  0.32649  1.0000
  H   H451      1.0  0.18261  0.83741  0.43826  1.0000
  H   H452      1.0  0.17201  0.82692  0.39834  1.0000
  C   C460      1.0  0.49805  0.81402  0.20561  1.0000
  H   H453      1.0  0.30135  0.74796  0.21240  1.0000
  H   H454      1.0  0.10001  0.97813  0.41335  1.0000
  H   H455      1.0  0.47788  0.79972  0.23257  1.0000
  C   C461      1.0  0.20766  0.74668  0.29760  1.0000
  C   C462      1.0  0.37770  0.84329  0.11271  1.0000
  C   C463      1.0  0.40446  0.84486  0.12032  1.0000
  C   C464      1.0  0.41887  0.85603  0.10966  1.0000
  C   C465      1.0  0.40652  0.86587  0.09169  1.0000
  C   C466      1.0  0.37974  0.86435  0.08407  1.0000
  C   C467      1.0  0.36552  0.85298  0.09432  1.0000
  H   H456      1.0  0.41403  0.83747  0.13449  1.0000
  H   H457      1.0  0.43964  0.85710  0.11553  1.0000
  H   H458      1.0  0.37015  0.87181  0.07004  1.0000
  H   H459      1.0  0.34486  0.85179  0.08830  1.0000
  C   C468      1.0  0.30530  0.80443  0.25114  1.0000
  C   C469      1.0  0.29110  0.80939  0.22904  1.0000
  C   C470      1.0  0.26200  0.81093  0.23001  1.0000
  C   C471      1.0  0.24681  0.80755  0.25302  1.0000
  C   C472      1.0  0.26100  0.80255  0.27511  1.0000
  C   C473      1.0  0.29011  0.80102  0.27415  1.0000
  H   H460      1.0  0.30253  0.81208  0.21121  1.0000
  H   H461      1.0  0.25121  0.81484  0.21284  1.0000
  H   H462      1.0  0.24957  0.79997  0.29298  1.0000
  H   H463      1.0  0.30092  0.79717  0.29134  1.0000
  H   H464      1.0  0.13802  0.76502  0.32243  1.0000
  H   H465      1.0  0.36448  0.76624  0.15921  1.0000
  H   H466      1.0  0.20440  0.84267  0.34568  1.0000
  N   N38       1.0  0.36549  0.88784  0.13473  1.0000
  C   C474      1.0  0.37527  0.87653  0.14977  1.0000
  C   C475      1.0  0.34027  0.88812  0.12386  1.0000
  C   C476      1.0  0.35952  0.86516  0.15458  1.0000
  C   C477      1.0  0.32410  0.87685  0.12806  1.0000
  C   C478      1.0  0.33383  0.86532  0.14356  1.0000
  C   C479      1.0  0.38249  0.89961  0.13021  1.0000
  H   H467      1.0  0.39565  0.87614  0.15764  1.0000
  H   H468      1.0  0.33268  0.89699  0.11159  1.0000
  H   H469      1.0  0.36768  0.85600  0.16576  1.0000
  H   H470      1.0  0.30445  0.87693  0.11890  1.0000
  H   H471      1.0  0.32208  0.85627  0.14619  1.0000
  H   H472      1.0  0.38666  0.90366  0.14879  1.0000
  H   H473      1.0  0.40241  0.89648  0.12033  1.0000
  H   H474      1.0  0.37218  0.90816  0.11790  1.0000
  C   C480      1.0  0.37278  0.75572  0.16190  1.0000
  H   H475      1.0  0.10459  0.99023  0.36984  1.0000
  S   S169      1.0  0.11725  0.89562  0.44141  1.0000
  C   C481      1.0  0.48875  0.89494  0.05655  1.0000
  H   H476      1.0  0.09327  0.94103  0.42527  1.0000
  Fe  Fe85      1.0  0.10517  0.90304  0.48007  1.0000
  C   C482      1.0  0.22881  0.94305  0.40239  1.0000
  C   C483      1.0  0.49610  0.98882  0.17775  1.0000
  C   C484      1.0  0.30599  0.77447  0.21821  1.0000
  S   S170      1.0  0.17145  0.86458  0.45460  1.0000
  H   H477      1.0  0.17579  0.84830  0.30754  1.0000
  C   C485      1.0  0.05310  0.86952  0.44271  1.0000
  H   H478      1.0  0.02583  0.78457  0.28888  1.0000
  C   C486      1.0  0.49579  0.78452  0.17078  1.0000
  N   N39       1.0  0.20792  0.84239  0.28066  1.0000
  H   H479      1.0  0.05354  0.87547  0.48135  1.0000
  C   C487      1.0  0.35370  0.76608  0.22702  1.0000
  H   H480      1.0  0.05865  0.86189  0.40511  1.0000
  H   H481      1.0  0.49081  0.84192  0.27035  1.0000
  C   C488      1.0  0.50342  0.90054  0.01143  1.0000
  Fe  Fe86      1.0  0.14004  0.91480  0.43512  1.0000
  C   C489      1.0  0.22236  0.95144  0.48111  1.0000
  H   H482      1.0  0.34343  0.97050  0.07916  1.0000
  C   C490      1.0  0.37471  0.75559  0.22977  1.0000
  H   H483      1.0  0.06173  0.90767  0.44352  1.0000
  H   H484      1.0  0.46744  0.89595  0.05090  1.0000
  H   H485      1.0  0.08372  0.94157  0.38029  1.0000
  C   C491      1.0  0.09709  0.97267  0.39659  1.0000
  H   H486      1.0  0.48320  0.90658  0.00965  1.0000
  C   C492      1.0  0.09059  0.95893  0.35327  1.0000
  C   C493      1.0  0.23189  0.95862  0.43529  1.0000
  N   N40       1.0  0.09134  0.95918  0.39937  1.0000
  N   N41       1.0  0.22582  0.94847  0.45401  1.0000
  Fe  Fe87      1.0  0.15554  0.88645  0.46049  1.0000
  H   H487      1.0  0.21550  0.75546  0.30541  1.0000
  C   C494      1.0  0.32182  0.75018  0.21761  1.0000
  S   S171      1.0  0.17948  0.90512  0.45131  1.0000
  H   H488      1.0  0.50893  0.92500  0.10478  1.0000
  C   C495      1.0  0.38324  0.97852  0.07061  1.0000
  N   N42       1.0  0.08949  0.86282  0.47206  1.0000
  H   H489      1.0  0.10139  0.95612  0.43906  1.0000
  H   H490      1.0  0.31459  0.78414  0.20987  1.0000
  C   C496      1.0  0.22115  0.93569  0.44747  1.0000
  H   H491      1.0  0.22905  0.94108  0.38221  1.0000
  C   C497      1.0  0.49749  0.80309  0.22472  1.0000
  C   C498      1.0  0.09663  0.97265  0.35028  1.0000
  C   C499      1.0  0.10278  0.85500  0.45424  1.0000
  C   C500      1.0  0.23372  0.95603  0.40925  1.0000
  C   C501      1.0  0.09984  0.97958  0.37205  1.0000
  C   C502      1.0  0.49976  0.79528  0.15191  1.0000
  C   C503      1.0  0.09189  0.85453  0.42992  1.0000
  C   C504      1.0  0.40073  0.98857  0.07571  1.0000
  H   H492      1.0  0.21571  0.92775  0.46230  1.0000
  H   H493      1.0  0.06584  0.95379  0.43227  1.0000
  H   H494      1.0  0.39051  0.97043  0.05857  1.0000
  C   C505      1.0  0.49580  0.83580  0.25364  1.0000
  C   C506      1.0  0.06705  0.86199  0.42405  1.0000
  C   C507      1.0  0.06457  0.86971  0.46685  1.0000
  N   N43       1.0  0.50976  0.89707  0.03860  1.0000
  H   H495      1.0  0.47502  0.78161  0.17621  1.0000
  H   H496      1.0  0.33460  0.74731  0.15375  1.0000
  C   C508      1.0  0.35676  0.97859  0.08212  1.0000
  H   H497      1.0  0.51547  0.76945  0.19768  1.0000
  C   C509      1.0  0.08785  0.95232  0.37812  1.0000
  H   H498      1.0  0.10289  0.84856  0.41564  1.0000
  C   C510      1.0  0.08732  0.76908  0.35838  1.0000
  H   H499      1.0  0.48110  0.83920  0.23815  1.0000
  C   C511      1.0  0.34792  0.98878  0.09823  1.0000
  H   H500      1.0  0.23430  0.96894  0.44023  1.0000
  C   C512      1.0  0.04129  0.90539  0.45083  1.0000
  H   H501      1.0  0.19998  0.95270  0.48658  1.0000
  H   H502      1.0  0.51387  0.85201  0.21328  1.0000
  H   H503      1.0  0.07173  0.76285  0.30906  1.0000
  H   H504      1.0  0.12217  0.84923  0.45865  1.0000
  H   H505      1.0  0.01923  0.83092  0.31986  1.0000
  C   C513      1.0  0.02060  0.82071  0.31350  1.0000
  C   C514      1.0  0.40036  0.75277  0.16833  1.0000
  H   H506      1.0  0.35838  0.77647  0.22968  1.0000
  H   H507      1.0  0.29643  0.77624  0.23752  1.0000
  H   H508      1.0  0.21808  0.92275  0.41640  1.0000
  C   C515      1.0  0.22258  0.93278  0.42159  1.0000
  C   C516      1.0  0.51314  0.92685  0.08423  1.0000
  H   H509      1.0  0.04377  0.77003  0.32858  1.0000
  C   C517      1.0  0.04676  0.81383  0.30954  1.0000
  C   C518      1.0  0.16571  0.75259  0.34748  1.0000
  N   N44       1.0  0.32777  0.76333  0.22064  1.0000
  H   H510      1.0  0.09894  0.97793  0.33115  1.0000
  H   H511      1.0  0.49001  0.97854  0.17384  1.0000
  H   H512      1.0  0.03361  0.87528  0.43852  1.0000
  H   H513      1.0  0.18006  0.75889  0.27202  1.0000
  C   C519      1.0  0.10529  0.76687  0.37888  1.0000
  H   H514      1.0  0.50267  0.89105  0.00152  1.0000
  H   H515      1.0  0.02433  0.90650  0.41303  1.0000
  S   S172      1.0  0.12406  0.92310  0.47199  1.0000
  H   H516      1.0  0.08351  0.77938  0.34919  1.0000
  C   C520      1.0  0.14496  0.75476  0.32950  1.0000
  H   H517      1.0  0.48212  0.80084  0.14279  1.0000
  C   C521      1.0  0.02011  0.90476  0.43360  1.0000
  H   H518      1.0  0.32754  0.98879  0.10762  1.0000
  H   H519      1.0  0.49234  0.82487  0.25942  1.0000
  C   C522      1.0  0.02447  0.79457  0.29617  1.0000
  C   C523      1.0  0.49438  0.89158  0.08255  1.0000
  H   H520      1.0  0.23228  0.96087  0.48479  1.0000
  H   H521      1.0  0.47754  0.89013  0.09671  1.0000
  H   H522      1.0  0.42152  0.98826  0.06719  1.0000
  H   H523      1.0  0.11547  0.77532  0.38543  1.0000
  H   H524      1.0  0.48233  0.99261  0.19364  1.0000
  H   H525      1.0  0.12603  0.75169  0.40512  1.0000
  C   C524      1.0  0.11119  0.75358  0.38999  1.0000
  H   H526      1.0  0.51623  0.98509  0.22494  1.0000
  Fe  Fe88      1.0  0.17939  0.94377  0.65293  1.0000
  S   S173      1.0  0.16724  0.94587  0.69482  1.0000
  S   S174      1.0  0.17476  0.92398  0.63488  1.0000
  Fe  Fe89      1.0  0.18816  0.97371  0.64252  1.0000
  S   S175      1.0  0.17590  0.97835  0.68303  1.0000
  Fe  Fe90      1.0  0.20307  0.95939  0.69507  1.0000
  S   S176      1.0  0.22905  0.96038  0.73101  1.0000
  Fe  Fe91      1.0  0.14132  0.96453  0.67955  1.0000
  S   S177      1.0  0.09721  0.96981  0.69470  1.0000
  S   S178      1.0  0.21727  0.95557  0.65433  1.0000
  S   S179      1.0  0.15157  0.96162  0.63800  1.0000
  C   C525      1.0  0.06580  0.91884  0.66616  1.0000
  H   H527      1.0  0.21539  0.99047  0.72010  1.0000
  S   S180      1.0  0.18698  0.92486  0.51241  1.0000
  H   H528      1.0  0.25100  0.98982  0.72873  1.0000
  S   S181      1.0  0.39906  0.98167  0.80658  1.0000
  C   C526      1.0  0.09713  0.93089  0.69994  1.0000
  C   C527      1.0  0.05333  0.92334  0.68894  1.0000
  C   C528      1.0  0.43948  0.95267  0.95098  1.0000
  H   H529      1.0  0.04183  0.94545  0.63850  1.0000
  Fe  Fe92      1.0  0.40327  0.94679  0.84725  1.0000
  S   S182      1.0  0.41947  0.94921  0.80604  1.0000
  S   S183      1.0  0.40990  0.92710  0.87259  1.0000
  Fe  Fe93      1.0  0.38453  0.97663  0.84769  1.0000
  C   C529      1.0  0.43535  0.96253  0.93021  1.0000
  Fe  Fe94      1.0  0.37957  0.96232  0.79854  1.0000
  S   S184      1.0  0.35636  0.95973  0.76162  1.0000
  Fe  Fe95      1.0  0.43747  0.96821  0.81731  1.0000
  S   S185      1.0  0.48073  0.97612  0.81095  1.0000
  S   S186      1.0  0.36248  0.95826  0.83919  1.0000
  S   S187      1.0  0.42376  0.96473  0.85889  1.0000
  C   C530      1.0  0.01647  0.95429  0.66862  1.0000
  H   H530      1.0  0.09528  0.85442  0.51054  1.0000
  H   H531      1.0  0.26141  0.97985  0.63979  1.0000
  S   S188      1.0  0.06290  0.90174  0.49901  1.0000
  C   C531      1.0  0.04152  0.95161  0.65473  1.0000
  C   C532      1.0  0.39396  0.92675  0.90371  1.0000
  C   C533      1.0  0.40599  0.91837  0.92403  1.0000
  C   C534      1.0  0.39300  0.91743  0.94874  1.0000
  C   C535      1.0  0.36738  0.92449  0.95303  1.0000
  C   C536      1.0  0.35521  0.93280  0.93263  1.0000
  C   C537      1.0  0.36873  0.93417  0.90818  1.0000
  H   H532      1.0  0.42540  0.91254  0.92064  1.0000
  H   H533      1.0  0.40240  0.91089  0.96421  1.0000
  H   H534      1.0  0.35923  0.94062  0.89261  1.0000
  N   N45       1.0  0.38652  0.96390  0.94034  1.0000
  C   C538      1.0  0.51288  0.96623  0.81240  1.0000
  H   H535      1.0  0.03866  0.97661  0.62058  1.0000
  H   H536      1.0  0.05950  0.93354  0.72301  1.0000
  H   H537      1.0  0.37297  0.95090  0.97286  1.0000
  C   C539      1.0  0.06636  0.96408  0.68360  1.0000
  C   C540      1.0  0.06631  0.95656  0.66204  1.0000
  H   H538      1.0  0.03130  0.92265  0.69288  1.0000
  H   H539      1.0  0.08547  0.95428  0.65136  1.0000
  H   H540      1.0  0.10939  0.93601  0.71258  1.0000
  C   C541      1.0  0.32075  0.96054  0.75336  1.0000
  C   C542      1.0  0.29896  0.96279  0.77136  1.0000
  C   C543      1.0  0.27122  0.96265  0.76414  1.0000
  C   C544      1.0  0.26468  0.96032  0.73883  1.0000
  C   C545      1.0  0.28647  0.95816  0.72079  1.0000
  C   C546      1.0  0.31422  0.95823  0.72805  1.0000
  H   H541      1.0  0.30347  0.96461  0.79088  1.0000
  H   H542      1.0  0.25464  0.96438  0.77831  1.0000
  H   H543      1.0  0.28203  0.95623  0.70133  1.0000
  H   H544      1.0  0.33080  0.95640  0.71393  1.0000
  C   C547      1.0  0.18181  0.92479  0.54634  1.0000
  C   C548      1.0  0.16976  0.91400  0.56105  1.0000
  C   C549      1.0  0.16767  0.91385  0.58816  1.0000
  C   C550      1.0  0.17700  0.92462  0.60073  1.0000
  C   C551      1.0  0.18832  0.93558  0.58596  1.0000
  C   C552      1.0  0.19104  0.93557  0.55892  1.0000
  H   H545      1.0  0.16278  0.90559  0.55159  1.0000
  H   H546      1.0  0.15908  0.90528  0.59941  1.0000
  H   H547      1.0  0.19562  0.94393  0.59541  1.0000
  H   H548      1.0  0.20044  0.94394  0.54774  1.0000
  N   N46       1.0  0.36066  0.92503  0.79859  1.0000
  C   C553      1.0  0.33458  0.93021  0.79260  1.0000
  C   C554      1.0  0.36688  0.92110  0.82367  1.0000
  C   C555      1.0  0.31423  0.93213  0.81206  1.0000
  C   C556      1.0  0.34696  0.92274  0.84361  1.0000
  C   C557      1.0  0.32055  0.92841  0.83774  1.0000
  C   C558      1.0  0.38156  0.92311  0.77779  1.0000
  H   H549      1.0  0.32955  0.93314  0.77266  1.0000
  H   H550      1.0  0.38745  0.91683  0.82850  1.0000
  H   H551      1.0  0.29381  0.93661  0.80717  1.0000
  H   H552      1.0  0.35222  0.91981  0.86350  1.0000
  H   H553      1.0  0.30508  0.92996  0.85309  1.0000
  H   H554      1.0  0.37814  0.91373  0.76834  1.0000
  H   H555      1.0  0.38045  0.93207  0.76310  1.0000
  H   H556      1.0  0.40283  0.92225  0.78513  1.0000
  H   H557      1.0  0.49988  0.94948  0.79310  1.0000
  H   H558      1.0  0.11395  0.92498  0.62434  1.0000
  N   N47       1.0  0.09328  0.92033  0.66049  1.0000
  H   H559      1.0  0.24799  0.97680  0.68623  1.0000
  C   C559      1.0  0.10895  0.92619  0.67709  1.0000
  H   H560      1.0  0.45267  0.96576  0.91786  1.0000
  C   C560      1.0  0.06912  0.92948  0.70583  1.0000
  C   C561      1.0  0.41692  0.94855  0.96643  1.0000
  C   C562      1.0  0.10618  0.91599  0.63628  1.0000
  H   H561      1.0  0.04096  0.97301  0.71360  1.0000
  H   H562      1.0  0.13065  0.92745  0.67243  1.0000
  C   C563      1.0  0.40856  0.96808  0.92519  1.0000
  C   C564      1.0  0.04116  0.96713  0.69698  1.0000
  C   C565      1.0  0.10142  0.86326  0.49732  1.0000
  H   H563      1.0  0.12414  0.90852  0.64040  1.0000
  H   H564      1.0  0.09166  0.91111  0.62466  1.0000
  H   H565      1.0  0.35758  0.98093  0.93268  1.0000
  C   C566      1.0  0.35866  0.96955  0.93380  1.0000
  H   H566      1.0  0.34267  0.96588  0.94817  1.0000
  C   C567      1.0  0.25732  0.98871  0.65076  1.0000
  S   S189      1.0  0.20190  0.98833  0.60945  1.0000
  H   H567      1.0  0.05314  0.91448  0.65280  1.0000
  C   C568      1.0  0.39041  0.95434  0.96090  1.0000
  H   H568      1.0  0.33536  0.93826  0.93582  1.0000
  H   H569      1.0  0.35358  0.96647  0.91461  1.0000
  H   H570      1.0  0.40539  0.97569  0.90897  1.0000
  S   S190      1.0  0.36401  0.99108  0.87517  1.0000
  S   S191      1.0  0.14184  0.89247  0.50017  1.0000
  C   C569      1.0  0.02522  0.98403  0.63023  1.0000
  H   H571      1.0  0.46008  0.94818  0.95514  1.0000
  H   H572      1.0  0.09441  0.87292  0.50607  1.0000
  C   C570      1.0  0.24940  0.98706  0.67694  1.0000
  H   H573      1.0  0.23177  0.94284  0.49397  1.0000
  Fe  Fe96      1.0  0.16198  0.91210  0.48916  1.0000
  C   C571      1.0  0.03596  0.99195  0.64782  1.0000
  H   H574      1.0  0.05778  0.99064  0.65204  1.0000
  H   H575      1.0  0.12439  0.86295  0.49544  1.0000
  S   S192      1.0  0.35027  0.92334  0.98368  1.0000
  H   H576      1.0  0.41993  0.94074  0.98236  1.0000
  C   C572      1.0  0.01631  0.96234  0.68947  1.0000
  C   C573      1.0  0.78710  0.02111  0.28452  1.0000
  S   S193      1.0  0.90693  0.01082  0.30780  1.0000
  C   C574      1.0  0.96521  0.05896  0.42838  1.0000
  C   C575      1.0  0.95416  0.02199  0.25376  1.0000
  S   S194      1.0  0.63277  0.06340  0.02823  1.0000
  C   C576      1.0  0.81125  0.05271  0.48395  1.0000
  Fe  Fe97      1.0  0.63598  0.02277  0.18412  1.0000
  S   S195      1.0  0.64684  0.01131  0.14942  1.0000
  S   S196      1.0  0.59241  0.03316  0.18179  1.0000
  Fe  Fe98      1.0  0.69407  0.01526  0.20698  1.0000
  H   H577      1.0  0.89528  0.06263  0.25342  1.0000
  S   S197      1.0  0.71895  0.01562  0.24392  1.0000
  Fe  Fe99      1.0  0.68763  0.02049  0.14856  1.0000
  S   S198      1.0  0.70721  0.02729  0.10955  1.0000
  S   S199      1.0  0.67598  0.03342  0.18149  1.0000
  C   C577      1.0  0.89414  0.05423  0.26909  1.0000
  Fe  Fe100     1.0  0.86497  0.02220  0.31143  1.0000
  S   S200      1.0  0.85064  0.00870  0.34580  1.0000
  S   S201      1.0  0.84249  0.02640  0.27317  1.0000
  Fe  Fe101     1.0  0.92237  0.02468  0.33523  1.0000
  S   S202      1.0  0.91170  0.01109  0.37053  1.0000
  S   S203      1.0  0.96236  0.03561  0.33433  1.0000
  Fe  Fe102     1.0  0.87057  0.02306  0.36976  1.0000
  S   S204      1.0  0.85246  0.02869  0.40851  1.0000
  S   S205      1.0  0.88179  0.03755  0.33566  1.0000
  C   C578      1.0  0.96041  0.03213  0.26921  1.0000
  C   C579      1.0  0.87855  0.05416  0.45736  1.0000
  C   C580      1.0  0.87746  0.04287  0.44274  1.0000
  C   C581      1.0  0.86112  0.04382  0.42103  1.0000
  C   C582      1.0  0.84694  0.05633  0.41333  1.0000
  C   C583      1.0  0.84820  0.06765  0.42785  1.0000
  H   H578      1.0  0.90744  0.08799  0.43113  1.0000
  H   H579      1.0  0.88786  0.03314  0.44926  1.0000
  H   H580      1.0  0.83365  0.05706  0.39704  1.0000
  H   H581      1.0  0.83636  0.07714  0.42227  1.0000
  C   C584      1.0  0.75312  0.01939  0.25135  1.0000
  C   C585      1.0  0.80771  0.02389  0.26551  1.0000
  C   C586      1.0  0.80073  0.02450  0.23940  1.0000
  C   C587      1.0  0.77374  0.02218  0.23235  1.0000
  H   H582      1.0  0.81634  0.02669  0.22443  1.0000
  C   C588      1.0  0.94008  0.04791  0.39693  1.0000
  C   C589      1.0  0.68653  0.03751  0.08725  1.0000
  C   C590      1.0  0.66012  0.04287  0.09439  1.0000
  C   C591      1.0  0.64395  0.05088  0.07614  1.0000
  C   C592      1.0  0.65383  0.05336  0.05054  1.0000
  C   C593      1.0  0.68016  0.04790  0.04331  1.0000
  C   C594      1.0  0.69654  0.04009  0.06168  1.0000
  H   H583      1.0  0.65225  0.04098  0.11408  1.0000
  H   H584      1.0  0.62363  0.05510  0.08191  1.0000
  H   H585      1.0  0.68795  0.04969  0.02363  1.0000
  H   H586      1.0  0.71694  0.03593  0.05604  1.0000
  C   C595      1.0  0.56234  0.02516  0.19359  1.0000
  C   C596      1.0  0.55954  0.02007  0.21946  1.0000
  H   H587      1.0  0.57711  0.01955  0.23170  1.0000
  C   C597      1.0  0.00084  0.01368  0.32716  1.0000
  H   H588      1.0  0.98351  0.00785  0.32380  1.0000
  C   C598      1.0  0.92234  0.06945  0.41399  1.0000
  H   H589      1.0  0.98121  0.05066  0.42817  1.0000
  C   C599      1.0  0.99619  0.02727  0.33323  1.0000
  H   H590      1.0  0.66785  0.00713  0.09720  1.0000
  H   H591      1.0  0.63382  0.01856  0.06939  1.0000
  H   H592      1.0  0.87291  0.05059  0.27029  1.0000
  H   H593      1.0  0.69881  0.01243  0.99481  1.0000
  H   H594      1.0  0.94545  0.05044  0.28630  1.0000
  H   H595      1.0  0.53329  0.05844  0.18160  1.0000
  C   C600      1.0  0.90869  0.03332  0.24827  1.0000
  C   C601      1.0  0.53916  0.02608  0.17811  1.0000
  H   H596      1.0  0.53541  0.04803  0.22526  1.0000
  Fe  Fe103     1.0  0.89312  0.99820  0.34342  1.0000
  H   H597      1.0  0.80357  0.03983  0.45395  1.0000
  H   H598      1.0  0.74427  0.01700  0.29239  1.0000
  H   H599      1.0  0.96060  0.04325  0.39068  1.0000
  H   H600      1.0  0.92814  0.03987  0.40769  1.0000
  H   H601      1.0  0.90415  0.06938  0.40264  1.0000
  H   H602      1.0  0.94837  0.08803  0.45817  1.0000
  C   C602      1.0  0.92410  0.08003  0.43002  1.0000
  C   C603      1.0  0.64793  0.01697  0.05300  1.0000
  H   H603      1.0  0.98521  0.06922  0.45690  1.0000
  H   H604      1.0  0.76888  0.02257  0.21219  1.0000
  C   C604      1.0  0.86345  0.06653  0.45029  1.0000
  H   H605      1.0  0.79191  0.02070  0.30468  1.0000
  N   N48       1.0  0.94289  0.05917  0.41312  1.0000
  S   S206      1.0  0.86191  0.08050  0.46962  1.0000
  H   H606      1.0  0.53133  0.01330  0.25037  1.0000
  C   C605      1.0  0.94696  0.08001  0.44531  1.0000
  C   C606      1.0  0.76004  0.01898  0.27746  1.0000
  H   H607      1.0  0.70891  0.00059  0.03800  1.0000
  H   H608      1.0  0.92923  0.05158  0.37896  1.0000
  C   C607      1.0  0.96765  0.06940  0.44459  1.0000
  S   S207      1.0  0.65260  0.00578  0.21217  1.0000
  N   N49       1.0  0.67192  0.00886  0.05609  1.0000
  H   H609      1.0  0.98044  0.03171  0.27789  1.0000
  C   C608      1.0  0.72667  0.08042  0.00549  1.0000
  H   H610      1.0  0.89739  0.05831  0.28787  1.0000
  C   C609      1.0  0.68997  0.00706  0.03553  1.0000
  C   C610      1.0  0.66014  0.02204  0.00791  1.0000
  H   H611      1.0  0.62319  0.03056  0.02672  1.0000
  H   H612      1.0  0.88986  0.05299  0.47483  1.0000
  H   H613      1.0  0.79835  0.06141  0.47594  1.0000
  N   N50       1.0  0.67454  0.09404  0.00903  1.0000
  C   C611      1.0  0.67771  0.00152  0.08124  1.0000
  C   C612      1.0  0.64172  0.02372  0.02890  1.0000
  C   C613      1.0  0.53351  0.01664  0.23004  1.0000
  H   H614      1.0  0.71658  0.07086  0.04337  1.0000
  H   H615      1.0  0.54106  0.03018  0.15817  1.0000
  H   H616      1.0  0.52903  0.08113  0.99306  1.0000
  S   S208      1.0  0.70805  0.00297  0.17357  1.0000
  C   C614      1.0  0.68359  0.08508  0.02904  1.0000
  C   C615      1.0  0.68440  0.01367  0.01115  1.0000
  N   N51       1.0  0.91478  0.04303  0.26400  1.0000
  H   H617      1.0  0.92303  0.01476  0.23106  1.0000
  H   H618      1.0  0.65584  0.02733  0.98918  1.0000
  H   H619      1.0  0.88848  0.03371  0.24000  1.0000
  C   C616      1.0  0.92819  0.02261  0.24305  1.0000
  C   C617      1.0  0.94042  0.04269  0.27402  1.0000
  H   H620      1.0  0.96938  0.01363  0.25029  1.0000
  H   H621      1.0  0.70024  0.00065  0.08471  1.0000
  H   H622      1.0  0.67032  0.08306  0.04609  1.0000
  H   H623      1.0  0.63127  0.09363  0.01664  1.0000
  C   C618      1.0  0.64703  0.10117  0.01123  1.0000
  C   C619      1.0  0.81412  0.04060  0.47167  1.0000
  H   H624      1.0  0.64667  0.10851  0.02627  1.0000
  H   H625      1.0  0.64089  0.10690  0.99273  1.0000
  C   C620      1.0  0.70974  0.07812  0.02758  1.0000
  H   H626      1.0  0.83514  0.02068  0.47101  1.0000
  H   H627      1.0  0.74685  0.07496  0.00392  1.0000
  C   C621      1.0  0.83208  0.02977  0.48146  1.0000
  H   H628      1.0  0.01579  0.04520  0.34200  1.0000
  S   S209      1.0  0.64209  0.00353  0.83210  1.0000
  C   C622      1.0  0.54812  0.19860  0.82348  1.0000
  Fe  Fe104     1.0  0.66224  0.04661  0.94199  1.0000
  H   H629      1.0  0.57548  0.10460  0.89377  1.0000
  S   S210      1.0  0.67740  0.02482  0.93634  1.0000
  Fe  Fe105     1.0  0.67204  0.07711  0.93783  1.0000
  S   S211      1.0  0.69986  0.09315  0.92007  1.0000
  S   S212      1.0  0.65428  0.06370  0.91115  1.0000
  Fe  Fe106     1.0  0.94597  0.08134  0.52091  1.0000
  S   S213      1.0  0.90898  0.09637  0.51917  1.0000
  C   C623      1.0  0.54767  0.15775  0.81513  1.0000
  Fe  Fe107     1.0  0.91300  0.05779  0.54473  1.0000
  S   S214      1.0  0.87356  0.07111  0.54507  1.0000
  S   S215      1.0  0.91240  0.03483  0.55011  1.0000
  Fe  Fe108     1.0  0.88765  0.07895  0.50514  1.0000
  Fe  Fe109     1.0  0.89921  0.08701  0.55930  1.0000
  S   S216      1.0  0.88708  0.09726  0.59603  1.0000
  H   H630      1.0  0.94780  0.23939  0.74667  1.0000
  S   S217      1.0  0.93788  0.07286  0.56184  1.0000
  Fe  Fe110     1.0  0.89247  0.18899  0.69744  1.0000
  S   S218      1.0  0.89972  0.17438  0.73270  1.0000
  S   S219      1.0  0.88827  0.21039  0.71100  1.0000
  Fe  Fe111     1.0  0.89252  0.16526  0.66317  1.0000
  S   S220      1.0  0.89894  0.14937  0.69644  1.0000
  S   S221      1.0  0.89404  0.15923  0.62181  1.0000
  Fe  Fe112     1.0  0.86711  0.16246  0.71784  1.0000
  S   S222      1.0  0.83555  0.15379  0.74750  1.0000
  Fe  Fe113     1.0  0.93068  0.16294  0.70815  1.0000
  S   S223      1.0  0.97192  0.15305  0.72182  1.0000
  S   S224      1.0  0.85822  0.17754  0.68368  1.0000
  S   S225      1.0  0.92608  0.17830  0.67386  1.0000
  Fe  Fe114     1.0  0.63466  0.19400  0.82425  1.0000
  S   S226      1.0  0.64094  0.18798  0.78400  1.0000
  S   S227      1.0  0.61460  0.21541  0.82652  1.0000
  Fe  Fe115     1.0  0.65035  0.16465  0.84633  1.0000
  S   S228      1.0  0.65780  0.15670  0.80709  1.0000
  S   S229      1.0  0.64435  0.15193  0.88436  1.0000
  Fe  Fe116     1.0  0.67987  0.17618  0.79747  1.0000
  S   S230      1.0  0.71584  0.18219  0.76999  1.0000
  Fe  Fe117     1.0  0.61850  0.16942  0.79731  1.0000
  S   S231      1.0  0.58313  0.16456  0.77352  1.0000
  S   S232      1.0  0.67475  0.18340  0.83756  1.0000
  S   S233      1.0  0.60983  0.17615  0.83668  1.0000
  C   C624      1.0  0.80103  0.16073  0.75186  1.0000
  C   C625      1.0  0.78965  0.17133  0.73499  1.0000
  C   C626      1.0  0.76283  0.17721  0.74009  1.0000
  C   C627      1.0  0.74723  0.17273  0.76226  1.0000
  C   C628      1.0  0.75832  0.16190  0.77880  1.0000
  C   C629      1.0  0.78506  0.15591  0.77354  1.0000
  H   H631      1.0  0.80159  0.17508  0.71815  1.0000
  H   H632      1.0  0.75440  0.18554  0.72709  1.0000
  H   H633      1.0  0.74660  0.15835  0.79594  1.0000
  H   H634      1.0  0.79363  0.14765  0.78661  1.0000
  C   C630      1.0  0.88965  0.11455  0.60248  1.0000
  C   C631      1.0  0.88318  0.11824  0.62763  1.0000
  C   C632      1.0  0.88442  0.13185  0.63374  1.0000
  C   C633      1.0  0.89200  0.14198  0.61470  1.0000
  C   C634      1.0  0.89869  0.13830  0.58955  1.0000
  C   C635      1.0  0.89764  0.12463  0.58345  1.0000
  H   H635      1.0  0.87678  0.11054  0.64242  1.0000
  H   H636      1.0  0.87888  0.13452  0.65308  1.0000
  H   H637      1.0  0.90451  0.14607  0.57466  1.0000
  H   H638      1.0  0.90249  0.12196  0.56398  1.0000
  C   C636      1.0  0.68429  0.10941  0.90963  1.0000
  C   C637      1.0  0.69795  0.11798  0.89095  1.0000
  C   C638      1.0  0.68572  0.13095  0.88235  1.0000
  C   C639      1.0  0.66019  0.13556  0.89311  1.0000
  C   C640      1.0  0.64673  0.12703  0.91192  1.0000
  C   C641      1.0  0.65850  0.11394  0.91985  1.0000
  H   H639      1.0  0.71800  0.11457  0.88301  1.0000
  H   H640      1.0  0.69635  0.13752  0.86799  1.0000
  H   H641      1.0  0.62700  0.13056  0.92033  1.0000
  H   H642      1.0  0.64778  0.10755  0.93426  1.0000
  C   C642      1.0  0.90459  0.01262  0.63073  1.0000
  C   C643      1.0  0.90407  0.00551  0.60872  1.0000
  C   C644      1.0  0.90646  0.01249  0.58414  1.0000
  C   C645      1.0  0.90902  0.02665  0.58138  1.0000
  C   C646      1.0  0.90901  0.03387  0.60335  1.0000
  C   C647      1.0  0.90685  0.02683  0.62804  1.0000
  C   C648      1.0  0.53698  0.02724  0.89039  1.0000
  H   H643      1.0  0.90634  0.00687  0.56720  1.0000
  H   H644      1.0  0.91083  0.04482  0.60130  1.0000
  H   H645      1.0  0.90705  0.03242  0.64501  1.0000
  C   C649      1.0  0.65197  0.00933  0.86112  1.0000
  C   C650      1.0  0.64150  0.02220  0.86814  1.0000
  C   C651      1.0  0.64908  0.02699  0.89127  1.0000
  C   C652      1.0  0.66733  0.01896  0.90741  1.0000
  C   C653      1.0  0.67765  0.00604  0.90048  1.0000
  C   C654      1.0  0.96194  0.12518  0.68192  1.0000
  H   H646      1.0  0.62781  0.02856  0.85548  1.0000
  H   H647      1.0  0.64103  0.03695  0.89642  1.0000
  C   C655      1.0  0.56976  0.03753  0.91474  1.0000
  H   H648      1.0  0.95350  0.16228  0.62145  1.0000
  C   C656      1.0  0.55071  0.07801  0.95676  1.0000
  S   S234      1.0  0.68446  0.05949  0.96684  1.0000
  H   H649      1.0  0.82479  0.06338  0.51494  1.0000
  C   C657      1.0  0.52765  0.16106  0.77313  1.0000
  C   C658      1.0  0.55078  0.16090  0.78846  1.0000
  C   C659      1.0  0.01353  0.07734  0.51584  1.0000
  C   C660      1.0  0.00295  0.08860  0.57984  1.0000
  H   H650      1.0  0.77894  0.21710  0.73512  1.0000
  H   H651      1.0  0.52995  0.16338  0.75246  1.0000
  C   C661      1.0  0.99334  0.15980  0.63887  1.0000
  H   H652      1.0  0.88669  0.24401  0.63427  1.0000
  C   C662      1.0  0.96682  0.15607  0.63482  1.0000
  H   H653      1.0  0.99217  0.11676  0.53779  1.0000
  C   C663      1.0  0.61585  0.10130  0.87540  1.0000
  C   C664      1.0  0.52210  0.07899  0.91962  1.0000
  H   H654      1.0  0.98756  0.06276  0.53613  1.0000
  H   H655      1.0  0.85611  0.04384  0.53177  1.0000
  S   S235      1.0  0.57718  0.07318  0.91060  1.0000
  C   C665      1.0  0.65715  0.22532  0.85136  1.0000
  C   C666      1.0  0.63295  0.22837  0.83775  1.0000
  H   H656      1.0  0.94732  0.21718  0.72717  1.0000
  N   N52       1.0  0.84661  0.03095  0.50302  1.0000
  H   H657      1.0  0.66479  0.21477  0.85556  1.0000
  H   H658      1.0  0.82866  0.21231  0.72309  1.0000
  H   H659      1.0  0.82755  0.17022  0.79804  1.0000
  C   C667      1.0  0.84010  0.17882  0.79046  1.0000
  C   C668      1.0  0.83502  0.19666  0.75453  1.0000
  C   C669      1.0  0.88319  0.22672  0.69404  1.0000
  C   C670      1.0  0.88574  0.22887  0.66711  1.0000
  S   S236      1.0  0.98609  0.08773  0.50254  1.0000
  C   C671      1.0  0.95041  0.22647  0.68820  1.0000
  H   H660      1.0  0.88947  0.22021  0.65568  1.0000
  N   N53       1.0  0.97331  0.13671  0.66613  1.0000
  C   C672      1.0  0.95703  0.14449  0.64886  1.0000
  H   H661      1.0  0.55244  0.04871  0.94583  1.0000
  C   C673      1.0  0.83547  0.99922  0.69772  1.0000
  H   H662      1.0  0.94492  0.12097  0.67214  1.0000
  C   C674      1.0  0.52709  0.08058  0.97255  1.0000
  C   C675      1.0  0.82618  0.05382  0.50585  1.0000
  H   H663      1.0  0.93613  0.14191  0.64626  1.0000
  C   C676      1.0  0.54239  0.19503  0.77888  1.0000
  H   H664      1.0  0.56129  0.20069  0.83880  1.0000
  C   C677      1.0  0.68824  0.21907  0.79092  1.0000
  C   C678      1.0  0.70481  0.22807  0.80142  1.0000
  N   N54       1.0  0.99068  0.00276  0.65558  1.0000
  H   H665      1.0  0.65160  0.21746  0.76985  1.0000
  H   H666      1.0  0.97809  0.11674  0.68585  1.0000
  H   H667      1.0  0.98362  0.01974  0.67882  1.0000
  H   H668      1.0  0.95903  0.00671  0.68381  1.0000
  H   H669      1.0  0.60437  0.24449  0.82207  1.0000
  C   C679      1.0  0.57221  0.00507  0.79405  1.0000
  S   S237      1.0  0.90372  0.00371  0.66158  1.0000
  H   H670      1.0  0.58106  0.02582  0.88237  1.0000
  H   H671      1.0  0.94953  0.21685  0.67963  1.0000
  S   S238      1.0  0.62098  0.04980  0.96234  1.0000
  H   H672      1.0  0.84911  0.18331  0.80670  1.0000
  S   S239      1.0  0.63188  0.08249  0.95859  1.0000
  H   H673      1.0  0.67891  0.10483  0.84789  1.0000
  C   C680      1.0  0.66135  0.09841  0.85356  1.0000
  C   C681      1.0  0.66500  0.22433  0.77754  1.0000
  H   H674      1.0  0.85706  0.17418  0.77830  1.0000
  C   C682      1.0  0.00282  0.16155  0.71635  1.0000
  C   C683      1.0  0.55919  0.19795  0.79842  1.0000
  C   C684      1.0  0.87821  0.23803  0.70860  1.0000
  H   H675      1.0  0.95800  0.99596  0.63500  1.0000
  H   H676      1.0  0.52012  0.07836  0.89915  1.0000
  C   C685      1.0  0.54790  0.04261  0.93040  1.0000
  H   H677      1.0  0.65774  0.09208  0.83757  1.0000
  C   C686      1.0  0.52024  0.19629  0.82866  1.0000
  H   H678      1.0  0.95120  0.23862  0.65185  1.0000
  H   H679      1.0  0.99175  0.08084  0.59115  1.0000
  S   S240      1.0  0.92562  0.06485  0.50418  1.0000
  C   C687      1.0  0.54817  0.07721  0.93030  1.0000
  H   H680      1.0  0.86233  0.00993  0.50538  1.0000
  H   H681      1.0  0.58512  0.01104  0.80460  1.0000
  H   H682      1.0  0.55121  0.19388  0.75960  1.0000
  H   H683      1.0  0.98312  0.18078  0.70145  1.0000
  C   C688      1.0  0.52184  0.15433  0.82620  1.0000
  H   H684      1.0  0.79322  0.00658  0.69112  1.0000
  H   H685      1.0  0.95356  0.12869  0.70062  1.0000
  H   H686      1.0  0.96616  0.09963  0.56485  1.0000
  H   H687      1.0  0.56898  0.12882  0.87466  1.0000
  C   C689      1.0  0.94914  0.22666  0.71498  1.0000
  H   H688      1.0  0.85657  0.19458  0.74901  1.0000
  H   H689      1.0  0.51984  0.15137  0.84668  1.0000
  Fe  Fe118     1.0  0.61486  0.06802  0.93366  1.0000
  H   H690      1.0  0.87591  0.23647  0.72941  1.0000
  C   C690      1.0  0.98858  0.09912  0.56504  1.0000
  C   C691      1.0  0.58769  0.12259  0.87028  1.0000
  N   N55       1.0  0.52121  0.04017  0.92594  1.0000
  H   H691      1.0  0.66785  0.09155  0.87075  1.0000
  H   H692      1.0  0.61855  0.09081  0.88385  1.0000
  H   H693      1.0  0.68987  0.23357  0.87062  1.0000
  H   H694      1.0  0.59081  0.03981  0.91788  1.0000
  C   C692      1.0  0.59138  0.10908  0.88106  1.0000
  C   C693      1.0  0.97213  0.01242  0.66912  1.0000
  C   C694      1.0  0.63247  0.12002  0.84858  1.0000
  H   H695      1.0  0.58091  0.19941  0.79426  1.0000
  H   H696      1.0  0.60589  0.13867  0.84572  1.0000
  N   N56       1.0  0.63614  0.10686  0.85961  1.0000
  C   C695      1.0  0.60830  0.12810  0.85387  1.0000
  C   C696      1.0  0.65870  0.23845  0.77460  1.0000
  C   C697      1.0  0.00321  0.10880  0.54993  1.0000
  H   H697      1.0  0.78670  0.18625  0.79864  1.0000
  H   H698      1.0  0.95828  0.01854  0.65528  1.0000
  H   H699      1.0  0.57080  0.07657  0.96515  1.0000
  H   H700      1.0  0.53236  0.02125  0.87482  1.0000
  C   C698      1.0  0.81930  0.20677  0.73986  1.0000
  C   C699      1.0  0.79150  0.20952  0.74674  1.0000
  C   C700      1.0  0.00984  0.15182  0.65655  1.0000
  C   C701      1.0  0.77986  0.20228  0.76832  1.0000
  H   H701      1.0  0.75801  0.20396  0.77332  1.0000
  H   H702      1.0  0.64853  0.12449  0.83610  1.0000
  C   C702      1.0  0.00837  0.06586  0.53270  1.0000
  N   N57       1.0  0.82328  0.18936  0.77526  1.0000
  C   C703      1.0  0.79618  0.19219  0.78249  1.0000
  C   C704      1.0  0.84395  0.04278  0.51515  1.0000
  C   C705      1.0  0.99943  0.14023  0.67008  1.0000
  C   C706      1.0  0.66998  0.00122  0.87739  1.0000
  H   H703      1.0  0.01180  0.13448  0.68475  1.0000
  H   H704      1.0  0.88786  0.02247  0.50529  1.0000
  C   C707      1.0  0.94918  0.23912  0.72588  1.0000
  C   C708      1.0  0.00255  0.17516  0.70592  1.0000
  H   H705      1.0  0.00086  0.16900  0.62873  1.0000
  C   C709      1.0  0.62302  0.24208  0.83267  1.0000
  H   H706      1.0  0.56534  0.15752  0.82711  1.0000
  H   H707      1.0  0.68421  0.10365  0.97153  1.0000
  H   H708      1.0  0.69197  0.99986  0.91279  1.0000
  H   H709      1.0  0.84362  0.00401  0.67961  1.0000
  N   N58       1.0  0.69838  0.24191  0.79861  1.0000
  H   H710      1.0  0.72253  0.22392  0.81224  1.0000
  C   C710      1.0  0.86671  0.01991  0.51220  1.0000
  C   C711      1.0  0.67128  0.23596  0.85990  1.0000
  H   H711      1.0  0.69307  0.20807  0.79346  1.0000
  C   C712      1.0  0.95114  0.23882  0.67264  1.0000
  C   C713      1.0  0.52742  0.99979  0.78097  1.0000
  H   H712      1.0  0.64039  0.24262  0.76463  1.0000
  H   H713      1.0  0.86634  0.01866  0.53367  1.0000
  H   H714      1.0  0.73029  0.09152  0.96790  1.0000
  C   C714      1.0  0.56424  0.02977  0.89466  1.0000
  C   C715      1.0  0.80728  0.00070  0.70423  1.0000
  C   C716      1.0  0.54355  0.00768  0.79450  1.0000
  H   H715      1.0  0.53377  0.01570  0.80550  1.0000
  C   C717      1.0  0.88424  0.24235  0.65504  1.0000
  C   C718      1.0  0.71742  0.08971  0.98531  1.0000
  Fe  Fe119     1.0  0.64254  0.06374  0.98537  1.0000
  C   C719      1.0  0.69118  0.09651  0.98744  1.0000
  Fe  Fe120     1.0  0.68167  0.46586  0.19400  1.0000
  S   S241      1.0  0.69653  0.46179  0.15343  1.0000
  S   S242      1.0  0.70524  0.46359  0.23180  1.0000
  Fe  Fe121     1.0  0.62136  0.47298  0.17735  1.0000
  S   S243      1.0  0.63183  0.46981  0.13599  1.0000
  S   S244      1.0  0.57839  0.48109  0.19027  1.0000
  Fe  Fe122     1.0  0.65729  0.45115  0.15119  1.0000
  S   S245      1.0  0.64946  0.43180  0.13309  1.0000
  Fe  Fe123     1.0  0.66957  0.48075  0.14136  1.0000
  S   S246      1.0  0.64419  0.45351  0.19273  1.0000
  S   S247      1.0  0.65739  0.48566  0.18169  1.0000
  H   H716      1.0  0.55027  0.44714  0.23722  1.0000
  H   H717      1.0  0.51878  0.38127  0.00257  1.0000
  C   C720      1.0  0.67116  0.47878  0.04244  1.0000
  S   S248      1.0  0.68912  0.42413  0.01693  1.0000
  C   C721      1.0  0.86366  0.48589  0.43319  1.0000
  C   C722      1.0  0.99549  0.48479  0.27095  1.0000
  Fe  Fe124     1.0  0.91087  0.46335  0.31954  1.0000
  S   S249      1.0  0.90310  0.47365  0.35592  1.0000
  S   S250      1.0  0.95313  0.45328  0.30937  1.0000
  Fe  Fe125     1.0  0.85202  0.47185  0.30004  1.0000
  S   S251      1.0  0.84032  0.48319  0.33519  1.0000
  S   S252      1.0  0.82880  0.47142  0.26251  1.0000
  H   H718      1.0  0.00197  0.47656  0.25899  1.0000
  Fe  Fe126     1.0  0.86164  0.46497  0.35769  1.0000
  S   S253      1.0  0.84228  0.45760  0.39646  1.0000
  S   S254      1.0  0.89322  0.48116  0.29413  1.0000
  S   S255      1.0  0.87064  0.45299  0.32290  1.0000
  C   C723      1.0  0.89566  0.43295  0.45749  1.0000
  C   C724      1.0  0.86843  0.43756  0.46370  1.0000
  C   C725      1.0  0.85217  0.44500  0.44476  1.0000
  C   C726      1.0  0.86305  0.44794  0.41958  1.0000
  C   C727      1.0  0.89035  0.44344  0.41347  1.0000
  C   C728      1.0  0.90655  0.43596  0.43236  1.0000
  C   C729      1.0  0.53259  0.48055  0.21069  1.0000
  H   H719      1.0  0.83107  0.44845  0.44959  1.0000
  H   H720      1.0  0.89893  0.44561  0.39412  1.0000
  H   H721      1.0  0.92757  0.43241  0.42739  1.0000
  C   C730      1.0  0.73878  0.46787  0.23965  1.0000
  C   C731      1.0  0.75986  0.47009  0.22087  1.0000
  C   C732      1.0  0.78696  0.47179  0.22827  1.0000
  C   C733      1.0  0.79344  0.47130  0.25449  1.0000
  C   C734      1.0  0.77214  0.46961  0.27323  1.0000
  C   C735      1.0  0.74504  0.46789  0.26583  1.0000
  H   H722      1.0  0.75547  0.47012  0.20067  1.0000
  H   H723      1.0  0.80319  0.47320  0.21356  1.0000
  H   H724      1.0  0.77667  0.46925  0.29345  1.0000
  H   H725      1.0  0.72892  0.46623  0.28055  1.0000
  C   C736      1.0  0.66084  0.42972  0.10088  1.0000
  C   C737      1.0  0.64765  0.42079  0.08665  1.0000
  C   C738      1.0  0.65615  0.41895  0.06091  1.0000
  C   C739      1.0  0.67834  0.42583  0.04942  1.0000
  C   C740      1.0  0.69173  0.43466  0.06372  1.0000
  C   C741      1.0  0.68285  0.43672  0.08928  1.0000
  H   H726      1.0  0.63069  0.41530  0.09554  1.0000
  H   H727      1.0  0.64568  0.41213  0.05007  1.0000
  H   H728      1.0  0.70889  0.44003  0.05493  1.0000
  H   H729      1.0  0.69327  0.44356  0.10012  1.0000
  H   H730      1.0  0.63444  0.44639  0.03163  1.0000
  N   N59       1.0  0.80283  0.43858  0.24958  1.0000
  C   C742      1.0  0.65602  0.47231  0.06276  1.0000
  Fe  Fe127     1.0  0.66515  0.41200  0.99163  1.0000
  C   C743      1.0  0.00959  0.45405  0.31106  1.0000
  N   N60       1.0  0.65913  0.46212  0.01448  1.0000
  H   H731      1.0  0.53296  0.44765  0.16166  1.0000
  C   C744      1.0  0.64239  0.46072  0.05873  1.0000
  C   C745      1.0  0.75675  0.43495  0.26622  1.0000
  C   C746      1.0  0.98369  0.45966  0.31963  1.0000
  C   C747      1.0  0.98264  0.47068  0.33495  1.0000
  C   C748      1.0  0.81188  0.43821  0.27418  1.0000
  H   H732      1.0  0.96291  0.47508  0.34173  1.0000
  H   H733      1.0  0.95217  0.48164  0.26961  1.0000
  C   C749      1.0  0.79346  0.43640  0.29543  1.0000
  H   H734      1.0  0.63123  0.45536  0.07463  1.0000
  C   C750      1.0  0.53122  0.48986  0.18084  1.0000
  C   C751      1.0  0.82250  0.44055  0.22760  1.0000
  H   H735      1.0  0.00605  0.48521  0.35181  1.0000
  H   H736      1.0  0.88994  0.47279  0.41008  1.0000
  H   H737      1.0  0.75102  0.43378  0.30762  1.0000
  H   H738      1.0  0.52421  0.48507  0.22778  1.0000
  H   H739      1.0  0.92748  0.48879  0.40464  1.0000
  C   C752      1.0  0.77573  0.43680  0.24543  1.0000
  H   H740      1.0  0.81190  0.44516  0.21007  1.0000
  H   H741      1.0  0.80058  0.43661  0.31485  1.0000
  C   C753      1.0  0.67257  0.47349  0.01827  1.0000
  S   S256      1.0  0.65437  0.39003  0.99775  1.0000
  H   H742      1.0  0.56928  0.46087  0.24690  1.0000
  C   C754      1.0  0.51865  0.46737  0.17939  1.0000
  H   H743      1.0  0.76836  0.43735  0.22597  1.0000
  H   H744      1.0  0.84711  0.47897  0.43462  1.0000
  H   H745      1.0  0.83326  0.43987  0.27744  1.0000
  C   C755      1.0  0.96750  0.48764  0.27694  1.0000
  Fe  Fe128     1.0  0.88286  0.49087  0.33095  1.0000
  S   S257      1.0  0.91674  0.42339  0.48048  1.0000
  H   H746      1.0  0.83336  0.43060  0.22352  1.0000
  H   H747      1.0  0.83799  0.44780  0.23172  1.0000
  C   C756      1.0  0.90903  0.49126  0.41633  1.0000
  N   N61       1.0  0.54778  0.46557  0.21274  1.0000
  C   C757      1.0  0.64427  0.45569  0.03434  1.0000
  C   C758      1.0  0.56287  0.45825  0.18936  1.0000
  H   H748      1.0  0.56595  0.36126  0.99000  1.0000
  C   C759      1.0  0.56257  0.46666  0.15877  1.0000
  C   C760      1.0  0.54609  0.48257  0.15466  1.0000
  C   C761      1.0  0.54989  0.45837  0.23840  1.0000
  H   H749      1.0  0.73503  0.43424  0.26273  1.0000
  H   H750      1.0  0.57401  0.44834  0.19263  1.0000
  C   C762      1.0  0.76570  0.43480  0.29136  1.0000
  H   H751      1.0  0.57311  0.46202  0.14265  1.0000
  C   C763      1.0  0.01513  0.49210  0.28149  1.0000
  C   C764      1.0  0.88786  0.48234  0.41909  1.0000
  H   H752      1.0  0.53196  0.46146  0.25105  1.0000
  H   H753      1.0  0.66360  0.35789  0.99790  1.0000
  S   S258      1.0  0.57401  0.38987  0.99938  1.0000
  C   C765      1.0  0.00716  0.47639  0.34069  1.0000
  H   H754      1.0  0.97367  0.41204  0.47411  1.0000
  H   H755      1.0  0.65522  0.47618  0.08168  1.0000
  H   H756      1.0  0.85984  0.43528  0.48299  1.0000
  H   H757      1.0  0.61498  0.36740  0.99609  1.0000
  H   H758      1.0  0.68464  0.47847  0.00260  1.0000
  H   H759      1.0  0.68195  0.48774  0.04560  1.0000
  H   H760      1.0  0.01061  0.44549  0.29927  1.0000
  C   C766      1.0  0.99093  0.41492  0.48455  1.0000
  H   H761      1.0  0.54623  0.48822  0.13585  1.0000
  C   C767      1.0  0.64869  0.35285  0.98783  1.0000
  C   C768      1.0  0.66186  0.45653  0.98922  1.0000
  C   C769      1.0  0.71643  0.25113  0.80930  1.0000
  H   H762      1.0  0.80762  0.38464  0.56843  1.0000
  H   H763      1.0  0.65828  0.46478  0.97341  1.0000
  H   H764      1.0  0.94877  0.44475  0.63706  1.0000
  C   C770      1.0  0.66156  0.24969  0.85446  1.0000
  S   S259      1.0  0.88574  0.46883  0.68230  1.0000
  Fe  Fe129     1.0  0.88654  0.28752  0.68044  1.0000
  S   S260      1.0  0.90161  0.28123  0.71998  1.0000
  S   S261      1.0  0.88064  0.27056  0.65474  1.0000
  Fe  Fe130     1.0  0.89079  0.31799  0.68707  1.0000
  S   S262      1.0  0.90707  0.31312  0.72700  1.0000
  S   S263      1.0  0.88659  0.34108  0.67802  1.0000
  Fe  Fe131     1.0  0.93379  0.29630  0.70991  1.0000
  S   S264      1.0  0.97840  0.28747  0.71262  1.0000
  Fe  Fe132     1.0  0.87298  0.29865  0.73237  1.0000
  S   S265      1.0  0.84575  0.29700  0.76914  1.0000
  S   S266      1.0  0.91976  0.30210  0.66970  1.0000
  S   S267      1.0  0.85570  0.30416  0.69326  1.0000
  Fe  Fe133     1.0  0.62276  0.29751  0.81042  1.0000
  S   S268      1.0  0.62548  0.29470  0.85334  1.0000
  S   S269      1.0  0.58446  0.29140  0.79212  1.0000
  Fe  Fe134     1.0  0.68372  0.30493  0.80283  1.0000
  S   S270      1.0  0.69040  0.30285  0.84557  1.0000
  S   S271      1.0  0.71580  0.31022  0.77079  1.0000
  Fe  Fe135     1.0  0.66682  0.28387  0.84557  1.0000
  S   S272      1.0  0.68040  0.26292  0.86399  1.0000
  Fe  Fe136     1.0  0.64820  0.31404  0.84909  1.0000
  S   S273      1.0  0.63070  0.33115  0.87316  1.0000
  S   S274      1.0  0.66281  0.28534  0.80283  1.0000
  S   S275      1.0  0.64294  0.31747  0.80614  1.0000
  Fe  Fe137     1.0  0.63858  0.41666  0.93992  1.0000
  S   S276      1.0  0.68172  0.40981  0.95092  1.0000
  S   S277      1.0  0.62817  0.43114  0.90543  1.0000
  N   N62       1.0  0.72876  0.48438  0.79579  1.0000
  Fe  Fe138     1.0  0.66664  0.38859  0.95581  1.0000
  S   S278      1.0  0.69086  0.37024  0.94011  1.0000
  S   S279      1.0  0.62483  0.39537  0.94135  1.0000
  Fe  Fe139     1.0  0.86991  0.42798  0.56970  1.0000
  S   S280      1.0  0.85975  0.41454  0.53898  1.0000
  S   S281      1.0  0.84204  0.44546  0.58342  1.0000
  Fe  Fe140     1.0  0.92781  0.41523  0.57457  1.0000
  S   S282      1.0  0.92333  0.40081  0.54441  1.0000
  S   S283      1.0  0.96532  0.41793  0.59651  1.0000
  Fe  Fe141     1.0  0.90188  0.41883  0.52192  1.0000
  Fe  Fe142     1.0  0.88197  0.39756  0.56401  1.0000
  S   S284      1.0  0.86852  0.37587  0.57047  1.0000
  S   S285      1.0  0.91017  0.43351  0.55064  1.0000
  S   S286      1.0  0.88818  0.41066  0.59604  1.0000
  H   H765      1.0  0.68498  0.48424  0.80161  1.0000
  H   H766      1.0  0.93688  0.34761  0.59165  1.0000
  C   C771      1.0  0.64852  0.34192  0.89097  1.0000
  C   C772      1.0  0.67699  0.34008  0.89448  1.0000
  C   C773      1.0  0.68984  0.34882  0.90958  1.0000
  C   C774      1.0  0.67433  0.35946  0.92111  1.0000
  C   C775      1.0  0.64594  0.36128  0.91739  1.0000
  C   C776      1.0  0.63314  0.35257  0.90242  1.0000
  H   H767      1.0  0.68901  0.33184  0.88583  1.0000
  H   H768      1.0  0.71182  0.34728  0.91246  1.0000
  H   H769      1.0  0.63364  0.36923  0.92636  1.0000
  H   H770      1.0  0.61109  0.35403  0.89983  1.0000
  C   C777      1.0  0.88008  0.25368  0.66982  1.0000
  H   H771      1.0  0.87183  0.25992  0.70809  1.0000
  C   C778      1.0  0.88058  0.35040  0.64798  1.0000
  C   C779      1.0  0.87464  0.34407  0.62606  1.0000
  C   C780      1.0  0.87069  0.35200  0.60241  1.0000
  C   C781      1.0  0.87305  0.36623  0.60049  1.0000
  C   C782      1.0  0.87889  0.37251  0.62247  1.0000
  C   C783      1.0  0.88245  0.36464  0.64611  1.0000
  H   H772      1.0  0.87298  0.33311  0.62733  1.0000
  H   H773      1.0  0.86599  0.34708  0.58550  1.0000
  H   H774      1.0  0.88067  0.38343  0.62132  1.0000
  H   H775      1.0  0.88701  0.36960  0.66302  1.0000
  C   C784      1.0  0.80908  0.29834  0.76882  1.0000
  C   C785      1.0  0.79513  0.30195  0.74600  1.0000
  C   C786      1.0  0.76625  0.30473  0.74681  1.0000
  C   C787      1.0  0.75094  0.30385  0.77035  1.0000
  C   C788      1.0  0.76463  0.29946  0.79304  1.0000
  C   C789      1.0  0.79361  0.29678  0.79226  1.0000
  H   H776      1.0  0.80662  0.30307  0.72781  1.0000
  H   H777      1.0  0.75582  0.30800  0.72913  1.0000
  H   H778      1.0  0.75311  0.29874  0.81133  1.0000
  H   H779      1.0  0.80417  0.29389  0.81001  1.0000
  C   C790      1.0  0.87120  0.46227  0.65602  1.0000
  C   C791      1.0  0.87935  0.44885  0.65048  1.0000
  C   C792      1.0  0.87024  0.44364  0.62840  1.0000
  C   C793      1.0  0.85241  0.45170  0.61194  1.0000
  C   C794      1.0  0.84340  0.46497  0.61794  1.0000
  C   C795      1.0  0.85301  0.47032  0.63983  1.0000
  H   H780      1.0  0.89325  0.44255  0.66305  1.0000
  H   H781      1.0  0.87713  0.43339  0.62420  1.0000
  H   H782      1.0  0.82953  0.47127  0.60535  1.0000
  H   H783      1.0  0.84660  0.48070  0.64400  1.0000
  C   C796      1.0  0.66570  0.47249  0.90361  1.0000
  C   C797      1.0  0.67678  0.46128  0.91936  1.0000
  C   C798      1.0  0.66494  0.44861  0.92054  1.0000
  C   C799      1.0  0.64243  0.44705  0.90543  1.0000
  C   C800      1.0  0.63142  0.45825  0.88968  1.0000
  C   C801      1.0  0.64278  0.47099  0.88905  1.0000
  H   H784      1.0  0.69456  0.46238  0.93061  1.0000
  H   H785      1.0  0.67354  0.44001  0.93275  1.0000
  H   H786      1.0  0.61383  0.45713  0.87817  1.0000
  H   H787      1.0  0.63366  0.47963  0.87731  1.0000
  C   C802      1.0  0.52291  0.31501  0.82524  1.0000
  C   C803      1.0  0.95177  0.26385  0.66696  1.0000
  H   H788      1.0  0.95860  0.38215  0.64970  1.0000
  H   H789      1.0  0.96848  0.33142  0.63404  1.0000
  H   H790      1.0  0.82353  0.38425  0.61305  1.0000
  H   H791      1.0  0.68685  0.47990  0.84913  1.0000
  H   H792      1.0  0.71663  0.37959  0.88880  1.0000
  H   H793      1.0  0.89949  0.46241  0.56540  1.0000
  H   H794      1.0  0.98597  0.31406  0.73137  1.0000
  C   C804      1.0  0.54922  0.30941  0.81777  1.0000
  C   C805      1.0  0.55172  0.29873  0.80164  1.0000
  H   H795      1.0  0.93990  0.45701  0.66003  1.0000
  N   N63       1.0  0.60269  0.35224  0.97295  1.0000
  H   H796      1.0  0.93958  0.27229  0.67598  1.0000
  C   C806      1.0  0.55013  0.40106  0.95463  1.0000
  H   H797      1.0  0.56922  0.40583  0.94987  1.0000
  C   C807      1.0  0.90677  0.46684  0.58196  1.0000
  H   H798      1.0  0.52148  0.25211  0.83283  1.0000
  C   C808      1.0  0.63741  0.25271  0.84076  1.0000
  S   S287      1.0  0.62279  0.42030  0.97994  1.0000
  H   H799      1.0  0.97601  0.39555  0.56381  1.0000
  H   H800      1.0  0.68540  0.36981  0.86277  1.0000
  C   C809      1.0  0.65940  0.40046  0.87996  1.0000
  H   H801      1.0  0.67063  0.25810  0.78294  1.0000
  N   N64       1.0  0.79509  0.33351  0.76223  1.0000
  C   C810      1.0  0.77783  0.33628  0.74204  1.0000
  C   C811      1.0  0.82312  0.33218  0.75783  1.0000
  C   C812      1.0  0.78856  0.33751  0.71659  1.0000
  C   C813      1.0  0.83452  0.33353  0.73267  1.0000
  C   C814      1.0  0.81712  0.33616  0.71194  1.0000
  C   C815      1.0  0.78363  0.33256  0.78881  1.0000
  H   H802      1.0  0.75557  0.33705  0.74551  1.0000
  H   H803      1.0  0.83682  0.32969  0.77376  1.0000
  H   H804      1.0  0.77480  0.33928  0.70060  1.0000
  H   H805      1.0  0.85672  0.33238  0.72921  1.0000
  H   H806      1.0  0.82585  0.33701  0.69233  1.0000
  H   H807      1.0  0.79583  0.32469  0.80112  1.0000
  H   H808      1.0  0.78381  0.34260  0.79693  1.0000
  H   H809      1.0  0.76204  0.32938  0.78971  1.0000
  N   N65       1.0  0.67807  0.38956  0.87685  1.0000
  H   H810      1.0  0.76689  0.43012  0.55296  1.0000
  H   H811      1.0  0.73530  0.25234  0.79673  1.0000
  H   H812      1.0  0.63770  0.36893  0.84876  1.0000
  H   H813      1.0  0.70655  0.39487  0.90359  1.0000
  H   H814      1.0  0.64448  0.32636  0.95083  1.0000
  C   C816      1.0  0.52770  0.29352  0.79344  1.0000
  C   C817      1.0  0.67067  0.37849  0.86522  1.0000
  C   C818      1.0  0.64367  0.37795  0.85719  1.0000
  C   C819      1.0  0.63224  0.40027  0.87216  1.0000
  C   C820      1.0  0.62433  0.38889  0.86087  1.0000
  N   N66       1.0  0.93145  0.46428  0.62131  1.0000
  H   H815      1.0  0.96998  0.45899  0.63852  1.0000
  H   H816      1.0  0.61740  0.40887  0.87517  1.0000
  H   H817      1.0  0.60321  0.38854  0.85509  1.0000
  N   N67       1.0  0.52751  0.27106  0.84797  1.0000
  H   H818      1.0  0.92963  0.48172  0.64305  1.0000
  H   H819      1.0  0.56760  0.27908  0.84658  1.0000
  C   C821      1.0  0.87642  0.25140  0.69658  1.0000
  C   C822      1.0  0.00701  0.29771  0.71174  1.0000
  H   H820      1.0  0.94452  0.33532  0.66039  1.0000
  H   H821      1.0  0.74623  0.49083  0.75861  1.0000
  C   C823      1.0  0.65704  0.34122  0.97520  1.0000
  C   C824      1.0  0.70489  0.48323  0.81055  1.0000
  C   C825      1.0  0.89843  0.48035  0.58641  1.0000
  H   H822      1.0  0.77281  0.48402  0.79541  1.0000
  H   H823      1.0  0.57475  0.36822  0.95777  1.0000
  H   H824      1.0  0.94237  0.26309  0.64808  1.0000
  C   C826      1.0  0.55762  0.26952  0.84370  1.0000
  H   H825      1.0  0.70582  0.26144  0.81116  1.0000
  N   N68       1.0  0.95070  0.25101  0.68349  1.0000
  H   H826      1.0  0.62976  0.26326  0.83647  1.0000
  C   C827      1.0  0.70575  0.48090  0.83742  1.0000
  C   C828      1.0  0.94818  0.33667  0.63908  1.0000
  H   H827      1.0  0.82247  0.40600  0.63438  1.0000
  C   C829      1.0  0.92374  0.47758  0.62561  1.0000
  H   H828      1.0  0.52953  0.28526  0.78094  1.0000
  C   C830      1.0  0.62126  0.35825  0.98651  1.0000
  H   H829      1.0  0.95041  0.26092  0.71830  1.0000
  C   C831      1.0  0.63795  0.33511  0.96150  1.0000
  C   C832      1.0  0.70644  0.39005  0.88505  1.0000
  H   H830      1.0  0.64675  0.44875  0.98737  1.0000
  C   C833      1.0  0.72736  0.48635  0.76761  1.0000
  H   H831      1.0  0.59632  0.33629  0.94896  1.0000
  C   C834      1.0  0.99522  0.39982  0.56697  1.0000
  N   N69       1.0  0.94762  0.35121  0.62965  1.0000
  C   C835      1.0  0.95376  0.36072  0.64580  1.0000
  C   C836      1.0  0.94205  0.35511  0.60440  1.0000
  C   C837      1.0  0.95401  0.37458  0.63685  1.0000
  C   C838      1.0  0.94207  0.36888  0.59483  1.0000
  C   C839      1.0  0.94806  0.37866  0.61122  1.0000
  C   C840      1.0  0.57452  0.35860  0.97077  1.0000
  C   C841      1.0  0.99581  0.41064  0.58263  1.0000
  H   H832      1.0  0.78200  0.43962  0.57599  1.0000
  C   C842      1.0  0.92360  0.45893  0.59960  1.0000
  H   H833      1.0  0.93677  0.37197  0.57501  1.0000
  H   H834      1.0  0.94781  0.38940  0.60420  1.0000
  H   H835      1.0  0.93146  0.33157  0.63062  1.0000
  H   H836      1.0  0.56760  0.31348  0.82420  1.0000
  C   C843      1.0  0.73110  0.47999  0.84921  1.0000
  C   C844      1.0  0.95031  0.25126  0.70974  1.0000
  H   H837      1.0  0.56029  0.35173  0.96315  1.0000
  H   H838      1.0  0.77523  0.48043  0.84298  1.0000
  H   H839      1.0  0.56297  0.26725  0.82346  1.0000
  C   C845      1.0  0.94846  0.45583  0.64009  1.0000
  H   H840      1.0  0.66535  0.40933  0.88884  1.0000
  H   H841      1.0  0.80254  0.43448  0.54858  1.0000
  C   C846      1.0  0.61071  0.34083  0.96046  1.0000
  H   H842      1.0  0.92961  0.44836  0.59625  1.0000
  Fe  Fe143     1.0  0.87616  0.49115  0.68850  1.0000
  C   C847      1.0  0.75384  0.48312  0.80712  1.0000
  N   N70       1.0  0.79558  0.41831  0.57729  1.0000
  C   C848      1.0  0.79642  0.40643  0.56536  1.0000
  C   C849      1.0  0.80474  0.41822  0.60182  1.0000
  C   C850      1.0  0.80627  0.39401  0.57813  1.0000
  C   C851      1.0  0.81479  0.40599  0.61512  1.0000
  C   C852      1.0  0.81543  0.39381  0.60318  1.0000
  C   C853      1.0  0.78619  0.43124  0.56300  1.0000
  H   H843      1.0  0.79004  0.40655  0.54562  1.0000
  H   H844      1.0  0.80478  0.42769  0.61109  1.0000
  C   C854      1.0  0.90711  0.48581  0.60824  1.0000
  H   H845      1.0  0.56676  0.26113  0.85711  1.0000
  H   H846      1.0  0.97346  0.26666  0.66386  1.0000
  H   H847      1.0  0.88479  0.48648  0.57328  1.0000
  C   C855      1.0  0.52854  0.40302  0.93732  1.0000
  C   C856      1.0  0.00825  0.42632  0.51899  1.0000
  H   H848      1.0  0.71869  0.39600  0.87009  1.0000
  C   C857      1.0  0.54670  0.39317  0.97816  1.0000
  C   C858      1.0  0.75538  0.48109  0.83401  1.0000
  C   C859      1.0  0.00556  0.31001  0.72349  1.0000
  H   H849      1.0  0.95812  0.35763  0.66583  1.0000
  C   C860      1.0  0.67583  0.24715  0.78516  1.0000
  H   H850      1.0  0.72505  0.47640  0.75969  1.0000
  C   C861      1.0  0.52153  0.38740  0.98443  1.0000
  H   H851      1.0  0.53129  0.40915  0.91919  1.0000
  S   S288      1.0  0.68128  0.48815  0.90171  1.0000
  H   H852      1.0  0.73177  0.47848  0.87013  1.0000
  C   C862      1.0  0.98601  0.42265  0.50568  1.0000
  H   H853      1.0  0.96496  0.42570  0.51179  1.0000
  H   H854      1.0  0.00461  0.43206  0.53582  1.0000
  H   H855      1.0  0.67851  0.33725  0.97531  1.0000
  H   H856      1.0  0.01258  0.28328  0.76881  1.0000
  Fe  Fe144     1.0  0.61323  0.39825  0.98260  1.0000
  H   H857      1.0  0.52120  0.32339  0.83747  1.0000
  H   H858      1.0  0.72226  0.24716  0.82915  1.0000
  H   H859      1.0  0.70955  0.49362  0.76192  1.0000
  H   H860      1.0  0.68289  0.45144  0.98657  1.0000
  H   H861      1.0  0.52768  0.29038  0.86370  1.0000
  Fe  Fe145     1.0  0.59031  0.59222  0.04371  1.0000
  S   S289      1.0  0.55712  0.60801  0.03076  1.0000
  Fe  Fe146     1.0  0.60743  0.56408  0.06890  1.0000
  S   S290      1.0  0.65226  0.56827  0.06710  1.0000
  S   S291      1.0  0.59042  0.54519  0.08955  1.0000
  Fe  Fe147     1.0  0.63769  0.58889  0.08014  1.0000
  S   S292      1.0  0.65444  0.59708  0.11522  1.0000
  S   S293      1.0  0.59337  0.58395  0.08486  1.0000
  S   S294      1.0  0.59957  0.57187  0.02771  1.0000
  Fe  Fe148     1.0  0.92920  0.56572  0.44280  1.0000
  C   C863      1.0  0.87404  0.65007  0.22088  1.0000
  S   S295      1.0  0.96952  0.56421  0.42036  1.0000
  Fe  Fe149     1.0  0.87314  0.55401  0.44873  1.0000
  H   H862      1.0  0.87998  0.51589  0.45257  1.0000
  S   S296      1.0  0.84520  0.53964  0.43331  1.0000
  Fe  Fe150     1.0  0.87920  0.58348  0.45843  1.0000
  S   S297      1.0  0.85781  0.60467  0.45198  1.0000
  C   C864      1.0  0.96582  0.73093  0.31992  1.0000
  S   S298      1.0  0.88914  0.57170  0.42394  1.0000
  S   S299      1.0  0.91432  0.54673  0.46429  1.0000
  Fe  Fe151     1.0  0.60728  0.67056  0.20800  1.0000
  S   S300      1.0  0.60929  0.68270  0.16975  1.0000
  S   S301      1.0  0.56684  0.66286  0.22505  1.0000
  Fe  Fe152     1.0  0.66931  0.67373  0.21693  1.0000
  S   S302      1.0  0.67512  0.68608  0.17872  1.0000
  S   S303      1.0  0.69915  0.67074  0.24988  1.0000
  Fe  Fe153     1.0  0.63415  0.69705  0.18865  1.0000
  S   S304      1.0  0.61779  0.71912  0.19092  1.0000
  Fe  Fe154     1.0  0.64949  0.67027  0.16371  1.0000
  S   S305      1.0  0.65394  0.66122  0.12499  1.0000
  S   S306      1.0  0.62971  0.68556  0.22753  1.0000
  S   S307      1.0  0.64626  0.65728  0.20136  1.0000
  Fe  Fe155     1.0  0.91522  0.67969  0.29640  1.0000
  S   S308      1.0  0.90502  0.67725  0.33873  1.0000
  S   S309      1.0  0.95650  0.68763  0.28230  1.0000
  Fe  Fe156     1.0  0.85533  0.67443  0.28256  1.0000
  S   S310      1.0  0.84125  0.67168  0.32432  1.0000
  S   S311      1.0  0.83005  0.67413  0.24668  1.0000
  Fe  Fe157     1.0  0.86593  0.68999  0.32866  1.0000
  S   S312      1.0  0.85202  0.70861  0.35011  1.0000
  Fe  Fe158     1.0  0.88193  0.65925  0.33020  1.0000
  S   S313      1.0  0.89342  0.63752  0.34670  1.0000
  S   S314      1.0  0.87731  0.69333  0.28660  1.0000
  S   S315      1.0  0.89463  0.66101  0.28798  1.0000
  S   S316      1.0  0.63366  0.59860  0.03976  1.0000
  S   S317      1.0  0.89757  0.51165  0.33601  1.0000
  C   C865      1.0  0.90168  0.66981  0.22349  1.0000
  C   C866      1.0  0.86513  0.72438  0.33821  1.0000
  C   C867      1.0  0.88427  0.72500  0.31740  1.0000
  H   H863      1.0  0.96292  0.50899  0.34122  1.0000
  C   C868      1.0  0.96997  0.51459  0.32288  1.0000
  Fe  Fe159     1.0  0.64356  0.57744  0.02680  1.0000
  C   C869      1.0  0.85737  0.73637  0.35036  1.0000
  H   H864      1.0  0.89115  0.71588  0.30833  1.0000
  C   C870      1.0  0.52173  0.56332  0.08595  1.0000
  C   C871      1.0  0.01277  0.68594  0.28713  1.0000
  H   H865      1.0  0.84266  0.73596  0.36660  1.0000
  C   C872      1.0  0.63660  0.73376  0.18350  1.0000
  C   C873      1.0  0.66052  0.73358  0.16749  1.0000
  H   H866      1.0  0.52249  0.54134  0.08758  1.0000
  H   H867      1.0  0.96713  0.58895  0.44749  1.0000
  H   H868      1.0  0.66812  0.72422  0.15932  1.0000
  C   C874      1.0  0.64130  0.54688  0.14202  1.0000
  H   H869      1.0  0.94635  0.69886  0.33711  1.0000
  C   C875      1.0  0.73567  0.67110  0.24823  1.0000
  C   C876      1.0  0.75075  0.67281  0.22477  1.0000
  C   C877      1.0  0.77965  0.67363  0.22459  1.0000
  C   C878      1.0  0.79373  0.67283  0.24781  1.0000
  C   C879      1.0  0.77862  0.67116  0.27122  1.0000
  C   C880      1.0  0.74979  0.67024  0.27140  1.0000
  H   H870      1.0  0.74014  0.67350  0.20680  1.0000
  H   H871      1.0  0.79114  0.67491  0.20636  1.0000
  H   H872      1.0  0.78914  0.67050  0.28923  1.0000
  H   H873      1.0  0.73834  0.66890  0.28965  1.0000
  C   C881      1.0  0.86948  0.61466  0.42422  1.0000
  C   C882      1.0  0.89169  0.60975  0.40885  1.0000
  C   C883      1.0  0.89911  0.61711  0.38552  1.0000
  C   C884      1.0  0.88470  0.62956  0.37744  1.0000
  C   C885      1.0  0.86292  0.63471  0.39311  1.0000
  C   C886      1.0  0.85529  0.62724  0.41642  1.0000
  H   H874      1.0  0.90306  0.60020  0.41477  1.0000
  H   H875      1.0  0.91601  0.61307  0.37354  1.0000
  H   H876      1.0  0.85160  0.64426  0.38699  1.0000
  H   H877      1.0  0.83808  0.63111  0.42823  1.0000
  C   C887      1.0  0.85924  0.53230  0.40562  1.0000
  C   C888      1.0  0.88419  0.53637  0.39405  1.0000
  C   C889      1.0  0.89564  0.53008  0.37248  1.0000
  C   C890      1.0  0.88255  0.51948  0.36279  1.0000
  C   C891      1.0  0.85775  0.51531  0.37455  1.0000
  C   C892      1.0  0.84589  0.52186  0.39568  1.0000
  H   H878      1.0  0.89478  0.54433  0.40170  1.0000
  H   H879      1.0  0.91485  0.53333  0.36347  1.0000
  H   H880      1.0  0.63772  0.56867  0.13155  1.0000
  C   C893      1.0  0.65159  0.55949  0.13387  1.0000
  C   C894      1.0  0.65595  0.64332  0.12239  1.0000
  C   C895      1.0  0.65958  0.63388  0.14395  1.0000
  C   C896      1.0  0.65966  0.61974  0.14137  1.0000
  C   C897      1.0  0.65580  0.61490  0.11729  1.0000
  C   C898      1.0  0.65249  0.62432  0.09567  1.0000
  C   C899      1.0  0.65280  0.63845  0.09820  1.0000
  H   H881      1.0  0.66254  0.63745  0.16259  1.0000
  H   H882      1.0  0.66253  0.61253  0.15816  1.0000
  H   H883      1.0  0.64979  0.62072  0.07698  1.0000
  H   H884      1.0  0.65024  0.64567  0.08137  1.0000
  C   C900      1.0  0.61508  0.53118  0.09357  1.0000
  C   C901      1.0  0.64067  0.53131  0.08016  1.0000
  C   C902      1.0  0.66086  0.52050  0.08485  1.0000
  C   C903      1.0  0.65555  0.50950  0.10295  1.0000
  C   C904      1.0  0.62974  0.50919  0.11598  1.0000
  C   C905      1.0  0.60951  0.52001  0.11123  1.0000
  H   H885      1.0  0.64492  0.53969  0.06602  1.0000
  H   H886      1.0  0.68070  0.52073  0.07456  1.0000
  H   H887      1.0  0.92143  0.63634  0.23374  1.0000
  H   H888      1.0  0.58975  0.51983  0.12166  1.0000
  H   H889      1.0  0.88347  0.67661  0.21926  1.0000
  C   C906      1.0  0.98845  0.67901  0.29127  1.0000
  C   C907      1.0  0.99024  0.66532  0.30143  1.0000
  S   S318      1.0  0.68193  0.49665  0.11001  1.0000
  H   H890      1.0  0.97168  0.65985  0.30464  1.0000
  H   H891      1.0  0.98678  0.52105  0.32702  1.0000
  C   C908      1.0  0.91769  0.70885  0.37721  1.0000
  C   C909      1.0  0.53585  0.66577  0.20811  1.0000
  C   C910      1.0  0.53598  0.67097  0.18223  1.0000
  H   H892      1.0  0.97403  0.71158  0.30352  1.0000
  C   C911      1.0  0.67980  0.56024  0.12816  1.0000
  H   H893      1.0  0.55525  0.67303  0.17204  1.0000
  C   C912      1.0  0.94778  0.65267  0.23675  1.0000
  C   C913      1.0  0.54700  0.70866  0.18544  1.0000
  C   C914      1.0  0.88205  0.50643  0.44318  1.0000
  N   N71       1.0  0.97894  0.50476  0.30409  1.0000
  H   H894      1.0  0.71917  0.54888  0.12551  1.0000
  H   H895      1.0  0.62550  0.50078  0.13010  1.0000
  H   H896      1.0  0.65130  0.52538  0.15080  1.0000
  N   N72       1.0  0.93420  0.71646  0.35734  1.0000
  H   H897      1.0  0.61927  0.54611  0.14569  1.0000
  C   C915      1.0  0.00647  0.50205  0.29829  1.0000
  H   H898      1.0  0.92720  0.68649  0.22825  1.0000
  H   H899      1.0  0.71282  0.71644  0.18570  1.0000
  H   H900      1.0  0.95233  0.52151  0.31552  1.0000
  C   C916      1.0  0.53394  0.69678  0.22619  1.0000
  H   H901      1.0  0.57572  0.70117  0.21468  1.0000
  H   H902      1.0  0.96856  0.67109  0.23943  1.0000
  H   H903      1.0  0.90811  0.70034  0.36911  1.0000
  C   C917      1.0  0.92284  0.64734  0.23165  1.0000
  H   H904      1.0  0.86294  0.64800  0.23983  1.0000
  C   C918      1.0  0.92629  0.67547  0.22851  1.0000
  S   S319      1.0  0.67323  0.57510  0.99252  1.0000
  C   C919      1.0  0.55428  0.70215  0.20933  1.0000
  C   C920      1.0  0.90622  0.50338  0.42855  1.0000
  H   H905      1.0  0.91064  0.73762  0.29282  1.0000
  C   C921      1.0  0.99716  0.54084  0.47101  1.0000
  C   C922      1.0  0.53025  0.60074  0.01677  1.0000
  N   N73       1.0  0.90031  0.65590  0.22480  1.0000
  H   H906      1.0  0.93082  0.70460  0.39333  1.0000
  N   N74       1.0  0.82424  0.58134  0.40374  1.0000
  C   C923      1.0  0.83270  0.57113  0.38832  1.0000
  C   C924      1.0  0.82865  0.59468  0.39585  1.0000
  C   C925      1.0  0.84740  0.57409  0.36500  1.0000
  C   C926      1.0  0.84302  0.59803  0.37253  1.0000
  C   C927      1.0  0.85274  0.58764  0.35720  1.0000
  C   C928      1.0  0.80964  0.57808  0.42852  1.0000
  H   H907      1.0  0.82874  0.56058  0.39429  1.0000
  H   H908      1.0  0.82162  0.60280  0.40791  1.0000
  H   H909      1.0  0.85487  0.56589  0.35329  1.0000
  H   H910      1.0  0.84709  0.60861  0.36670  1.0000
  H   H911      1.0  0.86447  0.59011  0.33938  1.0000
  H   H912      1.0  0.81457  0.56726  0.43609  1.0000
  H   H913      1.0  0.81603  0.58461  0.44331  1.0000
  H   H914      1.0  0.78700  0.57980  0.42628  1.0000
  N   N75       1.0  0.59016  0.63796  0.14043  1.0000
  C   C929      1.0  0.58960  0.62409  0.14010  1.0000
  C   C930      1.0  0.58681  0.64638  0.11821  1.0000
  C   C931      1.0  0.58614  0.61827  0.11701  1.0000
  C   C932      1.0  0.58322  0.64090  0.09476  1.0000
  C   C933      1.0  0.58294  0.62674  0.09419  1.0000
  C   C934      1.0  0.59356  0.64386  0.16487  1.0000
  H   H915      1.0  0.59275  0.61740  0.15761  1.0000
  H   H916      1.0  0.58793  0.65736  0.11838  1.0000
  H   H917      1.0  0.58695  0.60724  0.11673  1.0000
  H   H918      1.0  0.58152  0.64756  0.07704  1.0000
  H   H919      1.0  0.58091  0.62231  0.07602  1.0000
  H   H920      1.0  0.60683  0.63688  0.17791  1.0000
  H   H921      1.0  0.60402  0.65356  0.16153  1.0000
  H   H922      1.0  0.57314  0.64591  0.17479  1.0000
  N   N76       1.0  0.69470  0.70698  0.24790  1.0000
  C   C935      1.0  0.72033  0.70353  0.25740  1.0000
  C   C936      1.0  0.69190  0.71158  0.22248  1.0000
  C   C937      1.0  0.74408  0.70478  0.24138  1.0000
  C   C938      1.0  0.71519  0.71290  0.20588  1.0000
  C   C939      1.0  0.74142  0.70942  0.21544  1.0000
  C   C940      1.0  0.67020  0.70526  0.26504  1.0000
  H   H923      1.0  0.72248  0.69933  0.27726  1.0000
  H   H924      1.0  0.67159  0.71410  0.21481  1.0000
  H   H925      1.0  0.75964  0.71009  0.20268  1.0000
  C   C941      1.0  0.52466  0.58712  0.02371  1.0000
  H   H926      1.0  0.90014  0.71548  0.38472  1.0000
  H   H927      1.0  0.67245  0.71013  0.28319  1.0000
  H   H928      1.0  0.65107  0.70996  0.25595  1.0000
  H   H929      1.0  0.66762  0.69415  0.26983  1.0000
  C   C942      1.0  0.98810  0.58447  0.44708  1.0000
  H   H930      1.0  0.54235  0.56373  0.07708  1.0000
  C   C943      1.0  0.96380  0.71689  0.31908  1.0000
  H   H931      1.0  0.92238  0.51049  0.42634  1.0000
  H   H932      1.0  0.76432  0.70164  0.24885  1.0000
  H   H933      1.0  0.01167  0.69648  0.27901  1.0000
  C   C944      1.0  0.99499  0.57296  0.43348  1.0000
  H   H934      1.0  0.96551  0.64591  0.24262  1.0000
  H   H935      1.0  0.97732  0.73666  0.30481  1.0000
  H   H936      1.0  0.68785  0.57002  0.12148  1.0000
  H   H937      1.0  0.69604  0.51469  0.15107  1.0000
  H   H938      1.0  0.84748  0.50718  0.36711  1.0000
  H   H939      1.0  0.98283  0.53604  0.45988  1.0000
  C   C945      1.0  0.93653  0.73018  0.35861  1.0000
  C   C946      1.0  0.94796  0.70975  0.33814  1.0000
  C   C947      1.0  0.65951  0.53516  0.14462  1.0000
  H   H940      1.0  0.86036  0.65727  0.20858  1.0000
  C   C948      1.0  0.94950  0.66682  0.23500  1.0000
  H   H941      1.0  0.81712  0.49777  0.45052  1.0000
  H   H942      1.0  0.82656  0.51869  0.40452  1.0000
  H   H943      1.0  0.00306  0.59907  0.47080  1.0000
  H   H944      1.0  0.93780  0.49968  0.29877  1.0000
  H   H945      1.0  0.83667  0.49697  0.47956  1.0000
  C   C949      1.0  0.89556  0.73738  0.30877  1.0000
  S   S320      1.0  0.92076  0.57878  0.47569  1.0000
  H   H946      1.0  0.53695  0.58100  0.03786  1.0000
  N   N77       1.0  0.68715  0.53597  0.13890  1.0000
  C   C950      1.0  0.69736  0.54827  0.13054  1.0000
  H   H947      1.0  0.92531  0.73556  0.37357  1.0000
  H   H948      1.0  0.72469  0.52521  0.15109  1.0000
  H   H949      1.0  0.71211  0.52066  0.12092  1.0000
  H   H950      1.0  0.56286  0.71284  0.17227  1.0000
  C   C951      1.0  0.00850  0.59027  0.46004  1.0000
  S   S321      1.0  0.85990  0.56611  0.48235  1.0000
  H   H951      1.0  0.87737  0.64041  0.21129  1.0000
  C   C952      1.0  0.70594  0.52356  0.14063  1.0000
  C   C953      1.0  0.95233  0.73761  0.33994  1.0000
  H   H952      1.0  0.83140  0.51283  0.45929  1.0000
  H   H953      1.0  0.53963  0.69131  0.24446  1.0000
  C   C954      1.0  0.51930  0.70966  0.17867  1.0000
  H   H954      1.0  0.51912  0.61910  0.99259  1.0000
  C   C955      1.0  0.98747  0.55112  0.48674  1.0000
  C   C956      1.0  0.83526  0.50152  0.45932  1.0000
  C   C957      1.0  0.95954  0.49774  0.29363  1.0000
  H   H955      1.0  0.52194  0.50022  0.17893  1.0000
  N   N78       1.0  0.86081  0.49794  0.44462  1.0000
  H   H956      1.0  0.69223  0.74565  0.14850  1.0000
  C   C958      1.0  0.67405  0.74572  0.16129  1.0000
  C   C959      1.0  0.01624  0.65857  0.30688  1.0000
  Fe  Fe160     1.0  0.64278  0.53524  0.87027  1.0000
  S   S322      1.0  0.62489  0.53392  0.83135  1.0000
  S   S323      1.0  0.64391  0.55633  0.88447  1.0000
  Fe  Fe161     1.0  0.66351  0.52036  0.82323  1.0000
  H   H957      1.0  0.94325  0.56346  0.60284  1.0000
  Fe  Fe162     1.0  0.60577  0.51509  0.84994  1.0000
  S   S324      1.0  0.56316  0.50679  0.84787  1.0000
  C   C960      1.0  0.74321  0.51653  0.79787  1.0000
  C   C961      1.0  0.52953  0.51508  0.84405  1.0000
  S   S325      1.0  0.62134  0.51736  0.88939  1.0000
  H   H958      1.0  0.95915  0.55183  0.66849  1.0000
  H   H959      1.0  0.54955  0.57017  0.92732  1.0000
  S   S326      1.0  0.91933  0.55217  0.53528  1.0000
  S   S327      1.0  0.68819  0.52222  0.78458  1.0000
  S   S328      1.0  0.86557  0.52936  0.69990  1.0000
  S   S329      1.0  0.84040  0.53097  0.62841  1.0000
  H   H960      1.0  0.76340  0.54652  0.78329  1.0000
  N   N79       1.0  0.70257  0.55428  0.81481  1.0000
  Fe  Fe163     1.0  0.90277  0.56018  0.49628  1.0000
  S   S330      1.0  0.94595  0.52677  0.70139  1.0000
  C   C962      1.0  0.95633  0.54977  0.64813  1.0000
  H   H961      1.0  0.66023  0.55809  0.82737  1.0000
  C   C963      1.0  0.89691  0.54497  0.55959  1.0000
  C   C964      1.0  0.86825  0.54760  0.55876  1.0000
  C   C965      1.0  0.85111  0.54287  0.57967  1.0000
  C   C966      1.0  0.86242  0.53543  0.60149  1.0000
  C   C967      1.0  0.89104  0.53245  0.60196  1.0000
  C   C968      1.0  0.90820  0.53722  0.58109  1.0000
  H   H962      1.0  0.85934  0.55361  0.54235  1.0000
  H   H963      1.0  0.82900  0.54523  0.57918  1.0000
  H   H964      1.0  0.90005  0.52688  0.61872  1.0000
  H   H965      1.0  0.93035  0.53516  0.58189  1.0000
  C   C969      1.0  0.74899  0.54868  0.79922  1.0000
  C   C970      1.0  0.77182  0.51468  0.79180  1.0000
  S   S331      1.0  0.89800  0.50704  0.66349  1.0000
  Fe  Fe164     1.0  0.90571  0.51611  0.70025  1.0000
  H   H966      1.0  0.71391  0.55234  0.77519  1.0000
  C   C971      1.0  0.98573  0.50516  0.71179  1.0000
  C   C972      1.0  0.65462  0.55856  0.91577  1.0000
  C   C973      1.0  0.67649  0.56684  0.91784  1.0000
  C   C974      1.0  0.68241  0.57125  0.94172  1.0000
  C   C975      1.0  0.60939  0.58597  0.92833  1.0000
  C   C976      1.0  0.64412  0.55947  0.96204  1.0000
  C   C977      1.0  0.63867  0.55466  0.93806  1.0000
  H   H967      1.0  0.68854  0.57018  0.90077  1.0000
  Fe  Fe165     1.0  0.84565  0.51168  0.72237  1.0000
  H   H968      1.0  0.69934  0.57771  0.94291  1.0000
  H   H969      1.0  0.62132  0.54851  0.93657  1.0000
  C   C978      1.0  0.73484  0.52116  0.75245  1.0000
  C   C979      1.0  0.67346  0.55791  0.80938  1.0000
  C   C980      1.0  0.72450  0.51979  0.77818  1.0000
  C   C981      1.0  0.00267  0.52747  0.70030  1.0000
  C   C982      1.0  0.78214  0.51584  0.76601  1.0000
  C   C983      1.0  0.76341  0.51912  0.74636  1.0000
  C   C984      1.0  0.58946  0.57817  0.91933  1.0000
  C   C985      1.0  0.98026  0.51913  0.70459  1.0000
  H   H970      1.0  0.63135  0.55676  0.97900  1.0000
  H   H971      1.0  0.77956  0.54464  0.82817  1.0000
  C   C986      1.0  0.87618  0.56413  0.62390  1.0000
  C   C987      1.0  0.87968  0.55707  0.64812  1.0000
  C   C988      1.0  0.52528  0.52897  0.83560  1.0000
  C   C989      1.0  0.90631  0.55260  0.65586  1.0000
  H   H972      1.0  0.69671  0.55520  0.85556  1.0000
  H   H973      1.0  0.85554  0.56715  0.61731  1.0000
  C   C990      1.0  0.75801  0.54755  0.82444  1.0000
  S   S332      1.0  0.64272  0.50137  0.83810  1.0000
  C   C991      1.0  0.58111  0.59007  0.96559  1.0000
  C   C992      1.0  0.92558  0.56191  0.61596  1.0000
  H   H974      1.0  0.89664  0.57160  0.58839  1.0000
  H   H975      1.0  0.90888  0.54692  0.67456  1.0000
  H   H976      1.0  0.73567  0.51548  0.81777  1.0000
  N   N80       1.0  0.92883  0.55510  0.63988  1.0000
  S   S333      1.0  0.68229  0.52302  0.86078  1.0000
  S   S334      1.0  0.83422  0.50238  0.68662  1.0000
  N   N81       1.0  0.60527  0.59157  0.95143  1.0000
  H   H977      1.0  0.59332  0.57332  0.90144  1.0000
  H   H978      1.0  0.78611  0.51224  0.80719  1.0000
  N   N82       1.0  0.00554  0.55795  0.49936  1.0000
  H   H979      1.0  0.97312  0.55452  0.63613  1.0000
  S   S335      1.0  0.81844  0.51314  0.75972  1.0000
  Fe  Fe166     1.0  0.85718  0.51911  0.66442  1.0000
  H   H980      1.0  0.77096  0.52012  0.72645  1.0000
  C   C993      1.0  0.66597  0.56788  0.96382  1.0000
  H   H981      1.0  0.62846  0.59739  0.98186  1.0000
  H   H982      1.0  0.01098  0.57616  0.51766  1.0000
  H   H983      1.0  0.67117  0.56819  0.79866  1.0000
  H   H984      1.0  0.66559  0.55025  0.79755  1.0000
  C   C994      1.0  0.72098  0.55199  0.79475  1.0000
  H   H985      1.0  0.72062  0.52371  0.73702  1.0000
  C   C995      1.0  0.56068  0.58239  0.95713  1.0000
  H   H986      1.0  0.54167  0.58110  0.96854  1.0000
  S   S336      1.0  0.88680  0.49923  0.72566  1.0000
  H   H987      1.0  0.74579  0.54899  0.86454  1.0000
  C   C996      1.0  0.89925  0.56662  0.60769  1.0000
  C   C997      1.0  0.73909  0.54994  0.84480  1.0000
  C   C998      1.0  0.71130  0.55343  0.83959  1.0000
  H   H988      1.0  0.95864  0.53848  0.64710  1.0000
  H   H989      1.0  0.86175  0.55465  0.66042  1.0000
  Fe  Fe167     1.0  0.65914  0.50490  0.87634  1.0000
  H   H990      1.0  0.98702  0.56458  0.53412  1.0000
  H   H991      1.0  0.99880  0.53831  0.69496  1.0000
  H   H992      1.0  0.62851  0.58713  0.91703  1.0000
  C   C999      1.0  0.56502  0.57633  0.93393  1.0000
  H   H993      1.0  0.54285  0.53509  0.83167  1.0000
  C   C1000     1.0  0.99484  0.56898  0.51503  1.0000
  H   H994      1.0  0.97759  0.57519  0.50528  1.0000
  C   C1001     1.0  0.62627  0.59971  0.96073  1.0000
  H   H995      1.0  0.64701  0.59721  0.95172  1.0000
  H   H996      1.0  0.57766  0.59474  0.98366  1.0000
  H   H997      1.0  0.96875  0.49862  0.71537  1.0000
  H   H998      1.0  0.62046  0.61080  0.95657  1.0000
  C   C1002     1.0  0.01320  0.49971  0.71525  1.0000
  H   H999      1.0  0.90031  0.49623  0.61204  1.0000
  H   H1000     1.0  0.96548  0.55394  0.48817  1.0000
  Fe  Fe168     1.0  0.65155  0.82165  0.18981  1.0000
  S   S337      1.0  0.64261  0.81818  0.23269  1.0000
  S   S338      1.0  0.63814  0.84364  0.17546  1.0000
  Fe  Fe169     1.0  0.66644  0.79112  0.18592  1.0000
  S   S339      1.0  0.65782  0.78592  0.22799  1.0000
  S   S340      1.0  0.68062  0.77327  0.16286  1.0000
  Fe  Fe170     1.0  0.62015  0.80037  0.22270  1.0000
  S   S341      1.0  0.57844  0.79458  0.23993  1.0000
  Fe  Fe171     1.0  0.68139  0.80420  0.23367  1.0000
  S   S342      1.0  0.71029  0.80105  0.26743  1.0000
  S   S343      1.0  0.62699  0.80435  0.18004  1.0000
  S   S344      1.0  0.69228  0.80881  0.19148  1.0000
  Fe  Fe172     1.0  0.89569  0.78558  0.32148  1.0000
  S   S345      1.0  0.90347  0.80088  0.28756  1.0000
  Fe  Fe173     1.0  0.87951  0.80820  0.35683  1.0000
  S   S346      1.0  0.88520  0.82474  0.32518  1.0000
  S   S347      1.0  0.87001  0.81352  0.39778  1.0000
  Fe  Fe174     1.0  0.86340  0.81145  0.30090  1.0000
  S   S348      1.0  0.83184  0.82076  0.27227  1.0000
  Fe  Fe175     1.0  0.92452  0.81237  0.31557  1.0000
  S   S349      1.0  0.96383  0.82359  0.31353  1.0000
  S   S350      1.0  0.85453  0.79560  0.33343  1.0000
  S   S351      1.0  0.91970  0.79635  0.34844  1.0000
  Fe  Fe176     1.0  0.63449  0.91918  0.01876  1.0000
  S   S352      1.0  0.62284  0.93526  0.04601  1.0000
  H   H1001     1.0  0.53998  0.99069  0.14520  1.0000
  Fe  Fe177     1.0  0.65670  0.89866  0.06202  1.0000
  S   S353      1.0  0.64717  0.91319  0.09253  1.0000
  S   S354      1.0  0.67696  0.87745  0.07184  1.0000
  Fe  Fe178     1.0  0.60735  0.91807  0.07246  1.0000
  S   S355      1.0  0.56718  0.92003  0.09493  1.0000
  Fe  Fe179     1.0  0.66362  0.92909  0.06336  1.0000
  S   S356      1.0  0.69050  0.94578  0.07163  1.0000
  S   S357      1.0  0.61533  0.90234  0.04401  1.0000
  S   S358      1.0  0.67693  0.91420  0.03408  1.0000
  S   S359      1.0  0.85767  0.94099  0.44365  1.0000
  S   S360      1.0  0.88821  0.90467  0.41950  1.0000
  H   H1002     1.0  0.58948  0.98909  0.15617  1.0000
  S   S361      1.0  0.65256  0.97375  0.17362  1.0000
  H   H1003     1.0  0.52811  0.93352  0.01055  1.0000
  H   H1004     1.0  0.81782  0.82267  0.33152  1.0000
  S   S362      1.0  0.90064  0.97538  0.34327  1.0000
  N   N83       1.0  0.52526  0.98808  0.18443  1.0000
  C   C1003     1.0  0.86903  0.74881  0.34193  1.0000
  C   C1004     1.0  0.80023  0.97964  0.31324  1.0000
  C   C1005     1.0  0.53669  0.89537  0.04568  1.0000
  S   S363      1.0  0.85364  0.90316  0.47559  1.0000
  C   C1006     1.0  0.86947  0.95043  0.41556  1.0000
  C   C1007     1.0  0.86396  0.96468  0.41284  1.0000
  C   C1008     1.0  0.87368  0.97246  0.39079  1.0000
  C   C1009     1.0  0.88877  0.96596  0.37130  1.0000
  C   C1010     1.0  0.89427  0.95172  0.37401  1.0000
  C   C1011     1.0  0.88473  0.94397  0.39614  1.0000
  H   H1005     1.0  0.85215  0.96972  0.42783  1.0000
  H   H1006     1.0  0.86937  0.98345  0.38883  1.0000
  H   H1007     1.0  0.90589  0.94666  0.35893  1.0000
  H   H1008     1.0  0.88901  0.93300  0.39803  1.0000
  C   C1012     1.0  0.67922  0.95397  0.09936  1.0000
  C   C1013     1.0  0.69296  0.96506  0.10638  1.0000
  C   C1014     1.0  0.68454  0.97143  0.12886  1.0000
  C   C1015     1.0  0.66276  0.96649  0.14470  1.0000
  C   C1016     1.0  0.64909  0.95541  0.13765  1.0000
  C   C1017     1.0  0.65706  0.94927  0.11490  1.0000
  H   H1009     1.0  0.71025  0.96867  0.09454  1.0000
  H   H1010     1.0  0.69530  0.97992  0.13430  1.0000
  H   H1011     1.0  0.63215  0.95160  0.14976  1.0000
  H   H1012     1.0  0.64610  0.94085  0.10954  1.0000
  C   C1018     1.0  0.86908  0.83059  0.40609  1.0000
  C   C1019     1.0  0.86903  0.84174  0.38735  1.0000
  C   C1020     1.0  0.86445  0.85519  0.39466  1.0000
  C   C1021     1.0  0.86020  0.85759  0.42075  1.0000
  C   C1022     1.0  0.86169  0.84648  0.43953  1.0000
  C   C1023     1.0  0.86610  0.83305  0.43222  1.0000
  H   H1013     1.0  0.87097  0.84005  0.36718  1.0000
  H   H1014     1.0  0.86265  0.86371  0.37998  1.0000
  H   H1015     1.0  0.51909  0.90706  0.00149  1.0000
  H   H1016     1.0  0.56256  0.85467  0.19819  1.0000
  C   C1024     1.0  0.64843  0.85239  0.14580  1.0000
  C   C1025     1.0  0.63527  0.86530  0.13853  1.0000
  C   C1026     1.0  0.64344  0.87292  0.11565  1.0000
  C   C1027     1.0  0.66499  0.86771  0.09983  1.0000
  C   C1028     1.0  0.67809  0.85478  0.10700  1.0000
  C   C1029     1.0  0.66982  0.84712  0.12987  1.0000
  H   H1017     1.0  0.61870  0.86945  0.15074  1.0000
  H   H1018     1.0  0.63317  0.88285  0.11033  1.0000
  H   H1019     1.0  0.69478  0.85068  0.09486  1.0000
  H   H1020     1.0  0.68013  0.83720  0.13528  1.0000
  C   C1030     1.0  0.74369  0.80702  0.26859  1.0000
  C   C1031     1.0  0.76008  0.80227  0.28960  1.0000
  C   C1032     1.0  0.78711  0.80637  0.29098  1.0000
  C   C1033     1.0  0.79786  0.81544  0.27151  1.0000
  C   C1034     1.0  0.78142  0.82028  0.25060  1.0000
  C   C1035     1.0  0.75453  0.81599  0.24899  1.0000
  H   H1021     1.0  0.75186  0.79529  0.30478  1.0000
  H   H1022     1.0  0.79956  0.80247  0.30708  1.0000
  H   H1023     1.0  0.78959  0.82729  0.23543  1.0000
  H   H1024     1.0  0.74212  0.81970  0.23270  1.0000
  H   H1025     1.0  0.84877  0.79499  0.24281  1.0000
  S   S364      1.0  0.84544  0.87362  0.42896  1.0000
  C   C1036     1.0  0.58063  0.98613  0.19701  1.0000
  H   H1026     1.0  0.52646  0.88796  0.11023  1.0000
  H   H1027     1.0  0.52178  0.78889  0.25020  1.0000
  H   H1028     1.0  0.66499  0.94168  0.00215  1.0000
  H   H1029     1.0  0.96770  0.89720  0.47690  1.0000
  N   N84       1.0  0.54486  0.78152  0.17630  1.0000
  H   H1030     1.0  0.56668  0.92721  0.03986  1.0000
  C   C1037     1.0  0.99630  0.81449  0.30904  1.0000
  C   C1038     1.0  0.99833  0.80132  0.30064  1.0000
  H   H1031     1.0  0.74832  0.77587  0.26083  1.0000
  H   H1032     1.0  0.60048  0.84129  0.22134  1.0000
  H   H1033     1.0  0.97977  0.79648  0.29693  1.0000
  H   H1034     1.0  0.71441  0.88007  0.11260  1.0000
  Fe  Fe180     1.0  0.66577  0.99499  0.17700  1.0000
  C   C1039     1.0  0.54788  0.80164  0.22538  1.0000
  C   C1040     1.0  0.54846  0.81211  0.20538  1.0000
  H   H1035     1.0  0.79674  0.99413  0.25237  1.0000
  H   H1036     1.0  0.56802  0.81573  0.19796  1.0000
  C   C1041     1.0  0.57299  0.83126  0.24949  1.0000
  H   H1037     1.0  0.52972  0.80734  0.13048  1.0000
  H   H1038     1.0  0.63231  0.76747  0.19539  1.0000
  N   N85       1.0  0.79157  0.77726  0.25352  1.0000
  C   C1042     1.0  0.80070  0.76778  0.27272  1.0000
  H   H1039     1.0  0.55339  0.89704  0.03149  1.0000
  C   C1043     1.0  0.82754  0.76776  0.28154  1.0000
  H   H1040     1.0  0.66496  0.88706  0.15950  1.0000
  C   C1044     1.0  0.84500  0.77753  0.27059  1.0000
  H   H1041     1.0  0.54079  0.82257  0.27373  1.0000
  H   H1042     1.0  0.78719  0.76019  0.28138  1.0000
  H   H1043     1.0  0.56341  0.77054  0.20919  1.0000
  H   H1044     1.0  0.83481  0.76024  0.29677  1.0000
  C   C1045     1.0  0.83555  0.78714  0.25101  1.0000
  H   H1045     1.0  0.86581  0.77767  0.27731  1.0000
  C   C1046     1.0  0.55997  0.98489  0.21640  1.0000
  C   C1047     1.0  0.55782  0.84783  0.21509  1.0000
  H   H1046     1.0  0.58935  0.82505  0.25942  1.0000
  N   N86       1.0  0.94124  0.84198  0.38260  1.0000
  C   C1048     1.0  0.93228  0.84702  0.40542  1.0000
  C   C1049     1.0  0.95023  0.85061  0.36236  1.0000
  C   C1050     1.0  0.93219  0.86103  0.40840  1.0000
  C   C1051     1.0  0.95058  0.86467  0.36475  1.0000
  C   C1052     1.0  0.94149  0.86989  0.38796  1.0000
  C   C1053     1.0  0.94069  0.82735  0.37931  1.0000
  H   H1047     1.0  0.92458  0.84026  0.42132  1.0000
  H   H1048     1.0  0.95708  0.84661  0.34418  1.0000
  H   H1049     1.0  0.92456  0.86501  0.42633  1.0000
  H   H1050     1.0  0.95772  0.87148  0.34867  1.0000
  H   H1051     1.0  0.94150  0.88080  0.39011  1.0000
  H   H1052     1.0  0.96141  0.82310  0.37276  1.0000
  H   H1053     1.0  0.93420  0.82132  0.39737  1.0000
  H   H1054     1.0  0.92576  0.82589  0.36446  1.0000
  H   H1055     1.0  0.67958  0.95637  0.01327  1.0000
  N   N87       1.0  0.69933  0.89499  0.13817  1.0000
  C   C1054     1.0  0.69658  0.90859  0.14232  1.0000
  C   C1055     1.0  0.54896  0.79184  0.15737  1.0000
  C   C1056     1.0  0.70707  0.91842  0.12408  1.0000
  C   C1057     1.0  0.96575  0.93623  0.46906  1.0000
  H   H1056     1.0  0.75292  0.97387  0.28918  1.0000
  H   H1057     1.0  0.98304  0.93124  0.45878  1.0000
  H   H1058     1.0  0.72763  0.92184  0.08677  1.0000
  H   H1059     1.0  0.56540  0.98342  0.23649  1.0000
  H   H1060     1.0  0.79637  0.86725  0.38729  1.0000
  C   C1058     1.0  0.56869  0.77411  0.18880  1.0000
  H   H1061     1.0  0.60226  0.98549  0.20186  1.0000
  C   C1059     1.0  0.84559  0.98512  0.29652  1.0000
  H   H1062     1.0  0.73208  0.89703  0.07939  1.0000
  N   N88       1.0  0.80500  0.83791  0.35736  1.0000
  C   C1060     1.0  0.79850  0.84692  0.40656  1.0000
  H   H1063     1.0  0.80122  0.85903  0.34348  1.0000
  C   C1061     1.0  0.68773  0.88496  0.15745  1.0000
  H   H1064     1.0  0.56969  0.79480  0.15208  1.0000
  H   H1065     1.0  0.60821  0.74621  0.20603  1.0000
  C   C1062     1.0  0.80508  0.82858  0.37854  1.0000
  H   H1066     1.0  0.86593  0.82450  0.44685  1.0000
  S   S365      1.0  0.96765  0.90026  0.42130  1.0000
  Fe  Fe181     1.0  0.87457  0.91900  0.44942  1.0000
  H   H1067     1.0  0.80313  0.82553  0.42016  1.0000
  H   H1068     1.0  0.83760  0.97574  0.33484  1.0000
  H   H1069     1.0  0.80848  0.81770  0.37638  1.0000
  H   H1070     1.0  0.79720  0.85050  0.42576  1.0000
  N   N89       1.0  0.52453  0.83727  0.24455  1.0000
  C   C1063     1.0  0.71241  0.89082  0.11610  1.0000
  C   C1064     1.0  0.76356  0.77682  0.24428  1.0000
  C   C1065     1.0  0.80791  0.83323  0.33135  1.0000
  C   C1066     1.0  0.52174  0.89020  0.09006  1.0000
  H   H1071     1.0  0.78714  0.97558  0.32910  1.0000
  S   S366      1.0  0.90646  0.76387  0.31146  1.0000
  C   C1067     1.0  0.66391  0.75802  0.17128  1.0000
  H   H1072     1.0  0.82123  0.83986  0.31847  1.0000
  H   H1073     1.0  0.95303  0.74861  0.34032  1.0000
  C   C1068     1.0  0.75916  0.98456  0.28741  1.0000
  H   H1074     1.0  0.69152  0.87429  0.15186  1.0000
  C   C1069     1.0  0.82866  0.97970  0.31664  1.0000
  H   H1075     1.0  0.69707  0.88542  0.17641  1.0000
  C   C1070     1.0  0.99361  0.90171  0.44295  1.0000
  C   C1071     1.0  0.54540  0.82989  0.25752  1.0000
  C   C1072     1.0  0.51874  0.77769  0.18282  1.0000
  H   H1076     1.0  0.85765  0.84819  0.45964  1.0000
  Fe  Fe182     1.0  0.92632  0.90025  0.44217  1.0000
  H   H1077     1.0  0.90608  0.95509  0.45815  1.0000
  C   C1073     1.0  0.80184  0.83294  0.40342  1.0000
  C   C1074     1.0  0.52235  0.79702  0.23475  1.0000
  C   C1075     1.0  0.52389  0.93173  0.03111  1.0000
  C   C1076     1.0  0.53222  0.98582  0.20972  1.0000
  H   H1078     1.0  0.56439  0.89113  0.07725  1.0000
  H   H1079     1.0  0.86353  0.75791  0.35181  1.0000
  S   S367      1.0  0.91042  0.88287  0.46807  1.0000
  C   C1077     1.0  0.54574  0.92820  0.04771  1.0000
  C   C1078     1.0  0.80128  0.85164  0.36025  1.0000
  N   N90       1.0  0.78905  0.98472  0.29034  1.0000
  C   C1079     1.0  0.52359  0.81838  0.19576  1.0000
  S   S368      1.0  0.91431  0.91591  0.46967  1.0000
  H   H1080     1.0  0.80146  0.79440  0.22745  1.0000
  C   C1080     1.0  0.54307  0.89194  0.07150  1.0000
  C   C1081     1.0  0.79813  0.85635  0.38488  1.0000
  H   H1081     1.0  0.76255  0.76805  0.23241  1.0000
  C   C1082     1.0  0.57919  0.84028  0.22811  1.0000
  C   C1083     1.0  0.00934  0.90014  0.48674  1.0000
  C   C1084     1.0  0.54034  0.92563  0.07427  1.0000
  H   H1082     1.0  0.68590  0.91193  0.15964  1.0000
  H   H1083     1.0  0.78733  0.83332  0.32278  1.0000
  C   C1085     1.0  0.64026  0.75808  0.18758  1.0000
  Fe  Fe183     1.0  0.87096  0.88831  0.44720  1.0000
  H   H1084     1.0  0.70456  0.92923  0.12720  1.0000
  H   H1085     1.0  0.75687  0.78638  0.23240  1.0000
  C   C1086     1.0  0.80869  0.78678  0.24250  1.0000
  C   C1087     1.0  0.62660  0.74603  0.19353  1.0000
  C   C1088     1.0  0.72269  0.90039  0.09726  1.0000
  C   C1089     1.0  0.88843  0.74925  0.32123  1.0000
  H   H1086     1.0  0.57613  0.76520  0.17804  1.0000
  C   C1090     1.0  0.72006  0.91427  0.10135  1.0000
  H   H1087     1.0  0.58594  0.78088  0.18962  1.0000
  C   C1091     1.0  0.80558  0.98990  0.27041  1.0000
  H   H1088     1.0  0.93395  0.95400  0.41922  1.0000
  C   C1092     1.0  0.98811  0.89961  0.46955  1.0000
  H   H1089     1.0  0.84686  0.99492  0.25780  1.0000
  C   C1093     1.0  0.92281  0.94952  0.46869  1.0000
  H   H1090     1.0  0.93841  0.93556  0.42072  1.0000
  H   H1091     1.0  0.66992  0.99113  0.08241  1.0000
  C   C1094     1.0  0.94656  0.94485  0.42747  1.0000
  C   C1095     1.0  0.57339  0.98820  0.17127  1.0000
  C   C1096     1.0  0.67933  0.94987  0.99689  1.0000
  C   C1097     1.0  0.52648  0.79894  0.14503  1.0000
  H   H1092     1.0  0.96809  0.94566  0.41970  1.0000
  N   N91       1.0  0.94540  0.94388  0.45577  1.0000
  H   H1093     1.0  0.86759  0.98543  0.29909  1.0000
  C   C1098     1.0  0.54543  0.98910  0.16526  1.0000
  H   H1094     1.0  0.75256  0.98950  0.26834  1.0000
  H   H1095     1.0  0.74774  0.99037  0.30237  1.0000
  C   C1099     1.0  0.53042  0.84627  0.22374  1.0000
  C   C1100     1.0  0.83402  0.99030  0.27328  1.0000
  H   H1096     1.0  0.52415  0.82683  0.18094  1.0000
  H   H1097     1.0  0.70023  0.94467  0.99414  1.0000
  Fe  Fe184     1.0  0.63964  0.95633  0.80922  1.0000
  S   S369      1.0  0.64143  0.96483  0.84741  1.0000
  S   S370      1.0  0.60087  0.94632  0.79991  1.0000
  Fe  Fe185     1.0  0.69915  0.96426  0.79158  1.0000
  S   S371      1.0  0.70445  0.97363  0.82895  1.0000
  S   S372      1.0  0.72835  0.96640  0.75536  1.0000
  Fe  Fe186     1.0  0.68460  0.95510  0.84820  1.0000
  S   S373      1.0  0.70160  0.94347  0.88438  1.0000
  C   C1101     1.0  0.61387  0.91439  0.89277  1.0000
  S   S374      1.0  0.68191  0.94506  0.81120  1.0000
  S   S375      1.0  0.65621  0.97458  0.78644  1.0000
  Fe  Fe187     1.0  0.94178  0.95471  0.66441  1.0000
  S   S376      1.0  0.92883  0.96923  0.63067  1.0000
  S   S377      1.0  0.98678  0.94614  0.66104  1.0000
  Fe  Fe188     1.0  0.88197  0.95567  0.68881  1.0000
  S   S378      1.0  0.86566  0.97024  0.65663  1.0000
  S   S379      1.0  0.85444  0.94850  0.72359  1.0000
  Fe  Fe189     1.0  0.89168  0.95702  0.63032  1.0000
  S   S380      1.0  0.87344  0.95278  0.59280  1.0000
  Fe  Fe190     1.0  0.90433  0.98090  0.65996  1.0000
  S   S381      1.0  0.90567  0.94153  0.66225  1.0000
  S   S382      1.0  0.91957  0.96729  0.69406  1.0000
  H   H1098     1.0  0.68312  0.90621  0.89389  1.0000
  H   H1099     1.0  0.85782  0.89795  0.58863  1.0000
  C   C1102     1.0  0.56265  0.96569  0.81908  1.0000
  C   C1103     1.0  0.53571  0.97191  0.82200  1.0000
  C   C1104     1.0  0.67239  0.92671  0.95342  1.0000
  H   H1100     1.0  0.54729  0.93837  0.78819  1.0000
  H   H1101     1.0  0.86290  0.91626  0.65998  1.0000
  H   H1102     1.0  0.97954  0.92767  0.50641  1.0000
  S   S383      1.0  0.90301  0.89871  0.53664  1.0000
  C   C1105     1.0  0.63386  0.97021  0.94911  1.0000
  C   C1106     1.0  0.88493  0.93844  0.57607  1.0000
  C   C1107     1.0  0.90313  0.92801  0.58692  1.0000
  C   C1108     1.0  0.90934  0.91602  0.57425  1.0000
  C   C1109     1.0  0.89764  0.91446  0.55058  1.0000
  C   C1110     1.0  0.88043  0.92515  0.53921  1.0000
  C   C1111     1.0  0.87398  0.93706  0.55200  1.0000
  H   H1103     1.0  0.91174  0.92899  0.60543  1.0000
  H   H1104     1.0  0.92276  0.90780  0.58308  1.0000
  H   H1105     1.0  0.87129  0.92406  0.52097  1.0000
  H   H1106     1.0  0.85984  0.94507  0.54350  1.0000
  C   C1112     1.0  0.76325  0.96088  0.74690  1.0000
  C   C1113     1.0  0.77369  0.96429  0.72161  1.0000
  C   C1114     1.0  0.80139  0.96059  0.71408  1.0000
  C   C1115     1.0  0.81907  0.95326  0.73173  1.0000
  C   C1116     1.0  0.80857  0.94968  0.75691  1.0000
  C   C1117     1.0  0.78095  0.95353  0.76452  1.0000
  H   H1107     1.0  0.76023  0.96993  0.70775  1.0000
  H   H1108     1.0  0.80900  0.96343  0.69465  1.0000
  H   H1109     1.0  0.82191  0.94394  0.77074  1.0000
  H   H1110     1.0  0.77334  0.95076  0.78399  1.0000
  C   C1118     1.0  0.67909  0.93843  0.91045  1.0000
  C   C1119     1.0  0.65062  0.94170  0.90965  1.0000
  C   C1120     1.0  0.63312  0.93747  0.93055  1.0000
  N   N92       1.0  0.61258  0.92139  0.86884  1.0000
  H   H1111     1.0  0.81406  0.93657  0.60021  1.0000
  C   C1121     1.0  0.68992  0.93091  0.93241  1.0000
  H   H1112     1.0  0.64199  0.94738  0.89289  1.0000
  H   H1113     1.0  0.61109  0.94000  0.92971  1.0000
  H   H1114     1.0  0.84238  0.93833  0.66509  1.0000
  H   H1115     1.0  0.71193  0.92827  0.93309  1.0000
  C   C1122     1.0  0.94083  0.93982  0.50934  1.0000
  C   C1123     1.0  0.56706  0.95370  0.80647  1.0000
  H   H1116     1.0  0.69566  0.97216  0.91622  1.0000
  C   C1124     1.0  0.99701  0.98542  0.62571  1.0000
  H   H1117     1.0  0.58004  0.97042  0.82591  1.0000
  N   N93       1.0  0.84317  0.98526  0.73743  1.0000
  C   C1125     1.0  0.64392  0.92998  0.95248  1.0000
  C   C1126     1.0  0.51717  0.95390  0.80084  1.0000
  C   C1127     1.0  0.81564  0.98690  0.74421  1.0000
  C   C1128     1.0  0.82929  0.93861  0.64801  1.0000
  C   C1129     1.0  0.68080  0.96968  0.93185  1.0000
  H   H1118     1.0  0.67829  0.99132  0.87199  1.0000
  H   H1119     1.0  0.68044  0.91898  0.85062  1.0000
  H   H1120     1.0  0.93856  0.93789  0.53019  1.0000
  H   H1121     1.0  0.99726  0.96440  0.70045  1.0000
  N   N94       1.0  0.67039  0.95814  0.97347  1.0000
  H   H1122     1.0  0.87966  0.97221  0.74438  1.0000
  C   C1130     1.0  0.68927  0.96184  0.95427  1.0000
  C   C1131     1.0  0.54024  0.98930  0.76726  1.0000
  C   C1132     1.0  0.63916  0.90861  0.90196  1.0000
  C   C1133     1.0  0.58622  0.92780  0.85954  1.0000
  H   H1123     1.0  0.87613  0.89728  0.63264  1.0000
  C   C1134     1.0  0.83388  0.91710  0.59202  1.0000
  Fe  Fe191     1.0  0.66060  0.98243  0.82505  1.0000
  H   H1124     1.0  0.80747  0.93798  0.65508  1.0000
  H   H1125     1.0  0.80757  0.98194  0.76217  1.0000
  H   H1126     1.0  0.98835  0.97904  0.61259  1.0000
  C   C1135     1.0  0.86196  0.90572  0.62567  1.0000
  H   H1127     1.0  0.60065  0.97112  0.76184  1.0000
  H   H1128     1.0  0.63503  0.92858  0.83482  1.0000
  H   H1129     1.0  0.82645  0.91765  0.57256  1.0000
  H   H1130     1.0  0.68085  0.92078  0.97014  1.0000
  C   C1136     1.0  0.63605  0.92290  0.85366  1.0000
  H   H1131     1.0  0.61207  0.97324  0.94714  1.0000
  H   H1132     1.0  0.83151  0.94866  0.63672  1.0000
  C   C1137     1.0  0.58432  0.99453  0.78007  1.0000
  C   C1138     1.0  0.82702  0.92777  0.60772  1.0000
  H   H1133     1.0  0.71093  0.95842  0.95581  1.0000
  C   C1139     1.0  0.66171  0.91736  0.86234  1.0000
  H   H1134     1.0  0.58660  0.93914  0.85839  1.0000
  H   H1135     1.0  0.58639  0.97963  0.73260  1.0000
  C   C1140     1.0  0.85151  0.90603  0.60106  1.0000
  N   N95       1.0  0.83739  0.92741  0.63181  1.0000
  C   C1141     1.0  0.85455  0.91653  0.64094  1.0000
  H   H1136     1.0  0.60659  0.99261  0.77988  1.0000
  C   C1142     1.0  0.54414  0.94767  0.79791  1.0000
  H   H1137     1.0  0.59545  0.91348  0.90519  1.0000
  H   H1138     1.0  0.56835  0.92474  0.87225  1.0000
  H   H1139     1.0  0.64025  0.90343  0.92126  1.0000
  H   H1140     1.0  0.87040  0.98419  0.76841  1.0000
  S   S384      1.0  0.62091  0.92469  0.97784  1.0000
  H   H1141     1.0  0.64607  0.97981  0.91184  1.0000
  H   H1142     1.0  0.56762  0.96708  0.75264  1.0000
  C   C1143     1.0  0.96381  0.93411  0.49602  1.0000
  H   H1143     1.0  0.58271  0.92483  0.83988  1.0000
  C   C1144     1.0  0.65291  0.97389  0.92931  1.0000
  C   C1145     1.0  0.66322  0.91017  0.88663  1.0000
  H   H1144     1.0  0.53264  0.98144  0.83097  1.0000
  H   H1145     1.0  0.00521  0.89810  0.50728  1.0000
  H   H1146     1.0  0.62800  0.95910  0.98623  1.0000
  H   H1147     1.0  0.52741  0.98295  0.75749  1.0000
  C   C1146     1.0  0.58138  0.97564  0.75276  1.0000
  H   H1148     1.0  0.85168  0.96902  0.76669  1.0000
  C   C1147     1.0  0.64301  0.96227  0.97119  1.0000
  C   C1148     1.0  0.86219  0.97736  0.75518  1.0000
  Fe  Fe192     1.0  0.89478  0.89923  0.49405  1.0000
  N   N96       1.0  0.56832  0.98666  0.76727  1.0000
  H   H1149     1.0  0.77531  0.99544  0.73282  1.0000
  C   C1149     1.0  0.97994  0.99492  0.63858  1.0000
  H   H1150     1.0  0.90188  0.95175  0.50573  1.0000
  H   H1151     1.0  0.90173  0.99463  0.61054  1.0000
  H   H1152     1.0  0.87513  0.99043  0.70952  1.0000
  C   C1150     1.0  0.85324  0.99147  0.71472  1.0000
  C   C1151     1.0  0.79726  0.99456  0.72766  1.0000
  C   C1152     1.0  0.92023  0.94762  0.49564  1.0000
