data_image0
_chemical_formula_structural       FeS3HSHCSCFeS2FeS2FeSFeCS2FeCHC2HCH3SHC4HCHC6H4C5H2FeHCH2NHC2HC3HSH4C2NCH2CHCH2C3H2FeH2NCSCHCHCHCHSHCH2FeS2FeHFeS3FeS2FeCFeNS3C7H2CHC4HC6H5CHC2SNC2HCSHCH2NH2CHCSH3FeC2H2CSCHC2H5CH2CHSFeS2FeSFeNSHNH2SH2S3FeS2C2HSNH2FeS2FeHFe2SCH2S2H5C6H3SC4HNCHFeHC2H2C6H5SH2CHSCFeC3H2C6H2C3HC2H4C6HFeC2H3SHCH2NC7H2CH4NC6H7NCHSH4C3SCH3CH3CHCHCHSCFeSC3HC2SCH2C2SCHCH3NHC2HC4SH2SH3CH2CH2SC2HCHC4H3CHCSCH2CHFeHSCSC2FeCS2CFeHC2HFeS2NHSFeSFe2S2Fe2S2FeSFeS3FeS3FeS2C2H4C3HC2H2C7H5C7H5C6HCHC6H3CSHSHCH3CSH3C2H2FeH2C6H4S3C3H2C2H3CHSCHCSNC6H8CFeCH2CSHSC3HSH2FeC2SH2CSNC4HCH2CH3CH2CHCH3SNCHCFeC2HNH6NC6H3FeH2S2FeC2H2SCNCNCH3CHCH4CHNC2HCH5C3FeH4C6H3FeSH2CHSHS2CHSH4CH4C6H3C7HSCHC2H3NHNH4SCHCH2C2SCFe3C3HC3NH3CSHCH3SFeSHS2CHSC3HSC2HNH2C6H4CNHCFeC2H2CH2CHC2HCH2CH3C2SCH4CNFeH3C2S2HC2H2S2CFe2S2FeSCFeS2C2FeS2CHSC2SHC2FeS2FeSFeS3CHSFeHFeS2Fe2S2FeS2FeSFeS3HC3HC7H4C6H3C2SH2C4H2C3HC7H4CFeC4HNHSCSH2NSCSC3HCH2CH2C6H4NCHSHCH3C3HC3H2FeH2CH2SHNH2Fe2CFeNH2CFeNH2CHSCH3SCHC3SC2H2C2NC6H8CH3CH2CSHSCHSHNC6H3CH5CHC2H2NHC2HCH2CH2SCHCHNHC4HC4H6C2HNHCHSFeHCHC2HCFeHCHFeC2S2HS2HFeS2CHFeCHNH2SHCSCFeS2FeS2Fe2S3FeSC2H2FeH2SH3CH3CHCNSH2CS2CNCSHC4H3FeH3FeHSHC7FeHFeC6SH3C6HFeH2C6H4C6H4C2SCH4SC6H4C7H3SCH4C2HC3SCFeNC6H8NCHC3H5C2HC2FeNCSH3CSFeHCH3SHCHCHFeC3H2NC6H7SH2CH2FeH2CH6CSHNH4CFeH2SH3CSFe2S2FeS2FeSFeSFeSH2C4NH5CFeHCHCSC6H4C4SCH3C4H2CH2C2SC4HCH2CHC2H3C2H2NH2SCNHCHC2H3SC3SCSFeS2FeSFeS3FeS2FeHFeC2SCHSC4H2SCH2C10H4CH3C2FeH3CHCNH2CH5NCH2CHC3H3CSC2H2C2HFeCH2CHFeSHFeSC2SHCH2CH2S2HFeS2HSHSHC2FeS2FeSFe2SH3SC2HN2HC6H5SCH3CHCH4NC6H4CSH2C2H4C5SC4SHC2H2NC3H2C6HFeCNC4HSH5C3HCHCHCNC5SH5C2FeSHCSCHCSH2S2HC3HFeH3CHCHSHCHNHC4HC2HCH2FeCH4NCHCSH7CHC2H3FeHFeCSHCHFeHS3FeHFeS3C2H4C2SH2Fe2SFe2S2Fe2S2FeSFeS3FeS3FeS2C2H2FeC4HC2H2C6H5SH2C8H2C6SH2SC5FeH2CHFeSH3C2HCH2C5NH2C6H4S3CFeCHC3SH2CSCHCH2CSNC6H8CH3C2HCHC3H5NHCFeCS2C3H2CN2C2SCS2H2CH2NHCH2SH3CHCH5C4HSCNHCHCHC2H5C3NCSH3C2HNCHCHFeSC2HC2NH3C3H2C2H2CFeHCSH3CHFeSHSFeS2HS2HCSHFeHNH3SC7H4C6H2CHFeHFeHCNHCH2SCHCH5C2HSHCH4FeSHCH2FeSHS2C2NC11H5CS2HC3H4C3SH2CSHCH4CH2C2HFeHCNSNC2H3CH2FeS2FeSFeS3CSCS2H2SFeS2FeCFeS3FeS2FeHFeS2Fe2S2FeS2FeSFeCS2HCSHFeC7H4C6H4FeHC6H2C3H2C6H4C7HCHC4FeH3CSN2HFeCHC8H4CNCHNCH3CH3SHNC6H8CHC2HNH2CHC2FeH2CH2CNC6H8NHC2HFeC2HC2SHCH3SNH2SC2NH4SH6SH4FeSHCHC3NHFeH2CSC2HCH2C2HCHC3HCH2CH2C2SHCHC4S2H2SCSHC5H3CHFeS2CFeSCFeS2CHFeCSHSCS2FeSNFeS2FeS2Fe2S3FeSCHNH5SHSCHSFeHC2S2H2FeSCHCH2CH4CFeS2HNFeSC2FeC6H4C6HCH2C6H4C6H4C6H4CH2CH2C2H2CHC3H3C8HCHCHCHCSCSCHC2HNFeSNCH2CH2SC4HC2H2CNC6H8CHSCHCHCH2SCH2C2HCSC5H3C2HCFeH2CNC3H2C3HC2H8NH3CHCNH7CHCHCH3SCH
_chemical_formula_sum              "Fe192 S384 H1152 C1152 N96"
_cell_length_a       46.6541
_cell_length_b       47.9695
_cell_length_c       45.0274
_cell_angle_alpha    85.9189
_cell_angle_beta     87.8142
_cell_angle_gamma    86.3928

_space_group_name_H-M_alt    "P 1"
_space_group_IT_number       1

loop_
  _space_group_symop_operation_xyz
  'x, y, z'

loop_
  _atom_site_type_symbol
  _atom_site_label
  _atom_site_symmetry_multiplicity
  _atom_site_fract_x
  _atom_site_fract_y
  _atom_site_fract_z
  _atom_site_occupancy
  Fe  Fe1       1.0  0.22663  0.45704  0.45327  1.0000
  S   S1        1.0  0.04073  0.32260  0.17717  1.0000
  S   S2        1.0  0.18007  0.44737  0.46527  1.0000
  S   S3        1.0  0.21863  0.45652  0.00829  1.0000
  H   H1        1.0  0.09965  0.33529  0.24864  1.0000
  S   S4        1.0  0.21484  0.01923  0.00223  1.0000
  H   H2        1.0  0.03396  0.40734  0.27607  1.0000
  C   C1        1.0  0.01896  0.24646  0.47191  1.0000
  S   S5        1.0  0.02632  0.34509  0.44277  1.0000
  C   C2        1.0  0.04960  0.23875  0.08640  1.0000
  Fe  Fe2       1.0  0.05472  0.35779  0.40294  1.0000
  S   S6        1.0  0.10161  0.36920  0.39737  1.0000
  S   S7        1.0  0.04617  0.31998  0.37810  1.0000
  Fe  Fe3       1.0  0.07456  0.38020  0.08396  1.0000
  S   S8        1.0  0.07677  0.33459  0.09954  1.0000
  S   S9        1.0  0.11348  0.40713  0.08756  1.0000
  Fe  Fe4       1.0  0.04584  0.32831  0.06349  1.0000
  S   S10       1.0  0.06085  0.29137  0.03499  1.0000
  Fe  Fe5       1.0  0.03803  0.34379  0.12954  1.0000
  C   C3        1.0  0.09623  0.25536  0.09821  1.0000
  S   S11       1.0  0.04567  0.37402  0.04621  1.0000
  S   S12       1.0  0.03733  0.38967  0.11595  1.0000
  Fe  Fe6       1.0  0.01550  0.30904  0.41678  1.0000
  C   C4        1.0  0.15140  0.39457  0.40683  1.0000
  H   H3        1.0  0.06661  0.37755  0.24815  1.0000
  C   C5        1.0  0.04841  0.26336  0.01549  1.0000
  C   C6        1.0  0.01098  0.34714  0.27198  1.0000
  H   H4        1.0  0.09991  0.27370  0.08229  1.0000
  C   C7        1.0  0.01927  0.25829  0.01412  1.0000
  H   H5        1.0  0.03596  0.40757  0.31533  1.0000
  H   H6        1.0  0.06799  0.44390  0.12434  1.0000
  H   H7        1.0  0.03451  0.30906  0.28693  1.0000
  S   S13       1.0  0.01960  0.38484  0.38067  1.0000
  H   H8        1.0  0.06426  0.28003  0.14041  1.0000
  C   C8        1.0  0.02898  0.33287  0.21335  1.0000
  C   C9        1.0  0.02815  0.32264  0.26779  1.0000
  C   C10       1.0  0.06877  0.24489  0.00185  1.0000
  C   C11       1.0  0.03693  0.31553  0.23870  1.0000
  H   H9        1.0  0.09139  0.24843  0.00277  1.0000
  C   C12       1.0  0.09484  0.34563  0.26908  1.0000
  H   H10       1.0  0.01175  0.27944  0.14915  1.0000
  C   C13       1.0  0.19020  0.44190  0.03085  1.0000
  C   C14       1.0  0.16934  0.42739  0.01742  1.0000
  C   C15       1.0  0.14593  0.41629  0.03430  1.0000
  C   C16       1.0  0.14310  0.41950  0.06497  1.0000
  C   C17       1.0  0.16424  0.43367  0.07839  1.0000
  C   C18       1.0  0.18766  0.44463  0.06152  1.0000
  H   H11       1.0  0.04993  0.29637  0.23583  1.0000
  H   H12       1.0  0.13002  0.40541  0.02354  1.0000
  H   H13       1.0  0.16248  0.43624  0.10208  1.0000
  H   H14       1.0  0.10582  0.23625  0.08822  1.0000
  C   C19       1.0  0.12271  0.39131  0.41663  1.0000
  C   C20       1.0  0.11189  0.40553  0.44114  1.0000
  C   C21       1.0  0.12971  0.42262  0.45571  1.0000
  C   C22       1.0  0.15845  0.42577  0.44596  1.0000
  C   C23       1.0  0.00602  0.25286  0.11335  1.0000
  H   H15       1.0  0.20375  0.45532  0.07217  1.0000
  H   H16       1.0  0.08992  0.40323  0.44899  1.0000
  Fe  Fe7       1.0  0.00975  0.34660  0.35743  1.0000
  H   H17       1.0  0.16355  0.05382  0.01310  1.0000
  C   C24       1.0  0.10439  0.01415  0.99142  1.0000
  H   H18       1.0  0.16004  0.38364  0.38797  1.0000
  H   H19       1.0  0.06174  0.42626  0.29163  1.0000
  N   N1        1.0  0.06895  0.38209  0.29482  1.0000
  H   H20       1.0  0.06572  0.18284  0.46807  1.0000
  C   C25       1.0  0.08091  0.37196  0.32099  1.0000
  C   C26       1.0  0.16917  0.41169  0.42134  1.0000
  H   H21       1.0  0.10885  0.34001  0.34293  1.0000
  C   C27       1.0  0.01199  0.35746  0.21757  1.0000
  C   C28       1.0  0.09978  0.34811  0.32194  1.0000
  C   C29       1.0  0.07611  0.36959  0.26894  1.0000
  H   H22       1.0  0.17108  0.42496  0.99370  1.0000
  S   S14       1.0  0.00889  0.26434  0.43729  1.0000
  H   H23       1.0  0.10767  0.25789  0.11896  1.0000
  H   H24       1.0  0.19121  0.41383  0.41361  1.0000
  H   H25       1.0  0.03427  0.03734  0.98567  1.0000
  H   H26       1.0  0.07136  0.02592  0.02375  1.0000
  C   C30       1.0  0.10661  0.33477  0.29583  1.0000
  C   C31       1.0  0.00953  0.21940  0.47928  1.0000
  N   N2        1.0  0.06529  0.25345  0.10429  1.0000
  C   C32       1.0  0.07670  0.02355  0.00038  1.0000
  H   H27       1.0  0.00741  0.22716  0.07579  1.0000
  H   H28       1.0  0.24055  0.40100  0.03491  1.0000
  C   C33       1.0  0.06720  0.46099  0.10635  1.0000
  H   H29       1.0  0.07571  0.38219  0.34140  1.0000
  C   C34       1.0  0.04934  0.40721  0.29435  1.0000
  H   H30       1.0  0.06200  0.13117  0.46910  1.0000
  H   H31       1.0  0.12091  0.31603  0.29639  1.0000
  C   C35       1.0  0.01575  0.46864  0.09781  1.0000
  C   C36       1.0  0.05196  0.26788  0.12659  1.0000
  C   C37       1.0  0.02220  0.26765  0.13161  1.0000
  H   H32       1.0  0.08619  0.47359  0.10801  1.0000
  H   H33       1.0  0.06001  0.22806  0.06808  1.0000
  Fe  Fe8       1.0  0.00828  0.38043  0.07920  1.0000
  H   H34       1.0  0.00545  0.37096  0.19843  1.0000
  H   H35       1.0  0.01646  0.44886  0.08743  1.0000
  N   N3        1.0  0.04013  0.47804  0.10861  1.0000
  C   C38       1.0  0.06026  0.22181  0.98710  1.0000
  S   S15       1.0  0.00690  0.33442  0.09459  1.0000
  C   C39       1.0  0.03112  0.21676  0.98571  1.0000
  H   H36       1.0  0.12090  0.00936  0.00769  1.0000
  C   C40       1.0  0.01977  0.23826  0.09060  1.0000
  H   H37       1.0  0.06945  0.45150  0.08452  1.0000
  C   C41       1.0  0.01075  0.23524  0.99932  1.0000
  H   H38       1.0  0.12120  0.43337  0.47476  1.0000
  C   C42       1.0  0.16608  0.05280  0.98921  1.0000
  H   H39       1.0  0.12711  0.07860  0.98004  1.0000
  S   S16       1.0  0.25335  0.44819  0.41199  1.0000
  H   H40       1.0  0.25412  0.42697  0.05680  1.0000
  C   C43       1.0  0.10206  0.13500  0.52996  1.0000
  H   H41       1.0  0.21143  0.02488  0.93684  1.0000
  H   H42       1.0  0.09229  0.99590  0.90176  1.0000
  Fe  Fe9       1.0  0.06646  0.09606  0.58700  1.0000
  S   S17       1.0  0.07643  0.13510  0.60818  1.0000
  S   S18       1.0  0.09837  0.06484  0.56495  1.0000
  Fe  Fe10      1.0  0.03716  0.15498  0.58486  1.0000
  H   H43       1.0  0.04766  0.05766  0.69477  1.0000
  Fe  Fe11      1.0  0.04603  0.12164  0.64620  1.0000
  S   S19       1.0  0.05929  0.11514  0.69528  1.0000
  S   S20       1.0  0.02859  0.11630  0.56170  1.0000
  S   S21       1.0  0.03859  0.08121  0.62598  1.0000
  Fe  Fe12      1.0  0.07725  0.10368  0.91951  1.0000
  S   S22       1.0  0.06674  0.14832  0.90127  1.0000
  S   S23       1.0  0.12222  0.08170  0.91473  1.0000
  Fe  Fe13      1.0  0.03412  0.15049  0.93967  1.0000
  C   C44       1.0  0.07454  0.21398  0.86237  1.0000
  Fe  Fe14      1.0  0.03257  0.13022  0.87540  1.0000
  N   N4        1.0  0.09075  0.01900  0.94029  1.0000
  S   S24       1.0  0.04682  0.10683  0.95947  1.0000
  S   S25       1.0  0.04473  0.08589  0.89143  1.0000
  S   S26       1.0  0.04181  0.19936  0.56236  1.0000
  C   C45       1.0  0.19310  0.03647  0.94638  1.0000
  C   C46       1.0  0.01600  0.20475  0.50683  1.0000
  C   C47       1.0  0.04841  0.12509  0.73180  1.0000
  C   C48       1.0  0.06197  0.11120  0.75663  1.0000
  C   C49       1.0  0.05348  0.11732  0.78608  1.0000
  C   C50       1.0  0.03138  0.13769  0.79123  1.0000
  C   C51       1.0  0.01798  0.15178  0.76639  1.0000
  H   H44       1.0  0.10274  0.18479  0.56871  1.0000
  H   H45       1.0  0.13322  0.16008  0.56513  1.0000
  C   C52       1.0  0.06335  0.02749  0.94895  1.0000
  H   H46       1.0  0.05413  0.25371  0.53579  1.0000
  C   C53       1.0  0.04159  0.24400  0.52009  1.0000
  C   C54       1.0  0.03212  0.21696  0.52749  1.0000
  C   C55       1.0  0.04276  0.22719  0.90324  1.0000
  C   C56       1.0  0.02784  0.04647  0.70070  1.0000
  H   H47       1.0  0.06416  0.10633  0.80479  1.0000
  C   C57       1.0  0.19780  0.05576  0.55915  1.0000
  C   C58       1.0  0.18123  0.03507  0.54942  1.0000
  C   C59       1.0  0.15092  0.03804  0.55179  1.0000
  C   C60       1.0  0.13673  0.06136  0.56448  1.0000
  C   C61       1.0  0.15334  0.08160  0.57511  1.0000
  C   C62       1.0  0.18362  0.07900  0.57202  1.0000
  H   H48       1.0  0.19173  0.01723  0.53922  1.0000
  H   H49       1.0  0.13835  0.02226  0.54347  1.0000
  H   H50       1.0  0.14293  0.09938  0.58546  1.0000
  H   H51       1.0  0.19617  0.09509  0.57972  1.0000
  H   H52       1.0  0.17508  0.04967  0.90379  1.0000
  C   C63       1.0  0.05595  0.03007  0.97906  1.0000
  H   H53       1.0  0.09220  0.20298  0.50711  1.0000
  C   C64       1.0  0.14836  0.06580  0.93957  1.0000
  C   C65       1.0  0.17242  0.05059  0.92768  1.0000
  S   S27       1.0  0.01948  0.14634  0.82792  1.0000
  N   N5        1.0  0.01981  0.21857  0.88900  1.0000
  C   C66       1.0  0.11890  0.17582  0.55266  1.0000
  C   C67       1.0  0.02368  0.20755  0.86185  1.0000
  H   H54       1.0  0.00563  0.19999  0.85091  1.0000
  C   C68       1.0  0.14539  0.06695  0.97051  1.0000
  S   S28       1.0  0.01874  0.18850  0.96654  1.0000
  H   H55       1.0  0.05400  0.19586  0.82678  1.0000
  C   C69       1.0  0.02633  0.14552  0.73693  1.0000
  H   H56       1.0  0.09594  0.21164  0.85219  1.0000
  H   H57       1.0  0.08861  0.23142  0.90183  1.0000
  N   N6        1.0  0.10416  0.16336  0.52913  1.0000
  H   H58       1.0  0.13231  0.19278  0.54307  1.0000
  H   H59       1.0  0.12137  0.01912  0.90381  1.0000
  C   C70       1.0  0.03514  0.25863  0.49253  1.0000
  H   H60       1.0  0.11166  0.12147  0.54761  1.0000
  C   C71       1.0  0.07044  0.22503  0.89017  1.0000
  S   S29       1.0  0.00761  0.14446  0.62478  1.0000
  H   H61       1.0  0.07916  0.09545  0.75307  1.0000
  H   H62       1.0  0.08536  0.10043  0.50936  1.0000
  H   H63       1.0  0.04704  0.03261  0.93255  1.0000
  Fe  Fe15      1.0  0.01343  0.09185  0.93022  1.0000
  C   C72       1.0  0.08713  0.12297  0.50827  1.0000
  C   C73       1.0  0.05103  0.20522  0.84805  1.0000
  H   H64       1.0  0.13280  0.00508  0.95432  1.0000
  H   H65       1.0  0.02318  0.03399  0.68177  1.0000
  C   C74       1.0  0.09139  0.18041  0.50717  1.0000
  S   S30       1.0  0.23593  0.05478  0.55372  1.0000
  C   C75       1.0  0.09807  0.01653  0.90860  1.0000
  H   H66       1.0  0.00854  0.18400  0.51207  1.0000
  C   C76       1.0  0.07625  0.16912  0.48510  1.0000
  C   C77       1.0  0.07407  0.14020  0.48576  1.0000
  H   H67       1.0  0.08659  0.03354  0.89479  1.0000
  H   H68       1.0  0.03985  0.23540  0.92504  1.0000
  H   H69       1.0  0.04257  0.27940  0.48733  1.0000
  H   H70       1.0  0.03200  0.03168  0.72038  1.0000
  H   H71       1.0  0.01670  0.07091  0.75152  1.0000
  C   C78       1.0  0.11102  0.01177  0.96111  1.0000
  H   H72       1.0  0.01568  0.15647  0.71820  1.0000
  H   H73       1.0  0.07628  0.20794  0.97682  1.0000
  C   C79       1.0  0.19006  0.03742  0.97733  1.0000
  H   H74       1.0  0.20802  0.65349  0.40212  1.0000
  S   S31       1.0  0.24832  0.53402  0.01283  1.0000
  Fe  Fe16      1.0  0.06869  0.71695  0.35088  1.0000
  S   S32       1.0  0.08592  0.72361  0.30430  1.0000
  S   S33       1.0  0.10008  0.69064  0.37880  1.0000
  Fe  Fe17      1.0  0.06735  0.76771  0.30816  1.0000
  S   S34       1.0  0.09200  0.80722  0.29799  1.0000
  Fe  Fe18      1.0  0.04225  0.71353  0.29039  1.0000
  N   N7        1.0  0.02505  0.85538  0.33218  1.0000
  S   S35       1.0  0.05165  0.76107  0.35578  1.0000
  H   H75       1.0  0.15262  0.72624  0.35171  1.0000
  N   N8        1.0  0.23660  0.54447  0.26709  1.0000
  H   H76       1.0  0.13213  0.85071  0.29695  1.0000
  H   H77       1.0  0.07155  0.75178  0.05390  1.0000
  S   S36       1.0  0.02460  0.75852  0.28956  1.0000
  H   H78       1.0  0.01472  0.86308  0.28606  1.0000
  H   H79       1.0  0.18040  0.75996  0.43109  1.0000
  S   S37       1.0  0.22706  0.80246  0.31667  1.0000
  S   S38       1.0  0.17742  0.65525  0.26104  1.0000
  S   S39       1.0  0.20658  0.64032  0.33937  1.0000
  Fe  Fe19      1.0  0.17895  0.70109  0.24777  1.0000
  S   S40       1.0  0.14222  0.73369  0.25032  1.0000
  S   S41       1.0  0.21069  0.70731  0.28251  1.0000
  C   C80       1.0  0.01324  0.51886  0.12493  1.0000
  C   C81       1.0  0.11831  0.54546  0.00733  1.0000
  H   H80       1.0  0.01251  0.53848  0.13562  1.0000
  S   S42       1.0  0.04125  0.76964  0.16263  1.0000
  N   N9        1.0  0.04035  0.81718  0.04299  1.0000
  H   H81       1.0  0.07164  0.76645  0.10580  1.0000
  H   H82       1.0  0.03471  0.83011  0.99702  1.0000
  Fe  Fe20      1.0  0.06962  0.62869  0.10935  1.0000
  S   S43       1.0  0.05640  0.58679  0.12769  1.0000
  S   S44       1.0  0.09143  0.65618  0.13880  1.0000
  Fe  Fe21      1.0  0.04924  0.62046  0.04729  1.0000
  H   H83       1.0  0.23704  0.73856  0.35756  1.0000
  Fe  Fe22      1.0  0.01666  0.59703  0.10184  1.0000
  Fe  Fe23      1.0  0.07541  0.57172  0.08504  1.0000
  S   S45       1.0  0.09220  0.61289  0.06819  1.0000
  C   C82       1.0  0.19854  0.66544  0.42074  1.0000
  H   H84       1.0  0.18643  0.76031  0.32032  1.0000
  H   H85       1.0  0.19356  0.76428  0.25730  1.0000
  S   S46       1.0  0.22276  0.60013  0.11212  1.0000
  S   S47       1.0  0.23412  0.52419  0.08698  1.0000
  H   H86       1.0  0.15930  0.60061  0.32881  1.0000
  H   H87       1.0  0.18500  0.84956  0.30338  1.0000
  H   H88       1.0  0.15981  0.59740  0.17293  1.0000
  H   H89       1.0  0.04506  0.70220  0.98272  1.0000
  H   H90       1.0  0.23152  0.91049  0.46201  1.0000
  C   C83       1.0  0.13629  0.53017  0.09110  1.0000
  C   C84       1.0  0.15106  0.55397  0.08197  1.0000
  C   C85       1.0  0.18125  0.55270  0.08162  1.0000
  C   C86       1.0  0.19657  0.52776  0.09093  1.0000
  C   C87       1.0  0.18163  0.50449  0.10136  1.0000
  C   C88       1.0  0.15159  0.50555  0.10113  1.0000
  H   H91       1.0  0.13942  0.57274  0.07342  1.0000
  H   H92       1.0  0.19269  0.57039  0.07244  1.0000
  H   H93       1.0  0.22715  0.78009  0.25600  1.0000
  S   S48       1.0  0.21272  0.60985  0.20419  1.0000
  C   C89       1.0  0.19238  0.57603  0.45267  1.0000
  C   C90       1.0  0.22186  0.58078  0.45118  1.0000
  C   C91       1.0  0.10650  0.70765  0.47590  1.0000
  C   C92       1.0  0.22847  0.68337  0.02945  1.0000
  H   H94       1.0  0.23696  0.56626  0.44080  1.0000
  N   N10       1.0  0.18766  0.69352  0.40997  1.0000
  C   C93       1.0  0.03586  0.84305  0.38339  1.0000
  H   H95       1.0  0.22625  0.72825  0.03086  1.0000
  Fe  Fe24      1.0  0.24414  0.69950  0.24650  1.0000
  H   H96       1.0  0.04846  0.83061  0.39988  1.0000
  C   C94       1.0  0.22281  0.71091  0.01756  1.0000
  C   C95       1.0  0.22349  0.66111  0.01216  1.0000
  H   H97       1.0  0.20683  0.87358  0.22061  1.0000
  H   H98       1.0  0.21341  0.76838  0.22223  1.0000
  C   C96       1.0  0.07004  0.76066  0.18635  1.0000
  C   C97       1.0  0.06827  0.76779  0.21583  1.0000
  C   C98       1.0  0.09113  0.76012  0.23459  1.0000
  C   C99       1.0  0.11553  0.74452  0.22450  1.0000
  C   C100      1.0  0.11786  0.73824  0.19464  1.0000
  C   C101      1.0  0.09508  0.74631  0.17555  1.0000
  H   H99       1.0  0.04935  0.77930  0.22424  1.0000
  H   H100      1.0  0.08965  0.76593  0.25726  1.0000
  H   H101      1.0  0.13682  0.72667  0.18647  1.0000
  H   H102      1.0  0.09658  0.74070  0.15269  1.0000
  H   H103      1.0  0.16605  0.56176  0.36780  1.0000
  S   S49       1.0  0.09903  0.52971  0.08757  1.0000
  H   H104      1.0  0.24357  0.87627  0.02476  1.0000
  H   H105      1.0  0.01668  0.64271  0.21741  1.0000
  C   C102      1.0  0.16356  0.72367  0.37266  1.0000
  H   H106      1.0  0.03396  0.85792  0.02122  1.0000
  S   S50       1.0  0.02813  0.64054  0.08687  1.0000
  C   C103      1.0  0.14354  0.55989  0.00435  1.0000
  Fe  Fe25      1.0  0.01067  0.74805  0.33702  1.0000
  C   C104      1.0  0.22274  0.60634  0.34672  1.0000
  C   C105      1.0  0.21623  0.59074  0.37340  1.0000
  C   C106      1.0  0.22844  0.56328  0.37884  1.0000
  H   H107      1.0  0.20133  0.59966  0.38966  1.0000
  H   H108      1.0  0.22215  0.55064  0.39851  1.0000
  C   C107      1.0  0.04846  0.67006  0.22993  1.0000
  C   C108      1.0  0.03697  0.65162  0.21128  1.0000
  C   C109      1.0  0.05067  0.64612  0.18377  1.0000
  C   C110      1.0  0.07614  0.65875  0.17501  1.0000
  C   C111      1.0  0.08872  0.67533  0.19468  1.0000
  C   C112      1.0  0.07477  0.68132  0.22194  1.0000
  H   H109      1.0  0.10887  0.68429  0.18832  1.0000
  H   H110      1.0  0.08397  0.69525  0.23635  1.0000
  C   C113      1.0  0.10487  0.69923  0.41526  1.0000
  C   C114      1.0  0.09383  0.72464  0.42576  1.0000
  C   C115      1.0  0.09503  0.72904  0.45621  1.0000
  H   H111      1.0  0.14285  0.58195  0.99726  1.0000
  C   C116      1.0  0.12010  0.68363  0.46475  1.0000
  C   C117      1.0  0.11916  0.67935  0.43447  1.0000
  H   H112      1.0  0.12533  0.83571  0.23015  1.0000
  H   H113      1.0  0.18492  0.55836  0.44219  1.0000
  H   H114      1.0  0.03006  0.84544  0.07686  1.0000
  H   H115      1.0  0.12789  0.65976  0.42638  1.0000
  C   C118      1.0  0.12928  0.80607  0.30480  1.0000
  C   C119      1.0  0.14477  0.78071  0.31170  1.0000
  C   C120      1.0  0.17459  0.78014  0.31564  1.0000
  C   C121      1.0  0.18935  0.80486  0.31244  1.0000
  C   C122      1.0  0.17389  0.83035  0.30578  1.0000
  C   C123      1.0  0.14392  0.83095  0.30222  1.0000
  H   H116      1.0  0.13388  0.76140  0.31310  1.0000
  Fe  Fe26      1.0  0.21207  0.66085  0.29261  1.0000
  C   C124      1.0  0.17034  0.65758  0.09279  1.0000
  C   C125      1.0  0.17799  0.67863  0.11022  1.0000
  H   H117      1.0  0.17275  0.66019  0.06871  1.0000
  H   H118      1.0  0.18632  0.69764  0.09966  1.0000
  H   H119      1.0  0.14546  0.48211  0.03248  1.0000
  S   S51       1.0  0.03426  0.57772  0.06072  1.0000
  H   H120      1.0  0.09799  0.55656  0.00195  1.0000
  C   C126      1.0  0.17445  0.69716  0.38326  1.0000
  H   H121      1.0  0.14032  0.48708  0.10825  1.0000
  H   H122      1.0  0.22072  0.87515  0.46242  1.0000
  N   N11       1.0  0.19254  0.80578  0.23697  1.0000
  C   C127      1.0  0.20813  0.82886  0.23100  1.0000
  C   C128      1.0  0.16320  0.80808  0.23601  1.0000
  C   C129      1.0  0.19432  0.85526  0.22484  1.0000
  C   C130      1.0  0.14866  0.83410  0.22982  1.0000
  C   C131      1.0  0.16437  0.85786  0.22438  1.0000
  C   C132      1.0  0.20743  0.77830  0.24328  1.0000
  C   C133      1.0  0.24799  0.62580  0.15652  1.0000
  H   H123      1.0  0.15071  0.78995  0.24101  1.0000
  H   H124      1.0  0.08850  0.49423  0.99857  1.0000
  C   C134      1.0  0.16594  0.74651  0.38973  1.0000
  H   H125      1.0  0.15339  0.87826  0.22002  1.0000
  H   H126      1.0  0.04014  0.71129  0.15875  1.0000
  H   H127      1.0  0.21577  0.66639  0.43692  1.0000
  H   H128      1.0  0.10063  0.82486  0.47221  1.0000
  N   N12       1.0  0.12302  0.61986  0.35124  1.0000
  C   C135      1.0  0.10558  0.61944  0.37641  1.0000
  C   C136      1.0  0.14476  0.59966  0.34819  1.0000
  C   C137      1.0  0.10972  0.59846  0.39931  1.0000
  C   C138      1.0  0.14889  0.57784  0.37025  1.0000
  C   C139      1.0  0.13142  0.57746  0.39608  1.0000
  C   C140      1.0  0.11959  0.64283  0.32809  1.0000
  H   H129      1.0  0.08848  0.63550  0.37913  1.0000
  H   H130      1.0  0.18050  0.69141  0.15489  1.0000
  H   H131      1.0  0.09651  0.59871  0.41969  1.0000
  H   H132      1.0  0.13497  0.56120  0.41383  1.0000
  H   H133      1.0  0.13497  0.65903  0.33145  1.0000
  H   H134      1.0  0.12356  0.63522  0.30548  1.0000
  H   H135      1.0  0.09750  0.65302  0.32875  1.0000
  N   N13       1.0  0.11921  0.51783  0.01739  1.0000
  C   C141      1.0  0.21332  0.66653  0.98305  1.0000
  H   H136      1.0  0.05824  0.50976  0.13162  1.0000
  S   S52       1.0  0.21217  0.69535  0.21106  1.0000
  H   H137      1.0  0.19670  0.55730  0.28880  1.0000
  H   H138      1.0  0.22542  0.51737  0.30498  1.0000
  H   H139      1.0  0.16349  0.64698  0.17843  1.0000
  H   H140      1.0  0.19859  0.71258  0.44910  1.0000
  C   C142      1.0  0.05145  0.79111  0.03656  1.0000
  C   C143      1.0  0.21300  0.71630  0.98847  1.0000
  C   C144      1.0  0.06310  0.77255  0.05896  1.0000
  S   S53       1.0  0.24190  0.67819  0.06583  1.0000
  C   C145      1.0  0.06307  0.78074  0.08808  1.0000
  H   H141      1.0  0.04085  0.63312  0.16887  1.0000
  H   H142      1.0  0.15743  0.76716  0.38174  1.0000
  H   H143      1.0  0.24654  0.60640  0.30536  1.0000
  C   C146      1.0  0.00718  0.71421  0.19336  1.0000
  H   H144      1.0  0.12567  0.60404  0.15505  1.0000
  H   H145      1.0  0.05792  0.82489  0.34612  1.0000
  H   H146      1.0  0.23137  0.82702  0.23124  1.0000
  C   C147      1.0  0.17043  0.51756  0.02113  1.0000
  H   H147      1.0  0.24058  0.68760  0.34932  1.0000
  C   C148      1.0  0.03979  0.82519  0.07157  1.0000
  H   H148      1.0  0.08341  0.74033  0.41074  1.0000
  C   C149      1.0  0.02748  0.83619  0.01957  1.0000
  H   H149      1.0  0.09690  0.61206  0.99534  1.0000
  S   S54       1.0  0.23453  0.50312  0.45000  1.0000
  C   C150      1.0  0.16027  0.63289  0.10669  1.0000
  Fe  Fe27      1.0  0.21392  0.64978  0.22753  1.0000
  S   S55       1.0  0.03971  0.83340  0.46596  1.0000
  C   C151      1.0  0.20971  0.56195  0.26809  1.0000
  C   C152      1.0  0.17514  0.67497  0.14118  1.0000
  C   C153      1.0  0.14936  0.60245  0.15126  1.0000
  H   H150      1.0  0.21443  0.58446  0.26728  1.0000
  C   C154      1.0  0.25032  0.84206  0.98082  1.0000
  C   C155      1.0  0.16973  0.54574  0.01112  1.0000
  S   S56       1.0  0.02792  0.68048  0.26138  1.0000
  C   C156      1.0  0.24430  0.57535  0.16809  1.0000
  H   H151      1.0  0.23505  0.55889  0.18231  1.0000
  H   H152      1.0  0.23964  0.90677  0.14729  1.0000
  C   C157      1.0  0.09268  0.50287  0.02011  1.0000
  C   C158      1.0  0.24132  0.52223  0.28747  1.0000
  S   S57       1.0  0.03995  0.63973  0.00134  1.0000
  C   C159      1.0  0.23232  0.60312  0.46480  1.0000
  H   H153      1.0  0.15454  0.61654  0.09306  1.0000
  C   C160      1.0  0.24186  0.59455  0.32598  1.0000
  H   H154      1.0  0.17160  0.67942  0.37031  1.0000
  H   H155      1.0  0.05080  0.78431  0.01415  1.0000
  H   H156      1.0  0.01990  0.72576  0.20744  1.0000
  N   N14       1.0  0.15889  0.62891  0.13709  1.0000
  H   H157      1.0  0.15543  0.58472  0.13721  1.0000
  C   C161      1.0  0.23784  0.60336  0.17484  1.0000
  C   C162      1.0  0.16549  0.64981  0.15434  1.0000
  H   H158      1.0  0.18935  0.55678  0.00943  1.0000
  C   C163      1.0  0.03078  0.85127  0.30049  1.0000
  C   C164      1.0  0.04107  0.83990  0.35298  1.0000
  C   C165      1.0  0.17878  0.74249  0.41733  1.0000
  C   C166      1.0  0.17288  0.59300  0.46889  1.0000
  S   S58       1.0  0.25086  0.88187  0.29059  1.0000
  H   H159      1.0  0.02987  0.82876  0.29637  1.0000
  H   H160      1.0  0.07415  0.51705  0.02681  1.0000
  S   S59       1.0  0.13631  0.58434  0.47214  1.0000
  H   H161      1.0  0.19688  0.55880  0.24842  1.0000
  H   H162      1.0  0.23259  0.83460  0.99590  1.0000
  H   H163      1.0  0.05062  0.81345  0.11722  1.0000
  C   C167      1.0  0.22916  0.89082  0.47628  1.0000
  H   H164      1.0  0.03221  0.75785  0.44678  1.0000
  H   H165      1.0  0.22751  0.63977  0.02114  1.0000
  C   C168      1.0  0.05130  0.80719  0.09448  1.0000
  H   H166      1.0  0.05251  0.85801  0.29353  1.0000
  H   H167      1.0  0.18079  0.65380  0.43175  1.0000
  S   S60       1.0  0.02659  0.70298  0.33728  1.0000
  C   C169      1.0  0.03904  0.50255  0.12253  1.0000
  C   C170      1.0  0.18929  0.71562  0.42732  1.0000
  H   H168      1.0  0.19337  0.48542  0.10923  1.0000
  C   C171      1.0  0.14483  0.50382  0.02405  1.0000
  H   H169      1.0  0.24135  0.64687  0.16184  1.0000
  C   C172      1.0  0.25302  0.75089  0.46933  1.0000
  C   C173      1.0  0.01850  0.70623  0.16594  1.0000
  C   C174      1.0  0.02182  0.73822  0.45011  1.0000
  C   C175      1.0  0.25377  0.70044  0.46985  1.0000
  H   H170      1.0  0.19057  0.50665  0.02755  1.0000
  H   H171      1.0  0.08510  0.74796  0.46473  1.0000
  H   H172      1.0  0.01171  0.68404  0.12758  1.0000
  C   C176      1.0  0.01411  0.86219  0.39246  1.0000
  H   H173      1.0  0.25343  0.56859  0.22967  1.0000
  C   C177      1.0  0.01391  0.69507  0.47920  1.0000
  S   S61       1.0  0.24868  0.65354  0.25985  1.0000
  C   C178      1.0  0.24879  0.55210  0.35872  1.0000
  H   H174      1.0  0.00971  0.86458  0.41600  1.0000
  H   H175      1.0  0.09434  0.48545  0.03777  1.0000
  C   C179      1.0  0.02733  0.72022  0.47523  1.0000
  H   H176      1.0  0.20852  0.73764  0.97983  1.0000
  Fe  Fe28      1.0  0.04288  0.70056  0.66507  1.0000
  H   H177      1.0  0.19354  0.73799  0.72274  1.0000
  S   S62       1.0  0.08837  0.69256  0.64616  1.0000
  C   C180      1.0  0.19520  0.79721  0.76960  1.0000
  S   S63       1.0  0.02538  0.74530  0.66223  1.0000
  C   C181      1.0  0.02283  0.78416  0.82330  1.0000
  C   C182      1.0  0.02036  0.76243  0.55211  1.0000
  Fe  Fe29      1.0  0.22904  0.61294  0.71738  1.0000
  C   C183      1.0  0.23995  0.88339  0.64444  1.0000
  S   S64       1.0  0.18570  0.63412  0.72869  1.0000
  S   S65       1.0  0.22651  0.78664  0.67209  1.0000
  C   C184      1.0  0.23921  0.68600  0.67785  1.0000
  Fe  Fe30      1.0  0.08777  0.66264  0.52575  1.0000
  H   H178      1.0  0.08007  0.68339  0.91241  1.0000
  C   C185      1.0  0.21353  0.86382  0.81630  1.0000
  C   C186      1.0  0.18320  0.53718  0.67859  1.0000
  H   H179      1.0  0.22082  0.63674  0.49302  1.0000
  Fe  Fe31      1.0  0.02410  0.83134  0.93648  1.0000
  S   S66       1.0  0.05379  0.86508  0.94468  1.0000
  S   S67       1.0  0.03800  0.78642  0.94668  1.0000
  N   N15       1.0  0.04233  0.69794  0.93607  1.0000
  H   H180      1.0  0.17472  0.87471  0.88010  1.0000
  S   S68       1.0  0.19759  0.70076  0.93359  1.0000
  Fe  Fe32      1.0  0.08590  0.61052  0.56814  1.0000
  S   S69       1.0  0.09725  0.58372  0.60991  1.0000
  Fe  Fe33      1.0  0.10409  0.60641  0.50302  1.0000
  Fe  Fe34      1.0  0.04030  0.62260  0.52041  1.0000
  S   S70       1.0  0.12115  0.62917  0.53940  1.0000
  S   S71       1.0  0.19279  0.80222  0.54017  1.0000
  Fe  Fe35      1.0  0.04657  0.66430  0.82298  1.0000
  Fe  Fe36      1.0  0.11027  0.67308  0.80354  1.0000
  S   S72       1.0  0.12166  0.62695  0.80300  1.0000
  S   S73       1.0  0.14258  0.70677  0.80428  1.0000
  Fe  Fe37      1.0  0.07913  0.62546  0.78085  1.0000
  S   S74       1.0  0.06862  0.59418  0.74792  1.0000
  Fe  Fe38      1.0  0.09589  0.62391  0.84611  1.0000
  S   S75       1.0  0.11313  0.60198  0.88816  1.0000
  S   S76       1.0  0.06913  0.67208  0.77820  1.0000
  S   S77       1.0  0.08639  0.66977  0.84786  1.0000
  Fe  Fe39      1.0  0.16458  0.81249  0.57974  1.0000
  S   S78       1.0  0.17496  0.77153  0.60602  1.0000
  S   S79       1.0  0.11816  0.82956  0.57904  1.0000
  S   S80       1.0  0.19828  0.83577  0.60079  1.0000
  Fe  Fe40      1.0  0.20763  0.80546  0.91136  1.0000
  S   S81       1.0  0.18952  0.84289  0.93502  1.0000
  S   S82       1.0  0.17821  0.77753  0.89141  1.0000
  C   C187      1.0  0.18430  0.79986  0.71629  1.0000
  C   C188      1.0  0.17535  0.80188  0.74660  1.0000
  H   H181      1.0  0.16881  0.80298  0.69892  1.0000
  H   H182      1.0  0.15294  0.80660  0.75220  1.0000
  H   H183      1.0  0.19036  0.73742  0.68342  1.0000
  H   H184      1.0  0.17094  0.67268  0.86493  1.0000
  C   C189      1.0  0.09229  0.61114  0.91982  1.0000
  C   C190      1.0  0.10379  0.60662  0.94819  1.0000
  C   C191      1.0  0.23993  0.69949  0.49812  1.0000
  H   H185      1.0  0.24135  0.85912  0.96522  1.0000
  C   C192      1.0  0.04820  0.63096  0.94229  1.0000
  C   C193      1.0  0.06441  0.62329  0.91693  1.0000
  H   H186      1.0  0.12546  0.59754  0.95020  1.0000
  H   H187      1.0  0.16254  0.90927  0.57256  1.0000
  C   C194      1.0  0.08685  0.58872  0.64741  1.0000
  C   C195      1.0  0.07913  0.61499  0.65817  1.0000
  C   C196      1.0  0.07366  0.61747  0.68910  1.0000
  C   C197      1.0  0.07529  0.59355  0.70900  1.0000
  C   C198      1.0  0.08163  0.56734  0.69776  1.0000
  C   C199      1.0  0.08792  0.56501  0.66739  1.0000
  C   C200      1.0  0.05988  0.62703  0.97060  1.0000
  H   H188      1.0  0.06793  0.63772  0.69743  1.0000
  H   H189      1.0  0.08242  0.54869  0.71279  1.0000
  H   H190      1.0  0.09382  0.54462  0.65936  1.0000
  H   H191      1.0  0.03446  0.78007  0.50910  1.0000
  H   H192      1.0  0.10032  0.90056  0.94783  1.0000
  C   C201      1.0  0.03719  0.75906  0.83349  1.0000
  C   C202      1.0  0.21153  0.54549  0.51947  1.0000
  C   C203      1.0  0.06122  0.83305  0.49756  1.0000
  C   C204      1.0  0.04916  0.83713  0.52595  1.0000
  C   C205      1.0  0.06693  0.83616  0.55065  1.0000
  C   C206      1.0  0.09680  0.83076  0.54728  1.0000
  C   C207      1.0  0.10886  0.82666  0.51889  1.0000
  H   H193      1.0  0.21337  0.85210  0.79653  1.0000
  H   H194      1.0  0.02618  0.84106  0.52890  1.0000
  H   H195      1.0  0.05744  0.83941  0.57254  1.0000
  H   H196      1.0  0.13180  0.82249  0.51597  1.0000
  H   H197      1.0  0.20746  0.59867  0.56564  1.0000
  C   C208      1.0  0.09138  0.85783  0.94212  1.0000
  C   C209      1.0  0.10355  0.83086  0.93810  1.0000
  C   C210      1.0  0.13362  0.82592  0.93591  1.0000
  C   C211      1.0  0.15169  0.84795  0.93791  1.0000
  C   C212      1.0  0.13947  0.87477  0.94248  1.0000
  C   C213      1.0  0.10950  0.87970  0.94445  1.0000
  H   H198      1.0  0.08985  0.81376  0.93708  1.0000
  C   C214      1.0  0.23277  0.78896  0.73173  1.0000
  H   H199      1.0  0.00808  0.64365  0.78965  1.0000
  C   C215      1.0  0.23722  0.72100  0.77720  1.0000
  C   C216      1.0  0.22269  0.73531  0.79948  1.0000
  C   C217      1.0  0.19447  0.72928  0.80878  1.0000
  C   C218      1.0  0.18000  0.70895  0.79565  1.0000
  C   C219      1.0  0.19487  0.69336  0.77431  1.0000
  C   C220      1.0  0.22351  0.69903  0.76542  1.0000
  H   H200      1.0  0.23303  0.75188  0.80886  1.0000
  H   H201      1.0  0.18350  0.74117  0.82568  1.0000
  H   H202      1.0  0.18388  0.67775  0.76396  1.0000
  C   C221      1.0  0.19078  0.86262  0.83731  1.0000
  S   S83       1.0  0.09772  0.70729  0.51404  1.0000
  H   H203      1.0  0.02918  0.56422  0.65612  1.0000
  S   S84       1.0  0.05397  0.64672  0.55828  1.0000
  H   H204      1.0  0.02652  0.64000  0.93995  1.0000
  C   C222      1.0  0.09114  0.82805  0.49411  1.0000
  H   H205      1.0  0.12278  0.74928  0.54949  1.0000
  H   H206      1.0  0.23073  0.92297  0.89434  1.0000
  H   H207      1.0  0.23975  0.78944  0.77873  1.0000
  C   C223      1.0  0.04624  0.73942  0.81297  1.0000
  S   S85       1.0  0.02760  0.69188  0.71257  1.0000
  H   H208      1.0  0.13569  0.60529  0.68454  1.0000
  H   H209      1.0  0.15649  0.59328  0.63565  1.0000
  H   H210      1.0  0.23451  0.68683  0.74880  1.0000
  C   C224      1.0  0.17282  0.57269  0.55747  1.0000
  C   C225      1.0  0.23948  0.74988  0.49784  1.0000
  H   H211      1.0  0.22678  0.53533  0.50438  1.0000
  H   H212      1.0  0.01649  0.79984  0.83854  1.0000
  Fe  Fe41      1.0  0.20770  0.78153  0.85048  1.0000
  H   H213      1.0  0.19506  0.91285  0.90462  1.0000
  H   H214      1.0  0.07810  0.63341  0.64285  1.0000
  C   C226      1.0  0.11582  0.67699  0.66915  1.0000
  C   C227      1.0  0.11228  0.67519  0.70017  1.0000
  C   C228      1.0  0.13428  0.66268  0.71798  1.0000
  C   C229      1.0  0.16001  0.65171  0.70504  1.0000
  C   C230      1.0  0.16401  0.65414  0.67403  1.0000
  C   C231      1.0  0.14198  0.66685  0.65616  1.0000
  H   H215      1.0  0.09248  0.68327  0.71050  1.0000
  H   H216      1.0  0.13110  0.66115  0.74195  1.0000
  H   H217      1.0  0.18359  0.64539  0.66382  1.0000
  H   H218      1.0  0.14491  0.66824  0.63215  1.0000
  S   S86       1.0  0.01043  0.77305  0.73677  1.0000
  S   S87       1.0  0.05474  0.61768  0.82448  1.0000
  S   S88       1.0  0.18337  0.79804  0.80786  1.0000
  C   C232      1.0  0.21320  0.79279  0.70884  1.0000
  C   C233      1.0  0.03908  0.74394  0.78287  1.0000
  C   C234      1.0  0.02120  0.58093  0.61128  1.0000
  H   H219      1.0  0.22563  0.88933  0.91345  1.0000
  H   H220      1.0  0.15732  0.58329  0.57206  1.0000
  C   C235      1.0  0.14944  0.58636  0.68313  1.0000
  C   C236      1.0  0.23700  0.89379  0.84733  1.0000
  H   H221      1.0  0.18845  0.85855  0.50043  1.0000
  H   H222      1.0  0.07998  0.71878  0.92382  1.0000
  H   H223      1.0  0.14256  0.54474  0.54361  1.0000
  C   C237      1.0  0.00520  0.60100  0.59369  1.0000
  H   H224      1.0  0.19961  0.94266  0.55528  1.0000
  S   S89       1.0  0.24233  0.78167  0.58929  1.0000
  C   C238      1.0  0.17109  0.54461  0.70604  1.0000
  H   H225      1.0  0.15700  0.86714  0.54478  1.0000
  C   C239      1.0  0.23111  0.69224  0.64848  1.0000
  S   S90       1.0  0.23633  0.81079  0.87032  1.0000
  N   N16       1.0  0.11219  0.77125  0.85548  1.0000
  C   C240      1.0  0.11665  0.77889  0.82592  1.0000
  C   C241      1.0  0.09863  0.78966  0.87401  1.0000
  C   C242      1.0  0.10748  0.80561  0.81421  1.0000
  C   C243      1.0  0.08910  0.81654  0.86308  1.0000
  C   C244      1.0  0.09353  0.82448  0.83293  1.0000
  C   C245      1.0  0.12060  0.74263  0.86680  1.0000
  H   H226      1.0  0.12772  0.76440  0.81134  1.0000
  H   H227      1.0  0.09430  0.78327  0.89719  1.0000
  H   H228      1.0  0.11140  0.81159  0.79082  1.0000
  H   H229      1.0  0.07802  0.83093  0.87783  1.0000
  H   H230      1.0  0.08609  0.84518  0.82409  1.0000
  H   H231      1.0  0.14244  0.73621  0.85816  1.0000
  H   H232      1.0  0.12114  0.74063  0.89147  1.0000
  H   H233      1.0  0.10517  0.72806  0.85935  1.0000
  C   C246      1.0  0.01628  0.78893  0.79316  1.0000
  Fe  Fe42      1.0  0.20990  0.79418  0.62506  1.0000
  C   C247      1.0  0.08767  0.61466  0.97360  1.0000
  H   H234      1.0  0.18277  0.70662  0.70763  1.0000
  H   H235      1.0  0.03740  0.56703  0.60113  1.0000
  C   C248      1.0  0.02307  0.76820  0.77322  1.0000
  S   S91       1.0  0.00778  0.82478  0.89158  1.0000
  H   H236      1.0  0.05524  0.62662  0.89516  1.0000
  S   S92       1.0  0.07038  0.58517  0.53238  1.0000
  C   C249      1.0  0.22405  0.79194  0.76165  1.0000
  C   C250      1.0  0.07350  0.69732  0.93049  1.0000
  C   C251      1.0  0.03108  0.70104  0.96422  1.0000
  H   H237      1.0  0.08515  0.68874  0.95054  1.0000
  S   S93       1.0  0.23478  0.74309  0.86804  1.0000
  H   H238      1.0  0.17897  0.65058  0.81716  1.0000
  H   H239      1.0  0.09977  0.75575  0.76091  1.0000
  Fe  Fe43      1.0  0.20821  0.74275  0.91045  1.0000
  C   C252      1.0  0.22031  0.56772  0.53467  1.0000
  C   C253      1.0  0.19063  0.87725  0.51213  1.0000
  S   S94       1.0  0.23589  0.77072  0.93293  1.0000
  H   H240      1.0  0.06903  0.75923  0.71670  1.0000
  H   H241      1.0  0.04208  0.72557  0.49161  1.0000
  C   C254      1.0  0.17296  0.88187  0.53733  1.0000
  S   S95       1.0  0.25238  0.53564  0.65080  1.0000
  N   N17       1.0  0.07847  0.75344  0.56349  1.0000
  C   C255      1.0  0.07012  0.76580  0.53663  1.0000
  C   C256      1.0  0.05837  0.74562  0.58483  1.0000
  C   C257      1.0  0.04097  0.77026  0.53043  1.0000
  C   C258      1.0  0.02906  0.74996  0.57946  1.0000
  H   H242      1.0  0.16879  0.52269  0.48364  1.0000
  C   C259      1.0  0.10903  0.74977  0.57020  1.0000
  H   H243      1.0  0.08608  0.77184  0.51967  1.0000
  H   H244      1.0  0.06502  0.73594  0.60613  1.0000
  C   C260      1.0  0.20086  0.58128  0.55392  1.0000
  H   H245      1.0  0.01318  0.74385  0.59643  1.0000
  H   H246      1.0  0.01805  0.68111  0.49874  1.0000
  H   H247      1.0  0.14277  0.80496  0.93357  1.0000
  C   C261      1.0  0.14324  0.57683  0.73731  1.0000
  H   H248      1.0  0.11368  0.72946  0.58315  1.0000
  H   H249      1.0  0.22495  0.89492  0.65866  1.0000
  C   C262      1.0  0.02458  0.69637  0.91285  1.0000
  H   H250      1.0  0.19278  0.49780  0.50396  1.0000
  C   C263      1.0  0.21410  0.91897  0.51792  1.0000
  H   H251      1.0  0.24202  0.57456  0.53109  1.0000
  H   H252      1.0  0.23457  0.76902  0.50868  1.0000
  H   H253      1.0  0.03345  0.69454  0.89040  1.0000
  S   S96       1.0  0.23376  0.56639  0.72495  1.0000
  N   N18       1.0  0.19810  0.61250  0.83692  1.0000
  C   C264      1.0  0.20538  0.59753  0.86284  1.0000
  H   H254      1.0  0.23506  0.49720  0.60978  1.0000
  C   C265      1.0  0.20109  0.60947  0.89025  1.0000
  Fe  Fe44      1.0  0.22789  0.82102  0.56350  1.0000
  C   C266      1.0  0.18561  0.63905  0.83757  1.0000
  C   C267      1.0  0.20219  0.59945  0.80847  1.0000
  H   H255      1.0  0.21466  0.57621  0.86243  1.0000
  N   N19       1.0  0.21488  0.89204  0.86808  1.0000
  H   H256      1.0  0.20718  0.59758  0.91069  1.0000
  H   H257      1.0  0.18495  0.64616  0.91215  1.0000
  H   H258      1.0  0.05775  0.72019  0.82056  1.0000
  H   H259      1.0  0.22145  0.58451  0.80856  1.0000
  H   H260      1.0  0.16085  0.57682  0.75318  1.0000
  H   H261      1.0  0.09099  0.74956  0.66699  1.0000
  N   N20       1.0  0.15040  0.73946  0.70807  1.0000
  C   C268      1.0  0.13362  0.74100  0.68369  1.0000
  C   C269      1.0  0.13859  0.74510  0.73541  1.0000
  C   C270      1.0  0.10423  0.74862  0.68634  1.0000
  C   C271      1.0  0.10916  0.75212  0.73901  1.0000
  C   C272      1.0  0.09192  0.75394  0.71424  1.0000
  C   C273      1.0  0.18076  0.72984  0.70525  1.0000
  H   H262      1.0  0.14274  0.73575  0.66213  1.0000
  H   H263      1.0  0.15198  0.74420  0.75460  1.0000
  H   H264      1.0  0.23494  0.67955  0.50921  1.0000
  Fe  Fe45      1.0  0.20620  0.76336  0.56787  1.0000
  H   H265      1.0  0.18297  0.58801  0.80425  1.0000
  H   H266      1.0  0.20548  0.61541  0.78968  1.0000
  S   S97       1.0  0.21500  0.72210  0.54770  1.0000
  S   S98       1.0  0.07227  0.64096  0.48743  1.0000
  Fe  Fe46      1.0  0.01888  0.77940  0.90315  1.0000
  C   C274      1.0  0.21662  0.90504  0.89641  1.0000
  C   C275      1.0  0.16110  0.57956  0.65532  1.0000
  H   H267      1.0  0.13252  0.59826  0.73618  1.0000
  H   H268      1.0  0.04509  0.72832  0.76731  1.0000
  S   S99       1.0  0.04398  0.75187  0.87164  1.0000
  C   C276      1.0  0.18870  0.63669  0.89105  1.0000
  N   N21       1.0  0.18409  0.53703  0.52322  1.0000
  C   C277      1.0  0.17835  0.55492  0.65314  1.0000
  N   N22       1.0  0.21055  0.89594  0.50250  1.0000
  C   C278      1.0  0.19197  0.87665  0.86338  1.0000
  H   H269      1.0  0.11503  0.76728  0.58305  1.0000
  H   H270      1.0  0.17280  0.85007  0.83392  1.0000
  H   H271      1.0  0.21419  0.68127  0.63934  1.0000
  C   C279      1.0  0.18086  0.65160  0.86457  1.0000
  H   H272      1.0  0.17542  0.53098  0.72582  1.0000
  C   C280      1.0  0.16464  0.55066  0.54150  1.0000
  H   H273      1.0  0.19697  0.51818  0.67715  1.0000
  H   H274      1.0  0.20976  0.64925  0.96973  1.0000
  H   H275      1.0  0.18818  0.54958  0.63189  1.0000
  H   H276      1.0  0.23038  0.93339  0.51056  1.0000
  C   C281      1.0  0.17512  0.51429  0.50623  1.0000
  H   H277      1.0  0.24123  0.84564  0.67363  1.0000
  N   N23       1.0  0.15485  0.56918  0.70809  1.0000
  C   C282      1.0  0.24500  0.71264  0.63074  1.0000
  C   C283      1.0  0.17613  0.90552  0.55296  1.0000
  H   H278      1.0  0.25080  0.88290  0.48363  1.0000
  C   C284      1.0  0.23685  0.87951  0.82130  1.0000
  H   H279      1.0  0.00512  0.80840  0.78552  1.0000
  H   H280      1.0  0.15662  0.50382  0.51734  1.0000
  H   H281      1.0  0.12705  0.56201  0.74595  1.0000
  H   H282      1.0  0.23889  0.71755  0.60783  1.0000
  H   H283      1.0  0.22852  0.67025  0.69194  1.0000
  C   C285      1.0  0.23269  0.72415  0.51226  1.0000
  C   C286      1.0  0.19688  0.92420  0.54330  1.0000
  C   C287      1.0  0.25112  0.89633  0.61804  1.0000
  Fe  Fe47      1.0  0.00796  0.73603  0.70855  1.0000
  H   H284      1.0  0.15319  0.89186  0.94446  1.0000
  H   H285      1.0  0.16865  0.62862  0.49567  1.0000
  H   H286      1.0  0.24481  0.91812  0.61219  1.0000
  H   H287      1.0  0.00886  0.60211  0.56975  1.0000
  C   C288      1.0  0.01670  0.57941  0.64213  1.0000
  C   C289      1.0  0.20854  0.69420  0.97087  1.0000
  C   C290      1.0  0.21286  0.62027  0.48102  1.0000
  C   C291      1.0  0.18324  0.61538  0.48291  1.0000
  C   C292      1.0  0.24915  0.85582  0.65289  1.0000
  C   C293      1.0  0.24997  0.51061  0.59771  1.0000
  H   H288      1.0  0.24800  0.48978  0.55670  1.0000
  H   H289      1.0  0.12950  0.66731  0.47983  1.0000
  H   H290      1.0  0.36690  0.36301  0.41544  1.0000
  Fe  Fe48      1.0  0.29092  0.44025  0.44242  1.0000
  S   S100      1.0  0.32387  0.40343  0.43559  1.0000
  H   H291      1.0  0.44184  0.02475  0.01208  1.0000
  H   H292      1.0  0.35519  0.37919  0.04183  1.0000
  C   C294      1.0  0.43207  0.03028  0.99088  1.0000
  H   H293      1.0  0.49906  0.27340  0.01342  1.0000
  S   S101      1.0  0.29744  0.00287  0.01948  1.0000
  H   H294      1.0  0.48684  0.10814  0.01232  1.0000
  S   S102      1.0  0.46053  0.40489  0.42129  1.0000
  S   S103      1.0  0.48115  0.32750  0.39569  1.0000
  C   C295      1.0  0.43158  0.10619  0.99927  1.0000
  H   H295      1.0  0.41476  0.37017  0.32640  1.0000
  S   S104      1.0  0.44060  0.38167  0.08875  1.0000
  H   H296      1.0  0.35972  0.40189  0.99068  1.0000
  H   H297      1.0  0.47795  0.31545  0.25423  1.0000
  H   H298      1.0  0.46932  0.43953  0.36447  1.0000
  H   H299      1.0  0.47882  0.37775  0.28099  1.0000
  C   C296      1.0  0.43420  0.31433  0.47724  1.0000
  H   H300      1.0  0.44010  0.29277  0.47247  1.0000
  H   H301      1.0  0.42283  0.44272  0.99720  1.0000
  H   H302      1.0  0.43667  0.09093  0.01756  1.0000
  H   H303      1.0  0.39293  0.08659  0.98928  1.0000
  C   C297      1.0  0.38635  0.44439  0.02804  1.0000
  C   C298      1.0  0.37566  0.43461  0.05604  1.0000
  C   C299      1.0  0.39266  0.41558  0.07433  1.0000
  C   C300      1.0  0.42061  0.40632  0.06504  1.0000
  C   C301      1.0  0.43147  0.41651  0.03726  1.0000
  C   C302      1.0  0.41437  0.43534  0.01886  1.0000
  H   H304      1.0  0.35420  0.44148  0.06345  1.0000
  H   H305      1.0  0.38408  0.40787  0.09581  1.0000
  H   H306      1.0  0.45285  0.40953  0.02974  1.0000
  C   C303      1.0  0.45305  0.40452  0.34424  1.0000
  C   C304      1.0  0.36159  0.40520  0.42926  1.0000
  C   C305      1.0  0.37781  0.38142  0.41998  1.0000
  C   C306      1.0  0.40805  0.38105  0.41706  1.0000
  C   C307      1.0  0.42243  0.40453  0.42344  1.0000
  C   C308      1.0  0.40621  0.42845  0.43227  1.0000
  C   C309      1.0  0.37597  0.42881  0.43518  1.0000
  H   H307      1.0  0.42020  0.36244  0.41038  1.0000
  S   S105      1.0  0.49782  0.32352  0.11426  1.0000
  C   C310      1.0  0.33890  0.40168  0.00230  1.0000
  H   H308      1.0  0.35426  0.35212  0.47534  1.0000
  C   C311      1.0  0.33635  0.38909  0.03109  1.0000
  C   C312      1.0  0.43757  0.36354  0.32135  1.0000
  H   H309      1.0  0.36382  0.44715  0.44257  1.0000
  H   H310      1.0  0.49594  0.32572  0.20208  1.0000
  H   H311      1.0  0.43709  0.40094  0.36199  1.0000
  N   N24       1.0  0.45582  0.38734  0.32121  1.0000
  H   H312      1.0  0.49344  0.25433  0.17617  1.0000
  N   N25       1.0  0.28600  0.40332  0.03296  1.0000
  H   H313      1.0  0.30806  0.38132  0.06905  1.0000
  H   H314      1.0  0.39294  0.00961  0.00356  1.0000
  H   H315      1.0  0.26969  0.42609  0.99414  1.0000
  H   H316      1.0  0.49101  0.14299  0.99636  1.0000
  S   S106      1.0  0.50035  0.32286  0.31151  1.0000
  C   C313      1.0  0.25830  0.40540  0.04939  1.0000
  H   H317      1.0  0.41713  0.44671  0.43729  1.0000
  C   C314      1.0  0.40685  0.10359  0.98331  1.0000
  H   H318      1.0  0.43877  0.35391  0.29955  1.0000
  H   H319      1.0  0.44496  0.34707  0.33848  1.0000
  C   C315      1.0  0.28831  0.41553  0.00464  1.0000
  C   C316      1.0  0.47637  0.39151  0.29910  1.0000
  S   S107      1.0  0.36546  0.46715  0.00331  1.0000
  C   C317      1.0  0.30965  0.39043  0.04636  1.0000
  Fe  Fe49      1.0  0.49272  0.36928  0.40880  1.0000
  Fe  Fe50      1.0  0.25781  0.99387  0.99490  1.0000
  Fe  Fe51      1.0  0.48725  0.36359  0.08579  1.0000
  C   C318      1.0  0.47117  0.42650  0.34564  1.0000
  C   C319      1.0  0.49504  0.41313  0.29989  1.0000
  C   C320      1.0  0.49836  0.32482  0.25017  1.0000
  H   H320      1.0  0.25751  0.39031  0.06923  1.0000
  C   C321      1.0  0.49240  0.43071  0.32337  1.0000
  C   C322      1.0  0.31478  0.41503  0.98896  1.0000
  C   C323      1.0  0.47549  0.12912  0.00836  1.0000
  N   N26       1.0  0.44979  0.12689  0.99114  1.0000
  H   H321      1.0  0.46938  0.13779  0.03007  1.0000
  H   H322      1.0  0.42306  0.46778  0.09361  1.0000
  H   H323      1.0  0.37668  0.47471  0.12208  1.0000
  C   C324      1.0  0.40426  0.02171  0.98616  1.0000
  S   S108      1.0  0.50245  0.27310  0.45772  1.0000
  H   H324      1.0  0.47802  0.32604  0.47592  1.0000
  C   C325      1.0  0.45562  0.33304  0.47914  1.0000
  H   H325      1.0  0.41347  0.39100  0.49354  1.0000
  H   H326      1.0  0.48589  0.04316  0.72038  1.0000
  H   H327      1.0  0.46967  0.14767  0.67633  1.0000
  S   S109      1.0  0.28243  0.98674  0.95183  1.0000
  Fe  Fe52      1.0  0.33454  0.00707  0.54216  1.0000
  S   S110      1.0  0.37569  0.02964  0.52997  1.0000
  H   H328      1.0  0.36691  0.09741  0.59452  1.0000
  S   S111      1.0  0.30445  0.01554  0.58087  1.0000
  S   S112      1.0  0.29902  0.01222  0.50893  1.0000
  C   C326      1.0  0.35327  0.09383  0.54978  1.0000
  H   H329      1.0  0.28652  0.08171  0.53051  1.0000
  S   S113      1.0  0.46591  0.07563  0.61565  1.0000
  C   C327      1.0  0.44722  0.04602  0.96856  1.0000
  C   C328      1.0  0.41928  0.14363  0.95104  1.0000
  C   C329      1.0  0.34893  0.09467  0.58062  1.0000
  H   H330      1.0  0.47055  0.11045  0.77831  1.0000
  S   S114      1.0  0.35680  0.01763  0.95094  1.0000
  C   C330      1.0  0.47139  0.08324  0.69967  1.0000
  C   C331      1.0  0.29891  0.08685  0.57512  1.0000
  H   H331      1.0  0.31673  0.42553  0.96687  1.0000
  N   N27       1.0  0.33115  0.08868  0.53221  1.0000
  H   H332      1.0  0.27755  0.08365  0.58474  1.0000
  H   H333      1.0  0.31797  0.09102  0.61728  1.0000
  C   C332      1.0  0.40131  0.04097  0.55420  1.0000
  C   C333      1.0  0.39765  0.03807  0.58522  1.0000
  C   C334      1.0  0.41771  0.04872  0.60351  1.0000
  C   C335      1.0  0.44171  0.06238  0.59114  1.0000
  C   C336      1.0  0.44533  0.06534  0.56011  1.0000
  C   C337      1.0  0.42524  0.05471  0.54180  1.0000
  H   H334      1.0  0.37936  0.02763  0.59512  1.0000
  H   H335      1.0  0.41467  0.04620  0.62746  1.0000
  H   H336      1.0  0.46364  0.07575  0.55021  1.0000
  H   H337      1.0  0.42830  0.05714  0.51784  1.0000
  C   C338      1.0  0.39129  0.02866  0.95889  1.0000
  N   N28       1.0  0.46338  0.11068  0.70377  1.0000
  H   H338      1.0  0.46463  0.37562  0.48577  1.0000
  C   C339      1.0  0.47907  0.06475  0.72389  1.0000
  Fe  Fe53      1.0  0.26848  0.01739  0.54868  1.0000
  C   C340      1.0  0.30413  0.08566  0.54441  1.0000
  C   C341      1.0  0.43424  0.05300  0.94131  1.0000
  H   H339      1.0  0.39675  0.04977  0.91532  1.0000
  H   H340      1.0  0.36020  0.35182  0.51492  1.0000
  C   C342      1.0  0.33610  0.08706  0.50001  1.0000
  H   H341      1.0  0.47875  0.22998  0.49730  1.0000
  H   H342      1.0  0.44551  0.06516  0.92394  1.0000
  C   C343      1.0  0.32157  0.09101  0.59334  1.0000
  H   H343      1.0  0.36430  0.38306  0.49074  1.0000
  C   C344      1.0  0.46288  0.12042  0.73161  1.0000
  C   C345      1.0  0.40650  0.04433  0.93654  1.0000
  H   H344      1.0  0.45684  0.11963  0.65707  1.0000
  C   C346      1.0  0.36782  0.35984  0.49246  1.0000
  H   H345      1.0  0.43157  0.98429  0.94492  1.0000
  H   H346      1.0  0.45773  0.14244  0.73461  1.0000
  C   C347      1.0  0.47011  0.10244  0.75638  1.0000
  H   H347      1.0  0.48975  0.24294  0.97275  1.0000
  H   H348      1.0  0.32488  0.06932  0.49216  1.0000
  H   H349      1.0  0.47221  0.07553  0.67757  1.0000
  C   C348      1.0  0.47833  0.07445  0.75243  1.0000
  C   C349      1.0  0.45520  0.13002  0.67843  1.0000
  S   S115      1.0  0.49644  0.12239  0.91765  1.0000
  C   C350      1.0  0.40536  0.32364  0.48146  1.0000
  H   H350      1.0  0.32827  0.10691  0.48801  1.0000
  H   H351      1.0  0.37473  0.09613  0.54015  1.0000
  H   H352      1.0  0.43269  0.13845  0.68160  1.0000
  H   H353      1.0  0.48483  0.06056  0.77137  1.0000
  C   C351      1.0  0.41910  0.36931  0.48935  1.0000
  N   N29       1.0  0.39814  0.35086  0.48730  1.0000
  Fe  Fe54      1.0  0.32244  0.99269  0.97730  1.0000
  H   H354      1.0  0.41490  0.15826  0.93203  1.0000
  H   H355      1.0  0.38209  0.11997  0.94593  1.0000
  H   H356      1.0  0.35929  0.08277  0.49424  1.0000
  C   C352      1.0  0.44810  0.36074  0.48508  1.0000
  C   C353      1.0  0.44368  0.14581  0.96769  1.0000
  S   S116      1.0  0.48167  0.05733  0.97635  1.0000
  S   S117      1.0  0.26319  0.44533  0.48432  1.0000
  H   H357      1.0  0.45799  0.16241  0.96138  1.0000
  C   C354      1.0  0.50154  0.22918  0.50109  1.0000
  C   C355      1.0  0.40085  0.12227  0.95888  1.0000
  H   H358      1.0  0.49964  0.19468  0.53490  1.0000
  H   H359      1.0  0.38880  0.30897  0.47996  1.0000
  S   S118      1.0  0.46183  0.75531  0.36174  1.0000
  S   S119      1.0  0.31731  0.66293  0.45520  1.0000
  C   C356      1.0  0.43370  0.61415  0.46399  1.0000
  Fe  Fe55      1.0  0.28049  0.87502  0.25034  1.0000
  Fe  Fe56      1.0  0.28481  0.53170  0.04504  1.0000
  S   S120      1.0  0.29819  0.55971  0.08136  1.0000
  S   S121      1.0  0.31758  0.53482  0.00693  1.0000
  Fe  Fe57      1.0  0.30135  0.95634  0.03263  1.0000
  S   S122      1.0  0.31861  0.93569  0.07688  1.0000
  C   C357      1.0  0.33756  0.66907  0.17204  1.0000
  Fe  Fe58      1.0  0.32315  0.83692  0.28821  1.0000
  S   S123      1.0  0.32018  0.88308  0.27463  1.0000
  S   S124      1.0  0.36266  0.80868  0.27828  1.0000
  C   C358      1.0  0.45878  0.59899  0.47412  1.0000
  C   C359      1.0  0.28120  0.68954  0.32504  1.0000
  Fe  Fe59      1.0  0.29116  0.88627  0.31597  1.0000
  S   S125      1.0  0.32908  0.94692  0.99178  1.0000
  S   S126      1.0  0.28546  0.82861  0.26138  1.0000
  C   C360      1.0  0.47425  0.64573  0.40811  1.0000
  H   H360      1.0  0.32114  0.60158  0.00894  1.0000
  S   S127      1.0  0.48143  0.55692  0.10835  1.0000
  C   C361      1.0  0.28040  0.90284  0.16869  1.0000
  C   C362      1.0  0.41245  0.50100  0.06017  1.0000
  S   S128      1.0  0.27642  0.73281  0.23776  1.0000
  H   H361      1.0  0.34376  0.91986  0.13350  1.0000
  C   C363      1.0  0.34868  0.73997  0.46135  1.0000
  C   C364      1.0  0.46722  0.82724  0.30936  1.0000
  Fe  Fe60      1.0  0.43879  0.75312  0.21228  1.0000
  S   S129      1.0  0.41831  0.79644  0.20450  1.0000
  S   S130      1.0  0.41269  0.71641  0.22932  1.0000
  Fe  Fe61      1.0  0.44174  0.79660  0.16018  1.0000
  S   S131      1.0  0.27803  0.72740  0.41991  1.0000
  Fe  Fe62      1.0  0.45902  0.81012  0.22273  1.0000
  S   S132      1.0  0.46009  0.84799  0.25009  1.0000
  S   S133      1.0  0.45957  0.75237  0.16646  1.0000
  S   S134      1.0  0.47878  0.76672  0.23294  1.0000
  C   C365      1.0  0.40730  0.48417  0.08626  1.0000
  H   H362      1.0  0.36555  0.53877  0.37753  1.0000
  S   S135      1.0  0.28497  0.65083  0.39275  1.0000
  Fe  Fe63      1.0  0.30320  0.68664  0.41351  1.0000
  H   H363      1.0  0.34757  0.87680  0.34437  1.0000
  Fe  Fe64      1.0  0.33005  0.64192  0.37353  1.0000
  S   S136      1.0  0.34420  0.61414  0.41394  1.0000
  S   S137      1.0  0.34916  0.63644  0.32608  1.0000
  Fe  Fe65      1.0  0.30015  0.62668  0.43437  1.0000
  Fe  Fe66      1.0  0.35925  0.65320  0.43143  1.0000
  S   S138      1.0  0.40029  0.66379  0.45301  1.0000
  S   S139      1.0  0.34651  0.68067  0.39098  1.0000
  Fe  Fe67      1.0  0.31876  0.59766  0.08922  1.0000
  S   S140      1.0  0.31150  0.63542  0.11284  1.0000
  S   S141      1.0  0.35990  0.60241  0.06087  1.0000
  Fe  Fe68      1.0  0.28769  0.59882  0.15429  1.0000
  S   S142      1.0  0.29673  0.60334  0.20457  1.0000
  Fe  Fe69      1.0  0.25926  0.63628  0.08685  1.0000
  S   S143      1.0  0.29690  0.84040  0.33073  1.0000
  S   S144      1.0  0.31561  0.56081  0.13464  1.0000
  S   S145      1.0  0.27246  0.60519  0.05756  1.0000
  H   H364      1.0  0.31485  0.55528  0.36829  1.0000
  C   C366      1.0  0.36077  0.50846  0.09186  1.0000
  C   C367      1.0  0.32228  0.55183  0.39089  1.0000
  C   C368      1.0  0.28622  0.68333  0.17424  1.0000
  H   H365      1.0  0.33272  0.88345  0.04062  1.0000
  C   C369      1.0  0.37882  0.87054  0.43204  1.0000
  C   C370      1.0  0.33553  0.62428  0.29307  1.0000
  C   C371      1.0  0.30854  0.61345  0.29273  1.0000
  C   C372      1.0  0.29781  0.60561  0.26579  1.0000
  C   C373      1.0  0.31323  0.60963  0.23856  1.0000
  C   C374      1.0  0.34100  0.61905  0.23915  1.0000
  C   C375      1.0  0.35218  0.62584  0.26631  1.0000
  H   H366      1.0  0.29596  0.61144  0.31328  1.0000
  H   H367      1.0  0.27676  0.59763  0.26579  1.0000
  H   H368      1.0  0.35389  0.62114  0.21877  1.0000
  H   H369      1.0  0.37374  0.63266  0.26640  1.0000
  C   C376      1.0  0.44762  0.57039  0.09593  1.0000
  C   C377      1.0  0.42243  0.56277  0.11164  1.0000
  C   C378      1.0  0.39535  0.57333  0.10177  1.0000
  C   C379      1.0  0.39334  0.59080  0.07561  1.0000
  C   C380      1.0  0.41853  0.59822  0.05982  1.0000
  C   C381      1.0  0.44558  0.58831  0.07010  1.0000
  H   H370      1.0  0.37604  0.56744  0.11400  1.0000
  H   H371      1.0  0.41710  0.61146  0.03939  1.0000
  H   H372      1.0  0.46486  0.59392  0.05754  1.0000
  C   C382      1.0  0.38121  0.48792  0.10212  1.0000
  C   C383      1.0  0.32332  0.85680  0.00585  1.0000
  S   S146      1.0  0.45369  0.85669  0.47347  1.0000
  H   H373      1.0  0.47140  0.71636  0.41194  1.0000
  H   H374      1.0  0.41775  0.60380  0.45270  1.0000
  C   C384      1.0  0.45698  0.84909  0.28937  1.0000
  C   C385      1.0  0.44558  0.87402  0.30065  1.0000
  C   C386      1.0  0.44345  0.87691  0.33139  1.0000
  C   C387      1.0  0.45270  0.85495  0.35155  1.0000
  H   H375      1.0  0.43829  0.89131  0.28548  1.0000
  H   H376      1.0  0.43455  0.89639  0.33959  1.0000
  C   C388      1.0  0.44342  0.80111  0.08618  1.0000
  C   C389      1.0  0.43369  0.80619  0.05707  1.0000
  C   C390      1.0  0.45057  0.79689  0.03269  1.0000
  H   H377      1.0  0.34023  0.51158  0.10370  1.0000
  C   C391      1.0  0.47099  0.69236  0.04000  1.0000
  C   C392      1.0  0.31418  0.72746  0.23697  1.0000
  C   C393      1.0  0.33067  0.75090  0.23195  1.0000
  C   C394      1.0  0.36080  0.74784  0.23043  1.0000
  C   C395      1.0  0.37484  0.72126  0.23346  1.0000
  C   C396      1.0  0.35833  0.69780  0.23874  1.0000
  C   C397      1.0  0.32808  0.70080  0.24052  1.0000
  H   H378      1.0  0.32013  0.77166  0.22954  1.0000
  H   H379      1.0  0.37303  0.76616  0.22713  1.0000
  H   H380      1.0  0.36901  0.67719  0.24044  1.0000
  H   H381      1.0  0.31561  0.68250  0.24418  1.0000
  C   C398      1.0  0.29392  0.92449  0.38442  1.0000
  Fe  Fe70      1.0  0.47174  0.77836  0.46738  1.0000
  C   C399      1.0  0.29349  0.95311  0.42765  1.0000
  C   C400      1.0  0.29174  0.92920  0.44714  1.0000
  C   C401      1.0  0.29141  0.90292  0.43500  1.0000
  C   C402      1.0  0.29227  0.90057  0.40391  1.0000
  H   H382      1.0  0.38541  0.84474  0.39504  1.0000
  N   N30       1.0  0.31637  0.69012  0.17085  1.0000
  H   H383      1.0  0.27312  0.70015  0.18504  1.0000
  S   S147      1.0  0.42984  0.79865  0.45185  1.0000
  C   C403      1.0  0.30295  0.92392  0.11217  1.0000
  S   S148      1.0  0.30256  0.48490  0.43847  1.0000
  H   H384      1.0  0.46194  0.57690  0.47066  1.0000
  H   H385      1.0  0.37690  0.89883  0.33479  1.0000
  N   N31       1.0  0.29922  0.63472  0.98247  1.0000
  S   S149      1.0  0.26053  0.94805  0.01076  1.0000
  C   C404      1.0  0.27422  0.58924  0.11690  1.0000
  S   S150      1.0  0.42171  0.81181  0.11678  1.0000
  C   C405      1.0  0.37048  0.75393  0.41361  1.0000
  C   C406      1.0  0.26371  0.62155  0.12873  1.0000
  C   C407      1.0  0.35981  0.53837  0.42548  1.0000
  H   H386      1.0  0.27306  0.60458  0.11608  1.0000
  C   C408      1.0  0.28725  0.88120  0.03574  1.0000
  H   H387      1.0  0.28106  0.56326  0.41123  1.0000
  H   H388      1.0  0.47966  0.65509  0.25728  1.0000
  C   C409      1.0  0.39719  0.74378  0.42406  1.0000
  H   H389      1.0  0.38521  0.85386  0.44843  1.0000
  H   H390      1.0  0.44275  0.80049  0.01036  1.0000
  C   C410      1.0  0.43483  0.77112  0.33834  1.0000
  C   C411      1.0  0.43581  0.76755  0.30780  1.0000
  C   C412      1.0  0.41336  0.77902  0.28997  1.0000
  C   C413      1.0  0.39003  0.79477  0.30220  1.0000
  C   C414      1.0  0.38896  0.79846  0.33279  1.0000
  C   C415      1.0  0.41128  0.78656  0.35078  1.0000
  H   H391      1.0  0.45389  0.75608  0.29776  1.0000
  H   H392      1.0  0.41422  0.77575  0.26647  1.0000
  H   H393      1.0  0.37112  0.81059  0.34246  1.0000
  H   H394      1.0  0.41085  0.79014  0.37424  1.0000
  N   N32       1.0  0.30058  0.73491  0.31896  1.0000
  C   C416      1.0  0.30282  0.70693  0.31440  1.0000
  H   H395      1.0  0.32528  0.76042  0.42467  1.0000
  S   S151      1.0  0.48041  0.73203  0.47453  1.0000
  H   H396      1.0  0.29965  0.54110  0.22758  1.0000
  C   C417      1.0  0.39905  0.73197  0.45328  1.0000
  H   H397      1.0  0.32391  0.90237  0.18297  1.0000
  H   H398      1.0  0.32131  0.69781  0.30246  1.0000
  H   H399      1.0  0.35715  0.74606  0.15929  1.0000
  C   C418      1.0  0.44993  0.67461  0.05106  1.0000
  C   C419      1.0  0.31299  0.55158  0.44394  1.0000
  C   C420      1.0  0.36998  0.88074  0.34954  1.0000
  H   H400      1.0  0.29671  0.69698  0.01362  1.0000
  C   C421      1.0  0.37080  0.89729  0.44091  1.0000
  C   C422      1.0  0.36650  0.67523  0.16912  1.0000
  C   C423      1.0  0.46346  0.67353  0.40476  1.0000
  H   H401      1.0  0.47304  0.81349  0.35593  1.0000
  H   H402      1.0  0.42035  0.54444  0.02108  1.0000
  Fe  Fe71      1.0  0.26343  0.49354  0.41066  1.0000
  H   H403      1.0  0.27763  0.68060  0.15204  1.0000
  H   H404      1.0  0.28383  0.66375  0.18874  1.0000
  C   C424      1.0  0.47714  0.78229  0.03740  1.0000
  H   H405      1.0  0.27551  0.76834  0.33790  1.0000
  H   H406      1.0  0.31354  0.76903  0.29025  1.0000
  S   S152      1.0  0.26594  0.51839  0.36546  1.0000
  H   H407      1.0  0.41301  0.81710  0.05339  1.0000
  N   N33       1.0  0.34107  0.54337  0.44890  1.0000
  H   H408      1.0  0.33209  0.64740  0.17573  1.0000
  H   H409      1.0  0.42386  0.54890  0.13161  1.0000
  Fe  Fe72      1.0  0.25621  0.56337  0.09537  1.0000
  Fe  Fe73      1.0  0.25849  0.83582  0.30271  1.0000
  C   C425      1.0  0.35072  0.54258  0.39611  1.0000
  Fe  Fe74      1.0  0.32029  0.48795  0.00973  1.0000
  N   N34       1.0  0.37127  0.88659  0.38097  1.0000
  H   H410      1.0  0.29073  0.88413  0.44966  1.0000
  H   H411      1.0  0.47845  0.78380  0.11289  1.0000
  C   C426      1.0  0.30979  0.90691  0.16453  1.0000
  Fe  Fe75      1.0  0.45740  0.83266  0.43191  1.0000
  N   N35       1.0  0.45961  0.68508  0.10101  1.0000
  H   H412      1.0  0.43237  0.49748  0.04744  1.0000
  H   H413      1.0  0.38445  0.86234  0.34415  1.0000
  C   C427      1.0  0.46504  0.83020  0.34051  1.0000
  H   H414      1.0  0.35644  0.92935  0.37307  1.0000
  S   S153      1.0  0.26998  0.60455  0.46802  1.0000
  C   C428      1.0  0.36308  0.91863  0.41953  1.0000
  H   H415      1.0  0.37039  0.90150  0.46430  1.0000
  H   H416      1.0  0.43856  0.66293  0.03597  1.0000
  H   H417      1.0  0.38367  0.55762  0.02114  1.0000
  S   S154      1.0  0.49962  0.80989  0.44348  1.0000
  C   C429      1.0  0.27728  0.74618  0.33424  1.0000
  H   H418      1.0  0.36861  0.76315  0.39104  1.0000
  C   C430      1.0  0.29456  0.68208  0.99694  1.0000
  C   C431      1.0  0.37876  0.86549  0.40180  1.0000
  C   C432      1.0  0.44454  0.67111  0.08185  1.0000
  S   S155      1.0  0.44882  0.86066  0.38997  1.0000
  C   C433      1.0  0.30326  0.55634  0.41494  1.0000
  C   C434      1.0  0.26753  0.50634  0.28718  1.0000
  H   H419      1.0  0.38188  0.53107  0.42945  1.0000
  H   H420      1.0  0.29377  0.97347  0.43651  1.0000
  C   C435      1.0  0.29473  0.95072  0.39652  1.0000
  C   C436      1.0  0.26242  0.90961  0.14442  1.0000
  N   N36       1.0  0.35822  0.84983  0.18303  1.0000
  C   C437      1.0  0.37747  0.85584  0.16012  1.0000
  C   C438      1.0  0.36493  0.85325  0.21178  1.0000
  C   C439      1.0  0.40396  0.86621  0.16572  1.0000
  C   C440      1.0  0.39120  0.86356  0.21822  1.0000
  C   C441      1.0  0.41075  0.87021  0.19497  1.0000
  C   C442      1.0  0.33103  0.83790  0.17705  1.0000
  H   H421      1.0  0.37270  0.85220  0.13737  1.0000
  H   H422      1.0  0.35013  0.84752  0.22996  1.0000
  H   H423      1.0  0.41937  0.87032  0.14751  1.0000
  H   H424      1.0  0.39675  0.86545  0.24119  1.0000
  H   H425      1.0  0.43144  0.87769  0.19975  1.0000
  H   H426      1.0  0.31369  0.84501  0.19296  1.0000
  H   H427      1.0  0.32372  0.84494  0.15437  1.0000
  H   H428      1.0  0.33370  0.81470  0.17929  1.0000
  C   C443      1.0  0.32309  0.71741  0.16547  1.0000
  H   H429      1.0  0.27177  0.55992  0.31682  1.0000
  H   H430      1.0  0.29212  0.88021  0.39504  1.0000
  H   H431      1.0  0.39588  0.70844  0.16358  1.0000
  C   C444      1.0  0.37359  0.70309  0.16447  1.0000
  H   H432      1.0  0.38322  0.65853  0.17118  1.0000
  H   H433      1.0  0.39363  0.52562  0.00348  1.0000
  C   C445      1.0  0.45565  0.67882  0.13319  1.0000
  S   S156      1.0  0.29746  0.92260  0.34506  1.0000
  H   H434      1.0  0.28150  0.89534  0.05310  1.0000
  S   S157      1.0  0.26501  0.88857  0.20314  1.0000
  C   C446      1.0  0.36331  0.91285  0.38948  1.0000
  H   H435      1.0  0.35117  0.54148  0.05856  1.0000
  S   S158      1.0  0.48010  0.81504  0.17710  1.0000
  H   H436      1.0  0.32951  0.73852  0.47571  1.0000
  N   N37       1.0  0.42397  0.69041  0.31067  1.0000
  C   C447      1.0  0.41523  0.67210  0.29144  1.0000
  C   C448      1.0  0.45232  0.69593  0.31141  1.0000
  C   C449      1.0  0.43511  0.65876  0.27224  1.0000
  C   C450      1.0  0.47269  0.68323  0.29236  1.0000
  C   C451      1.0  0.46402  0.66460  0.27258  1.0000
  C   C452      1.0  0.40246  0.70558  0.32899  1.0000
  H   H437      1.0  0.39265  0.66837  0.29041  1.0000
  H   H438      1.0  0.45934  0.71054  0.32642  1.0000
  H   H439      1.0  0.42796  0.64486  0.25647  1.0000
  C   C453      1.0  0.28868  0.51300  0.26552  1.0000
  H   H440      1.0  0.49228  0.71372  0.10542  1.0000
  H   H441      1.0  0.39327  0.72413  0.31558  1.0000
  H   H442      1.0  0.38488  0.69190  0.33665  1.0000
  H   H443      1.0  0.41208  0.71291  0.34904  1.0000
  H   H444      1.0  0.28300  0.66737  0.32130  1.0000
  C   C454      1.0  0.35178  0.72432  0.16229  1.0000
  H   H445      1.0  0.25881  0.68121  0.45915  1.0000
  C   C455      1.0  0.48699  0.77761  0.06645  1.0000
  C   C456      1.0  0.32098  0.91701  0.13641  1.0000
  H   H446      1.0  0.28788  0.59319  0.99358  1.0000
  H   H447      1.0  0.30623  0.73406  0.16471  1.0000
  N   N38       1.0  0.39243  0.52136  0.05054  1.0000
  H   H448      1.0  0.30925  0.50115  0.26530  1.0000
  C   C457      1.0  0.26593  0.87020  0.01978  1.0000
  C   C458      1.0  0.48610  0.70661  0.05966  1.0000
  H   H449      1.0  0.42905  0.65629  0.09033  1.0000
  C   C459      1.0  0.34611  0.75230  0.43242  1.0000
  H   H450      1.0  0.29785  0.55411  0.46251  1.0000
  H   H451      1.0  0.41644  0.74528  0.40986  1.0000
  C   C460      1.0  0.28337  0.53528  0.24442  1.0000
  H   H452      1.0  0.43264  0.67707  0.13952  1.0000
  H   H453      1.0  0.44238  0.67864  0.39583  1.0000
  S   S159      1.0  0.28933  0.48409  0.04901  1.0000
  C   C461      1.0  0.50072  0.63944  0.42146  1.0000
  H   H454      1.0  0.33134  0.76469  0.32527  1.0000
  C   C462      1.0  0.48001  0.70287  0.09028  1.0000
  H   H455      1.0  0.46164  0.62908  0.40164  1.0000
  N   N39       1.0  0.37489  0.72974  0.47132  1.0000
  H   H456      1.0  0.34114  0.74176  0.29614  1.0000
  C   C463      1.0  0.31610  0.87451  0.02865  1.0000
  C   C464      1.0  0.30286  0.65378  0.00303  1.0000
  C   C465      1.0  0.36686  0.52516  0.06599  1.0000
  C   C466      1.0  0.47029  0.78711  0.09071  1.0000
  H   H457      1.0  0.46408  0.69530  0.14605  1.0000
  C   C467      1.0  0.27350  0.92027  0.11648  1.0000
  C   C468      1.0  0.32282  0.75336  0.30717  1.0000
  C   C469      1.0  0.39784  0.53806  0.02260  1.0000
  C   C470      1.0  0.47955  0.69465  0.41395  1.0000
  H   H458      1.0  0.29625  0.96936  0.38167  1.0000
  H   H459      1.0  0.46780  0.65879  0.13983  1.0000
  H   H460      1.0  0.50279  0.72011  0.05125  1.0000
  H   H461      1.0  0.47609  0.69464  0.01630  1.0000
  H   H462      1.0  0.49496  0.68822  0.29260  1.0000
  H   H463      1.0  0.31189  0.64709  0.02445  1.0000
  C   C471      1.0  0.25535  0.72939  0.34535  1.0000
  C   C472      1.0  0.25738  0.70089  0.34072  1.0000
  H   H464      1.0  0.35634  0.93937  0.42626  1.0000
  N   N40       1.0  0.27315  0.85256  0.99774  1.0000
  H   H465      1.0  0.26187  0.54516  0.13900  1.0000
  C   C473      1.0  0.42975  0.64283  0.46783  1.0000
  H   H466      1.0  0.47699  0.80824  0.30090  1.0000
  S   S160      1.0  0.49783  0.76854  0.00761  1.0000
  Fe  Fe76      1.0  0.49731  0.77072  0.18586  1.0000
  H   H467      1.0  0.41990  0.72407  0.46123  1.0000
  C   C474      1.0  0.26009  0.56749  0.14209  1.0000
  H   H468      1.0  0.25924  0.92556  0.09828  1.0000
  C   C475      1.0  0.30748  0.60505  0.98911  1.0000
  C   C476      1.0  0.30143  0.84600  0.99048  1.0000
  H   H469      1.0  0.34569  0.85171  0.99987  1.0000
  C   C477      1.0  0.26042  0.72614  0.45535  1.0000
  Fe  Fe77      1.0  0.27253  0.49084  0.47853  1.0000
  H   H470      1.0  0.27161  0.48955  0.30426  1.0000
  C   C478      1.0  0.25703  0.55078  0.24553  1.0000
  H   H471      1.0  0.25818  0.77086  0.45838  1.0000
  Fe  Fe78      1.0  0.25436  0.48661  0.01494  1.0000
  C   C479      1.0  0.25562  0.56800  0.33235  1.0000
  C   C480      1.0  0.37126  0.68816  0.76310  1.0000
  S   S161      1.0  0.46627  0.71919  0.69001  1.0000
  S   S162      1.0  0.45264  0.73316  0.61101  1.0000
  H   H472      1.0  0.25520  0.90586  0.85107  1.0000
  S   S163      1.0  0.26176  0.97141  0.55541  1.0000
  S   S164      1.0  0.45842  0.64220  0.71710  1.0000
  H   H473      1.0  0.48731  0.80774  0.77430  1.0000
  Fe  Fe79      1.0  0.29328  0.61661  0.70548  1.0000
  S   S165      1.0  0.30242  0.56983  0.71181  1.0000
  S   S166      1.0  0.32393  0.65123  0.69470  1.0000
  C   C481      1.0  0.46491  0.61929  0.57249  1.0000
  H   H474      1.0  0.36186  0.71767  0.81095  1.0000
  Fe  Fe80      1.0  0.27189  0.57284  0.75206  1.0000
  C   C482      1.0  0.32391  0.67173  0.77835  1.0000
  H   H475      1.0  0.47896  0.56285  0.76025  1.0000
  N   N41       1.0  0.46993  0.62688  0.78758  1.0000
  H   H476      1.0  0.27587  0.59774  0.82866  1.0000
  H   H477      1.0  0.47354  0.71491  0.92695  1.0000
  S   S167      1.0  0.28050  0.90240  0.94540  1.0000
  H   H478      1.0  0.42446  0.88182  0.94819  1.0000
  C   C483      1.0  0.47565  0.64082  0.49280  1.0000
  S   S168      1.0  0.29429  0.94939  0.63236  1.0000
  C   C484      1.0  0.27738  0.52988  0.85614  1.0000
  Fe  Fe81      1.0  0.36350  0.77513  0.77488  1.0000
  S   S169      1.0  0.33508  0.76574  0.73861  1.0000
  S   S170      1.0  0.40707  0.75190  0.76903  1.0000
  Fe  Fe82      1.0  0.32116  0.82268  0.79388  1.0000
  S   S171      1.0  0.29006  0.81581  0.75819  1.0000
  S   S172      1.0  0.31976  0.86416  0.81654  1.0000
  Fe  Fe83      1.0  0.29770  0.76918  0.77132  1.0000
  Fe  Fe84      1.0  0.32908  0.81181  0.72802  1.0000
  S   S173      1.0  0.33574  0.82634  0.67940  1.0000
  S   S174      1.0  0.32697  0.77641  0.80909  1.0000
  S   S175      1.0  0.35978  0.82114  0.76220  1.0000
  Fe  Fe85      1.0  0.45110  0.82224  0.91943  1.0000
  S   S176      1.0  0.46825  0.77750  0.92608  1.0000
  C   C485      1.0  0.29949  0.67150  0.79740  1.0000
  C   C486      1.0  0.29772  0.68824  0.82160  1.0000
  H   H479      1.0  0.33803  0.55227  0.49470  1.0000
  H   H480      1.0  0.49215  0.72493  0.89241  1.0000
  Fe  Fe86      1.0  0.42937  0.82065  0.49421  1.0000
  H   H481      1.0  0.36852  0.68794  0.67829  1.0000
  H   H482      1.0  0.37693  0.66699  0.75547  1.0000
  S   S177      1.0  0.28910  0.93086  0.48663  1.0000
  H   H483      1.0  0.27676  0.82025  0.64158  1.0000
  H   H484      1.0  0.47198  0.61005  0.55196  1.0000
  H   H485      1.0  0.48696  0.61489  0.66548  1.0000
  C   C487      1.0  0.45278  0.91515  0.95004  1.0000
  H   H486      1.0  0.36166  0.60609  0.72222  1.0000
  H   H487      1.0  0.42646  0.63728  0.80199  1.0000
  H   H488      1.0  0.50221  0.70442  0.77868  1.0000
  C   C488      1.0  0.47205  0.60572  0.60000  1.0000
  H   H489      1.0  0.27837  0.68930  0.83573  1.0000
  C   C489      1.0  0.28338  0.89691  0.57393  1.0000
  N   N42       1.0  0.34619  0.68773  0.78369  1.0000
  S   S178      1.0  0.40470  0.83840  0.91684  1.0000
  H   H490      1.0  0.41416  0.60342  0.73094  1.0000
  H   H491      1.0  0.45148  0.60170  0.66981  1.0000
  C   C490      1.0  0.45485  0.94407  0.94918  1.0000
  S   S179      1.0  0.30865  0.75784  0.88831  1.0000
  S   S180      1.0  0.33234  0.96016  0.54867  1.0000
  C   C491      1.0  0.27633  0.57987  0.84472  1.0000
  N   N43       1.0  0.40187  0.92183  0.94311  1.0000
  C   C492      1.0  0.29691  0.73570  0.68412  1.0000
  S   S181      1.0  0.48615  0.83504  0.88640  1.0000
  H   H492      1.0  0.32471  0.65942  0.75898  1.0000
  C   C493      1.0  0.26205  0.53177  0.61248  1.0000
  C   C494      1.0  0.27698  0.52308  0.55177  1.0000
  C   C495      1.0  0.37713  0.71747  0.50195  1.0000
  C   C496      1.0  0.27784  0.53375  0.88692  1.0000
  H   H493      1.0  0.28634  0.75329  0.69605  1.0000
  H   H494      1.0  0.30977  0.72189  0.70020  1.0000
  H   H495      1.0  0.30719  0.83286  0.97227  1.0000
  Fe  Fe87      1.0  0.48683  0.67623  0.69732  1.0000
  H   H496      1.0  0.35864  0.70446  0.50813  1.0000
  H   H497      1.0  0.47709  0.79465  0.67422  1.0000
  H   H498      1.0  0.44811  0.67820  0.48520  1.0000
  Fe  Fe88      1.0  0.26324  0.56742  0.68399  1.0000
  H   H499      1.0  0.44108  0.59539  0.78046  1.0000
  S   S182      1.0  0.27215  0.73033  0.76374  1.0000
  H   H500      1.0  0.49880  0.71979  0.97016  1.0000
  C   C497      1.0  0.35607  0.82158  0.52752  1.0000
  C   C498      1.0  0.34432  0.84483  0.51064  1.0000
  C   C499      1.0  0.31452  0.85185  0.51256  1.0000
  C   C500      1.0  0.29614  0.83551  0.53101  1.0000
  C   C501      1.0  0.30786  0.81177  0.54712  1.0000
  C   C502      1.0  0.33766  0.80509  0.54568  1.0000
  C   C503      1.0  0.45076  0.65597  0.48244  1.0000
  Fe  Fe89      1.0  0.49471  0.83201  0.48587  1.0000
  H   H501      1.0  0.29418  0.79897  0.56141  1.0000
  Fe  Fe90      1.0  0.29960  0.96912  0.58524  1.0000
  C   C504      1.0  0.37859  0.81429  0.91209  1.0000
  C   C505      1.0  0.38606  0.78835  0.90068  1.0000
  C   C506      1.0  0.36442  0.77094  0.89384  1.0000
  C   C507      1.0  0.33534  0.77914  0.89894  1.0000
  C   C508      1.0  0.32804  0.80431  0.91184  1.0000
  C   C509      1.0  0.34955  0.82214  0.91787  1.0000
  S   S183      1.0  0.27582  0.54620  0.79630  1.0000
  H   H502      1.0  0.36660  0.70289  0.74345  1.0000
  H   H503      1.0  0.30571  0.81014  0.91657  1.0000
  H   H504      1.0  0.34363  0.84222  0.92658  1.0000
  C   C510      1.0  0.43475  0.73448  0.79044  1.0000
  C   C511      1.0  0.46010  0.72539  0.77538  1.0000
  C   C512      1.0  0.48290  0.71123  0.79079  1.0000
  C   C513      1.0  0.48079  0.70622  0.82165  1.0000
  C   C514      1.0  0.45516  0.71491  0.83684  1.0000
  C   C515      1.0  0.43222  0.72908  0.82134  1.0000
  H   H505      1.0  0.46237  0.72971  0.75160  1.0000
  Fe  Fe91      1.0  0.48564  0.71784  0.64410  1.0000
  H   H506      1.0  0.45301  0.71066  0.86069  1.0000
  H   H507      1.0  0.41273  0.73573  0.83331  1.0000
  C   C516      1.0  0.30950  0.91659  0.64637  1.0000
  C   C517      1.0  0.32856  0.90007  0.62925  1.0000
  C   C518      1.0  0.33723  0.87266  0.63998  1.0000
  C   C519      1.0  0.32736  0.86183  0.66808  1.0000
  C   C520      1.0  0.30948  0.87883  0.68578  1.0000
  C   C521      1.0  0.30053  0.90606  0.67489  1.0000
  H   H508      1.0  0.33610  0.90815  0.60750  1.0000
  H   H509      1.0  0.35123  0.85967  0.62624  1.0000
  H   H510      1.0  0.30181  0.87070  0.70746  1.0000
  H   H511      1.0  0.28596  0.91879  0.68835  1.0000
  C   C522      1.0  0.29193  0.89248  0.90947  1.0000
  C   C523      1.0  0.30587  0.91050  0.88871  1.0000
  C   C524      1.0  0.31392  0.90162  0.86021  1.0000
  C   C525      1.0  0.30885  0.87444  0.85249  1.0000
  C   C526      1.0  0.29496  0.85656  0.87324  1.0000
  C   C527      1.0  0.28609  0.86571  0.90138  1.0000
  H   H512      1.0  0.31000  0.93139  0.89439  1.0000
  H   H513      1.0  0.32415  0.91591  0.84404  1.0000
  H   H514      1.0  0.29102  0.83567  0.86750  1.0000
  H   H515      1.0  0.31891  0.71825  0.84499  1.0000
  C   C528      1.0  0.27663  0.55281  0.83479  1.0000
  C   C529      1.0  0.27756  0.56071  0.89689  1.0000
  S   S184      1.0  0.39363  0.81395  0.52946  1.0000
  C   C530      1.0  0.44741  0.64689  0.79804  1.0000
  H   H516      1.0  0.31975  0.59626  0.96993  1.0000
  H   H517      1.0  0.47192  0.90124  0.95298  1.0000
  H   H518      1.0  0.49630  0.80418  0.82894  1.0000
  H   H519      1.0  0.28306  0.62758  0.94018  1.0000
  S   S185      1.0  0.47282  0.83659  0.95870  1.0000
  C   C531      1.0  0.40364  0.95025  0.94266  1.0000
  C   C532      1.0  0.47086  0.60308  0.65479  1.0000
  C   C533      1.0  0.47994  0.61228  0.48843  1.0000
  C   C534      1.0  0.45867  0.72709  0.57337  1.0000
  C   C535      1.0  0.43872  0.73912  0.55315  1.0000
  C   C536      1.0  0.44455  0.73846  0.52258  1.0000
  H   H520      1.0  0.27718  0.74285  0.62908  1.0000
  H   H521      1.0  0.41952  0.75057  0.56099  1.0000
  H   H522      1.0  0.43014  0.74996  0.50721  1.0000
  H   H523      1.0  0.38454  0.96423  0.94014  1.0000
  C   C537      1.0  0.28135  0.54885  0.59653  1.0000
  C   C538      1.0  0.42116  0.64434  0.70985  1.0000
  C   C539      1.0  0.40803  0.66796  0.69475  1.0000
  C   C540      1.0  0.37840  0.66939  0.68974  1.0000
  C   C541      1.0  0.36144  0.64722  0.69969  1.0000
  C   C542      1.0  0.37451  0.62336  0.71450  1.0000
  C   C543      1.0  0.40426  0.62197  0.71956  1.0000
  H   H524      1.0  0.42054  0.68529  0.68691  1.0000
  H   H525      1.0  0.49210  0.68860  0.90553  1.0000
  H   H526      1.0  0.30227  0.88486  0.56448  1.0000
  S   S186      1.0  0.27768  0.56673  0.93558  1.0000
  C   C544      1.0  0.37402  0.90981  0.94026  1.0000
  H   H527      1.0  0.29081  0.56524  0.60746  1.0000
  H   H528      1.0  0.34654  0.78720  0.55904  1.0000
  H   H529      1.0  0.30585  0.87052  0.50040  1.0000
  H   H530      1.0  0.26820  0.69491  0.71151  1.0000
  C   C545      1.0  0.50172  0.79130  0.78385  1.0000
  C   C546      1.0  0.32042  0.70467  0.82666  1.0000
  H   H531      1.0  0.29596  0.84408  0.59518  1.0000
  C   C547      1.0  0.27836  0.67113  0.94911  1.0000
  C   C548      1.0  0.26908  0.84149  0.63480  1.0000
  C   C549      1.0  0.25731  0.50629  0.56757  1.0000
  S   S187      1.0  0.28622  0.48693  0.97563  1.0000
  C   C550      1.0  0.27677  0.58375  0.87557  1.0000
  Fe  Fe92      1.0  0.28791  0.94171  0.96911  1.0000
  N   N44       1.0  0.39819  0.85222  0.84055  1.0000
  C   C551      1.0  0.38556  0.82753  0.83820  1.0000
  C   C552      1.0  0.42525  0.85591  0.82885  1.0000
  C   C553      1.0  0.40069  0.80524  0.82503  1.0000
  C   C554      1.0  0.44071  0.83431  0.81497  1.0000
  C   C555      1.0  0.42842  0.80872  0.81328  1.0000
  C   C556      1.0  0.38227  0.87551  0.85426  1.0000
  H   H532      1.0  0.36377  0.82486  0.84686  1.0000
  H   H533      1.0  0.43502  0.87566  0.83022  1.0000
  H   H534      1.0  0.39087  0.78551  0.82372  1.0000
  H   H535      1.0  0.46205  0.83755  0.80565  1.0000
  H   H536      1.0  0.44025  0.79168  0.80268  1.0000
  H   H537      1.0  0.39677  0.88747  0.86682  1.0000
  H   H538      1.0  0.37168  0.88950  0.83670  1.0000
  H   H539      1.0  0.36565  0.86767  0.87055  1.0000
  N   N45       1.0  0.46340  0.61734  0.62600  1.0000
  C   C557      1.0  0.44830  0.64275  0.62540  1.0000
  H   H540      1.0  0.27654  0.60473  0.88294  1.0000
  C   C558      1.0  0.44134  0.65718  0.59829  1.0000
  C   C559      1.0  0.42593  0.90433  0.94714  1.0000
  C   C560      1.0  0.44973  0.64534  0.57167  1.0000
  H   H541      1.0  0.37021  0.75130  0.88410  1.0000
  H   H542      1.0  0.44213  0.65225  0.64599  1.0000
  H   H543      1.0  0.42990  0.67761  0.59800  1.0000
  H   H544      1.0  0.40838  0.78220  0.89599  1.0000
  H   H545      1.0  0.44493  0.65655  0.55046  1.0000
  C   C561      1.0  0.48341  0.71218  0.56303  1.0000
  C   C562      1.0  0.28677  0.64295  0.95598  1.0000
  H   H546      1.0  0.39049  0.69492  0.77379  1.0000
  C   C563      1.0  0.43016  0.96177  0.94549  1.0000
  C   C564      1.0  0.46315  0.60129  0.77915  1.0000
  Fe  Fe93      1.0  0.29492  0.96576  0.51789  1.0000
  N   N46       1.0  0.27490  0.72011  0.67140  1.0000
  C   C565      1.0  0.48906  0.71121  0.53217  1.0000
  S   S188      1.0  0.47037  0.79882  0.51046  1.0000
  H   H547      1.0  0.49183  0.65148  0.50344  1.0000
  H   H548      1.0  0.27762  0.50886  0.84881  1.0000
  H   H549      1.0  0.35731  0.92580  0.93209  1.0000
  C   C566      1.0  0.34459  0.70429  0.80729  1.0000
  S   S189      1.0  0.25923  0.84668  0.53530  1.0000
  Fe  Fe94      1.0  0.28163  0.53375  0.97531  1.0000
  H   H550      1.0  0.39689  0.70338  0.50446  1.0000
  C   C567      1.0  0.26679  0.72667  0.64275  1.0000
  H   H551      1.0  0.31202  0.74428  0.66668  1.0000
  H   H552      1.0  0.30387  0.55773  0.55443  1.0000
  H   H553      1.0  0.45358  0.65501  0.81927  1.0000
  S   S190      1.0  0.26528  0.61958  0.74710  1.0000
  H   H554      1.0  0.25830  0.82437  0.96750  1.0000
  C   C568      1.0  0.28880  0.54444  0.56643  1.0000
  H   H555      1.0  0.26799  0.67764  0.92835  1.0000
  C   C569      1.0  0.49289  0.71023  0.91267  1.0000
  H   H556      1.0  0.37588  0.89321  0.92417  1.0000
  Fe  Fe95      1.0  0.49225  0.79285  0.96333  1.0000
  C   C570      1.0  0.48445  0.58284  0.76755  1.0000
  C   C571      1.0  0.27983  0.85509  0.60859  1.0000
  C   C572      1.0  0.47015  0.72544  0.51204  1.0000
  H   H557      1.0  0.27475  0.85183  0.91700  1.0000
  H   H558      1.0  0.48051  0.58156  0.65241  1.0000
  N   N47       1.0  0.41636  0.79308  0.63571  1.0000
  C   C573      1.0  0.44467  0.79600  0.64101  1.0000
  C   C574      1.0  0.39729  0.78747  0.65886  1.0000
  C   C575      1.0  0.45459  0.79279  0.67008  1.0000
  C   C576      1.0  0.40646  0.78418  0.68821  1.0000
  C   C577      1.0  0.43532  0.78676  0.69380  1.0000
  C   C578      1.0  0.40602  0.79702  0.60526  1.0000
  H   H559      1.0  0.45981  0.80028  0.62266  1.0000
  H   H560      1.0  0.37479  0.78561  0.65469  1.0000
  H   H561      1.0  0.39131  0.77974  0.70652  1.0000
  H   H562      1.0  0.44279  0.78380  0.71646  1.0000
  H   H563      1.0  0.39125  0.78058  0.60103  1.0000
  H   H564      1.0  0.39454  0.81792  0.60162  1.0000
  H   H565      1.0  0.42392  0.79536  0.58830  1.0000
  S   S191      1.0  0.28723  0.51877  0.51368  1.0000
  H   H566      1.0  0.44462  0.66474  0.78100  1.0000
  H   H567      1.0  0.37769  0.73439  0.51752  1.0000
  C   C579      1.0  0.26145  0.70011  0.68892  1.0000
  H   H568      1.0  0.29090  0.91734  0.57934  1.0000
  H   H569      1.0  0.47555  0.95271  0.95152  1.0000
  Fe  Fe96      1.0  0.26149  0.77256  0.88983  1.0000
  H   H570      1.0  0.50304  0.65495  0.79126  1.0000
  H   H571      1.0  0.27839  0.51580  0.90291  1.0000
  C   C580      1.0  0.28246  0.69079  0.96969  1.0000
  H   H572      1.0  0.48497  0.58609  0.60039  1.0000
  H   H573      1.0  0.49882  0.70263  0.57861  1.0000
  H   H574      1.0  0.34728  0.51634  0.48767  1.0000
  H   H575      1.0  0.28151  0.65947  0.79267  1.0000
  H   H576      1.0  0.36651  0.90041  0.96220  1.0000
  H   H577      1.0  0.35832  0.85818  0.49733  1.0000
  C   C581      1.0  0.49765  0.63465  0.78492  1.0000
  S   S192      1.0  0.25605  0.61406  0.67516  1.0000
  H   H578      1.0  0.27544  0.71260  0.96484  1.0000
  N   N48       1.0  0.27109  0.88229  0.60072  1.0000
  H   H579      1.0  0.37362  0.54267  0.48118  1.0000
  H   H580      1.0  0.25500  0.78324  0.72629  1.0000
  H   H581      1.0  0.26713  0.90043  0.55650  1.0000
  H   H582      1.0  0.25502  0.88013  0.80546  1.0000
  C   C582      1.0  0.35065  0.53836  0.47955  1.0000
  Fe  Fe97      1.0  0.72300  0.45497  0.46303  1.0000
  H   H583      1.0  0.56306  0.21200  0.04654  1.0000
  H   H584      1.0  0.51823  0.25539  0.12613  1.0000
  S   S193      1.0  0.70269  0.43989  0.05790  1.0000
  H   H585      1.0  0.73231  0.05928  0.04810  1.0000
  H   H586      1.0  0.73769  0.36560  0.38083  1.0000
  H   H587      1.0  0.62452  0.30775  0.02058  1.0000
  C   C583      1.0  0.51441  0.33081  0.27460  1.0000
  S   S194      1.0  0.52696  0.35150  0.44013  1.0000
  Fe  Fe98      1.0  0.74102  0.46164  0.03503  1.0000
  Fe  Fe99      1.0  0.55739  0.35414  0.39997  1.0000
  S   S195      1.0  0.60261  0.37050  0.39409  1.0000
  S   S196      1.0  0.54951  0.31063  0.38636  1.0000
  Fe  Fe100     1.0  0.55046  0.37017  0.06711  1.0000
  S   S197      1.0  0.56481  0.33151  0.09467  1.0000
  S   S198      1.0  0.58012  0.39434  0.03434  1.0000
  Fe  Fe101     1.0  0.52769  0.31123  0.07586  1.0000
  S   S199      1.0  0.54030  0.26642  0.06223  1.0000
  Fe  Fe102     1.0  0.53390  0.34660  0.13078  1.0000
  S   S200      1.0  0.55090  0.34669  0.17814  1.0000
  Fe  Fe103     1.0  0.51453  0.33230  0.35819  1.0000
  S   S201      1.0  0.52219  0.38713  0.10416  1.0000
  H   H588      1.0  0.57156  0.35762  0.23526  1.0000
  H   H589      1.0  0.51562  0.45276  0.08867  1.0000
  C   C584      1.0  0.58290  0.27960  0.99395  1.0000
  C   C585      1.0  0.53177  0.24504  0.03300  1.0000
  C   C586      1.0  0.54698  0.21890  0.03050  1.0000
  C   C587      1.0  0.68115  0.34891  0.46580  1.0000
  N   N49       1.0  0.58314  0.30620  0.00305  1.0000
  H   H590      1.0  0.56842  0.26949  0.12052  1.0000
  H   H591      1.0  0.59583  0.38475  0.45660  1.0000
  H   H592      1.0  0.58598  0.30070  0.21546  1.0000
  H   H593      1.0  0.68598  0.32695  0.47448  1.0000
  H   H594      1.0  0.74802  0.47647  0.14784  1.0000
  C   C588      1.0  0.53505  0.34235  0.21483  1.0000
  Fe  Fe104     1.0  0.51699  0.30927  0.42506  1.0000
  H   H595      1.0  0.51180  0.41578  0.28272  1.0000
  C   C589      1.0  0.50580  0.23607  0.98884  1.0000
  H   H596      1.0  0.66260  0.34954  0.45089  1.0000
  C   C590      1.0  0.55582  0.46536  0.06805  1.0000
  S   S202      1.0  0.71652  0.01422  0.01399  1.0000
  C   C591      1.0  0.66915  0.42665  0.05022  1.0000
  C   C592      1.0  0.65298  0.41406  0.07399  1.0000
  C   C593      1.0  0.62592  0.40375  0.06949  1.0000
  C   C594      1.0  0.61463  0.40597  0.04104  1.0000
  C   C595      1.0  0.63072  0.41862  0.01724  1.0000
  C   C596      1.0  0.65782  0.42894  0.02176  1.0000
  H   H597      1.0  0.66151  0.41215  0.09611  1.0000
  H   H598      1.0  0.61384  0.39415  0.08806  1.0000
  H   H599      1.0  0.62219  0.42051  0.99513  1.0000
  H   H600      1.0  0.66993  0.43860  0.00325  1.0000
  C   C597      1.0  0.62282  0.39008  0.41706  1.0000
  C   C598      1.0  0.64832  0.40126  0.40511  1.0000
  C   C599      1.0  0.66638  0.41506  0.42294  1.0000
  C   C600      1.0  0.65939  0.41742  0.45316  1.0000
  S   S203      1.0  0.74930  0.45015  0.42114  1.0000
  C   C601      1.0  0.61531  0.39332  0.44706  1.0000
  H   H601      1.0  0.65429  0.39896  0.38191  1.0000
  H   H602      1.0  0.68611  0.42314  0.41347  1.0000
  H   H603      1.0  0.72129  0.47325  0.10214  1.0000
  C   C602      1.0  0.54062  0.34316  0.26891  1.0000
  C   C603      1.0  0.55091  0.34869  0.23927  1.0000
  C   C604      1.0  0.60157  0.31151  0.02743  1.0000
  C   C605      1.0  0.72708  0.37114  0.46562  1.0000
  H   H604      1.0  0.74369  0.06965  0.99461  1.0000
  H   H605      1.0  0.55382  0.18163  0.00584  1.0000
  C   C606      1.0  0.71031  0.35759  0.41994  1.0000
  H   H606      1.0  0.65725  0.03166  0.02466  1.0000
  H   H607      1.0  0.59340  0.28285  0.16455  1.0000
  C   C607      1.0  0.52939  0.26078  0.14550  1.0000
  C   C608      1.0  0.57370  0.28172  0.22076  1.0000
  S   S204      1.0  0.52392  0.37545  0.36981  1.0000
  C   C609      1.0  0.56664  0.32760  0.98936  1.0000
  C   C610      1.0  0.57164  0.27611  0.16729  1.0000
  C   C611      1.0  0.55762  0.26876  0.14232  1.0000
  C   C612      1.0  0.69103  0.03316  0.99061  1.0000
  H   H608      1.0  0.59845  0.33347  0.03396  1.0000
  C   C613      1.0  0.64195  0.05392  0.98439  1.0000
  H   H609      1.0  0.59648  0.29742  0.04737  1.0000
  H   H610      1.0  0.69389  0.34892  0.40750  1.0000
  C   C614      1.0  0.53087  0.46901  0.08599  1.0000
  H   H611      1.0  0.55322  0.34803  0.28736  1.0000
  C   C615      1.0  0.54176  0.20153  0.00737  1.0000
  C   C616      1.0  0.52112  0.20998  0.98625  1.0000
  H   H612      1.0  0.59547  0.26252  0.00526  1.0000
  H   H613      1.0  0.61716  0.46793  0.05826  1.0000
  H   H614      1.0  0.55972  0.44601  0.05704  1.0000
  C   C617      1.0  0.63358  0.40680  0.46502  1.0000
  C   C618      1.0  0.66291  0.03888  0.00200  1.0000
  H   H615      1.0  0.66118  0.47799  0.08819  1.0000
  H   H616      1.0  0.58876  0.26379  0.22763  1.0000
  N   N50       1.0  0.55798  0.27526  0.19475  1.0000
  H   H617      1.0  0.55889  0.28638  0.23998  1.0000
  H   H618      1.0  0.62047  0.05822  0.99354  1.0000
  S   S205      1.0  0.51454  0.34948  0.04643  1.0000
  C   C619      1.0  0.73501  0.36696  0.40473  1.0000
  N   N51       1.0  0.70656  0.35990  0.44998  1.0000
  H   H619      1.0  0.51939  0.26680  0.21987  1.0000
  C   C620      1.0  0.51552  0.26017  0.17354  1.0000
  H   H620      1.0  0.56683  0.34874  0.99653  1.0000
  C   C621      1.0  0.50846  0.33072  0.22052  1.0000
  C   C622      1.0  0.53031  0.26730  0.19813  1.0000
  H   H621      1.0  0.59617  0.47107  0.02525  1.0000
  H   H622      1.0  0.56210  0.26095  0.47727  1.0000
  H   H623      1.0  0.50713  0.44717  0.32467  1.0000
  S   S206      1.0  0.68346  0.43085  0.47751  1.0000
  C   C623      1.0  0.51103  0.25345  0.01197  1.0000
  C   C624      1.0  0.75216  0.38046  0.45117  1.0000
  C   C625      1.0  0.75356  0.06564  0.04092  1.0000
  S   S207      1.0  0.50499  0.14446  0.61896  1.0000
  C   C626      1.0  0.64054  0.11957  0.51724  1.0000
  S   S208      1.0  0.72145  0.01801  0.54615  1.0000
  Fe  Fe105     1.0  0.57401  0.09401  0.61805  1.0000
  S   S209      1.0  0.57369  0.13952  0.62725  1.0000
  S   S210      1.0  0.61744  0.06969  0.62601  1.0000
  Fe  Fe106     1.0  0.54431  0.14752  0.58839  1.0000
  S   S211      1.0  0.55933  0.18230  0.55417  1.0000
  Fe  Fe107     1.0  0.53469  0.13236  0.65694  1.0000
  S   S212      1.0  0.52570  0.15091  0.70246  1.0000
  S   S213      1.0  0.54607  0.10181  0.57804  1.0000
  S   S214      1.0  0.53636  0.08661  0.65008  1.0000
  Fe  Fe108     1.0  0.57575  0.09697  0.93531  1.0000
  S   S215      1.0  0.56399  0.13548  0.90533  1.0000
  S   S216      1.0  0.62379  0.08317  0.93185  1.0000
  Fe  Fe109     1.0  0.52948  0.14570  0.94043  1.0000
  H   H624      1.0  0.62830  0.07206  0.85834  1.0000
  Fe  Fe110     1.0  0.53235  0.10926  0.88527  1.0000
  C   C627      1.0  0.62765  0.13900  0.56422  1.0000
  C   C628      1.0  0.54123  0.09656  0.77558  1.0000
  S   S217      1.0  0.54495  0.07058  0.91454  1.0000
  C   C629      1.0  0.52333  0.15257  0.76374  1.0000
  H   H625      1.0  0.56145  0.04279  0.83843  1.0000
  S   S218      1.0  0.51388  0.18931  0.95597  1.0000
  C   C630      1.0  0.53064  0.13602  0.73960  1.0000
  C   C631      1.0  0.54900  0.32251  0.96612  1.0000
  C   C632      1.0  0.56502  0.00431  0.86583  1.0000
  C   C633      1.0  0.53357  0.11302  0.79971  1.0000
  H   H626      1.0  0.53478  0.29103  0.93898  1.0000
  H   H627      1.0  0.54564  0.09491  0.72755  1.0000
  S   S219      1.0  0.53329  0.09658  0.83665  1.0000
  C   C634      1.0  0.67709  0.05785  0.94375  1.0000
  H   H628      1.0  0.54651  0.99586  0.85663  1.0000
  H   H629      1.0  0.72390  0.37342  0.48934  1.0000
  C   C635      1.0  0.54284  0.20749  0.52768  1.0000
  C   C636      1.0  0.67007  0.10930  0.55997  1.0000
  C   C637      1.0  0.64898  0.06369  0.95518  1.0000
  C   C638      1.0  0.57364  0.03082  0.85555  1.0000
  C   C639      1.0  0.69228  0.03058  0.56930  1.0000
  C   C640      1.0  0.66578  0.03874  0.55631  1.0000
  C   C641      1.0  0.64243  0.05027  0.57330  1.0000
  C   C642      1.0  0.64534  0.05381  0.60359  1.0000
  C   C643      1.0  0.67167  0.04514  0.61668  1.0000
  C   C644      1.0  0.69500  0.03362  0.59970  1.0000
  H   H630      1.0  0.66333  0.03636  0.53284  1.0000
  H   H631      1.0  0.62230  0.05663  0.56292  1.0000
  H   H632      1.0  0.67414  0.04758  0.64013  1.0000
  H   H633      1.0  0.71517  0.02744  0.61007  1.0000
  C   C645      1.0  0.67373  0.48010  0.52955  1.0000
  H   H634      1.0  0.66942  0.10947  0.61799  1.0000
  H   H635      1.0  0.68280  0.06534  0.92119  1.0000
  H   H636      1.0  0.63603  0.11700  0.49417  1.0000
  C   C646      1.0  0.66497  0.10616  0.53000  1.0000
  C   C647      1.0  0.62183  0.13625  0.53437  1.0000
  Fe  Fe111     1.0  0.50799  0.09838  0.61096  1.0000
  H   H637      1.0  0.60277  0.14694  0.52474  1.0000
  H   H638      1.0  0.63648  0.12959  0.62170  1.0000
  H   H639      1.0  0.71946  0.03835  0.95212  1.0000
  C   C648      1.0  0.53997  0.10796  0.74578  1.0000
  H   H640      1.0  0.67957  0.09285  0.51707  1.0000
  C   C649      1.0  0.58017  0.98899  0.88832  1.0000
  N   N52       1.0  0.59686  0.04169  0.86718  1.0000
  H   H641      1.0  0.68873  0.09819  0.56991  1.0000
  H   H642      1.0  0.62967  0.03578  0.89913  1.0000
  C   C650      1.0  0.69799  0.04263  0.96128  1.0000
  H   H643      1.0  0.67493  0.45863  0.53901  1.0000
  H   H644      1.0  0.59858  0.07567  0.83373  1.0000
  H   H645      1.0  0.59361  0.08547  0.87146  1.0000
  H   H646      1.0  0.56525  0.25260  0.96377  1.0000
  H   H647      1.0  0.61521  0.98886  0.91817  1.0000
  N   N53       1.0  0.65118  0.12509  0.57682  1.0000
  C   C651      1.0  0.65689  0.12816  0.60818  1.0000
  H   H648      1.0  0.53560  0.33945  0.95565  1.0000
  H   H649      1.0  0.66875  0.14720  0.61030  1.0000
  C   C652      1.0  0.56019  0.22646  0.51108  1.0000
  H   H650      1.0  0.64090  0.47296  0.49934  1.0000
  C   C653      1.0  0.60480  0.07002  0.85710  1.0000
  C   C654      1.0  0.61166  0.02693  0.88945  1.0000
  C   C655      1.0  0.52490  0.14124  0.79356  1.0000
  H   H651      1.0  0.51612  0.17430  0.75933  1.0000
  H   H652      1.0  0.51886  0.15424  0.81173  1.0000
  H   H653      1.0  0.61307  0.15222  0.57722  1.0000
  C   C656      1.0  0.51335  0.20906  0.52250  1.0000
  S   S220      1.0  0.54339  0.10897  0.97162  1.0000
  C   C657      1.0  0.60359  0.00038  0.90032  1.0000
  C   C658      1.0  0.56583  0.27385  0.97052  1.0000
  H   H654      1.0  0.58300  0.22557  0.51478  1.0000
  H   H655      1.0  0.54795  0.07471  0.77990  1.0000
  C   C659      1.0  0.54837  0.24664  0.48973  1.0000
  C   C660      1.0  0.54861  0.29543  0.95671  1.0000
  H   H656      1.0  0.68007  0.99390  0.93650  1.0000
  Fe  Fe112     1.0  0.51144  0.08552  0.94779  1.0000
  C   C661      1.0  0.51889  0.24815  0.48450  1.0000
  H   H657      1.0  0.62796  0.40841  0.48839  1.0000
  H   H658      1.0  0.67421  0.36181  0.48466  1.0000
  C   C662      1.0  0.53756  0.86553  0.42306  1.0000
  H   H659      1.0  0.51529  0.81613  0.25112  1.0000
  Fe  Fe113     1.0  0.56558  0.72092  0.36688  1.0000
  S   S221      1.0  0.58674  0.72547  0.32188  1.0000
  H   H660      1.0  0.71227  0.75751  0.19977  1.0000
  Fe  Fe114     1.0  0.56463  0.76806  0.31853  1.0000
  S   S222      1.0  0.58922  0.80705  0.30551  1.0000
  C   C663      1.0  0.71494  0.50305  0.16827  1.0000
  C   C664      1.0  0.58035  0.63162  0.98263  1.0000
  S   S223      1.0  0.54534  0.76455  0.36504  1.0000
  H   H661      1.0  0.50851  0.61772  0.42507  1.0000
  C   C665      1.0  0.56229  0.84962  0.43171  1.0000
  H   H662      1.0  0.63267  0.76048  0.31090  1.0000
  H   H663      1.0  0.63057  0.68485  0.30169  1.0000
  C   C666      1.0  0.71537  0.61994  0.46347  1.0000
  H   H664      1.0  0.73298  0.78582  0.12846  1.0000
  H   H665      1.0  0.72138  0.58617  0.28950  1.0000
  S   S224      1.0  0.72644  0.80072  0.30106  1.0000
  S   S225      1.0  0.68679  0.64209  0.24310  1.0000
  H   H666      1.0  0.68048  0.72652  0.46230  1.0000
  Fe  Fe115     1.0  0.68237  0.68837  0.23173  1.0000
  S   S226      1.0  0.64249  0.71293  0.24671  1.0000
  S   S227      1.0  0.72160  0.69653  0.25549  1.0000
  H   H667      1.0  0.75298  0.61437  0.36976  1.0000
  S   S228      1.0  0.73713  0.62628  0.43095  1.0000
  H   H668      1.0  0.73101  0.75370  0.15126  1.0000
  S   S229      1.0  0.54220  0.76419  0.16538  1.0000
  H   H669      1.0  0.75362  0.82664  0.15623  1.0000
  C   C667      1.0  0.73770  0.54845  0.35478  1.0000
  C   C668      1.0  0.55226  0.64784  0.22595  1.0000
  Fe  Fe116     1.0  0.54048  0.63965  0.11425  1.0000
  S   S230      1.0  0.55004  0.59432  0.12818  1.0000
  S   S231      1.0  0.52817  0.67537  0.14284  1.0000
  Fe  Fe117     1.0  0.53863  0.62915  0.04852  1.0000
  S   S232      1.0  0.52662  0.64926  0.00372  1.0000
  Fe  Fe118     1.0  0.51660  0.58618  0.09577  1.0000
  Fe  Fe119     1.0  0.58050  0.59523  0.08810  1.0000
  S   S233      1.0  0.57377  0.64154  0.07669  1.0000
  H   H670      1.0  0.51707  0.70925  0.24256  1.0000
  H   H671      1.0  0.68349  0.84852  0.29582  1.0000
  H   H672      1.0  0.62893  0.65197  0.28618  1.0000
  S   S234      1.0  0.62248  0.56919  0.08777  1.0000
  C   C669      1.0  0.73213  0.71662  0.04281  1.0000
  C   C670      1.0  0.67076  0.49857  0.08826  1.0000
  H   H673      1.0  0.68563  0.75887  0.30924  1.0000
  N   N54       1.0  0.73305  0.79073  0.17519  1.0000
  N   N55       1.0  0.68581  0.50009  0.11600  1.0000
  H   H674      1.0  0.67907  0.97439  0.98914  1.0000
  C   C671      1.0  0.65470  0.58576  0.07834  1.0000
  C   C672      1.0  0.66253  0.60897  0.09283  1.0000
  C   C673      1.0  0.69079  0.61814  0.08903  1.0000
  C   C674      1.0  0.71093  0.60426  0.07044  1.0000
  C   C675      1.0  0.70229  0.58234  0.05457  1.0000
  C   C676      1.0  0.67456  0.57288  0.05884  1.0000
  H   H675      1.0  0.64751  0.61837  0.10857  1.0000
  H   H676      1.0  0.69765  0.63462  0.10175  1.0000
  H   H677      1.0  0.71766  0.57149  0.04024  1.0000
  H   H678      1.0  0.66879  0.55503  0.04749  1.0000
  H   H679      1.0  0.55726  0.73740  0.42935  1.0000
  S   S235      1.0  0.52682  0.70215  0.35085  1.0000
  C   C677      1.0  0.71171  0.48546  0.11972  1.0000
  H   H680      1.0  0.58561  0.52627  0.07612  1.0000
  H   H681      1.0  0.68603  0.50086  0.06879  1.0000
  H   H682      1.0  0.64349  0.53869  0.45342  1.0000
  C   C678      1.0  0.73513  0.83345  0.19971  1.0000
  H   H683      1.0  0.71527  0.83364  0.24376  1.0000
  C   C679      1.0  0.67376  0.51557  0.13816  1.0000
  H   H684      1.0  0.52770  0.82678  0.33940  1.0000
  H   H685      1.0  0.70998  0.70030  0.00708  1.0000
  H   H686      1.0  0.57947  0.82026  0.36655  1.0000
  H   H687      1.0  0.73180  0.69733  0.05678  1.0000
  N   N56       1.0  0.51589  0.66030  0.43123  1.0000
  C   C680      1.0  0.57015  0.74973  0.18770  1.0000
  C   C681      1.0  0.56521  0.74341  0.21802  1.0000
  C   C682      1.0  0.58746  0.73130  0.23554  1.0000
  C   C683      1.0  0.61495  0.72574  0.22298  1.0000
  C   C684      1.0  0.62021  0.73248  0.19262  1.0000
  C   C685      1.0  0.59781  0.74472  0.17504  1.0000
  H   H688      1.0  0.54414  0.74784  0.22795  1.0000
  H   H689      1.0  0.58325  0.72611  0.25892  1.0000
  H   H690      1.0  0.64153  0.72876  0.18284  1.0000
  H   H691      1.0  0.60182  0.75018  0.15160  1.0000
  C   C686      1.0  0.53148  0.84375  0.21536  1.0000
  S   S236      1.0  0.54770  0.58292  0.05683  1.0000
  H   H692      1.0  0.54396  0.63205  0.45692  1.0000
  H   H693      1.0  0.67676  0.63662  0.44209  1.0000
  C   C687      1.0  0.73743  0.55029  0.11395  1.0000
  C   C688      1.0  0.71846  0.56761  0.13058  1.0000
  H   H694      1.0  0.72936  0.53851  0.09684  1.0000
  H   H695      1.0  0.69579  0.56859  0.12642  1.0000
  H   H696      1.0  0.54601  0.66814  0.46348  1.0000
  H   H697      1.0  0.54394  0.72071  0.99655  1.0000
  C   C689      1.0  0.56495  0.72765  0.47602  1.0000
  C   C690      1.0  0.55534  0.85023  0.19716  1.0000
  C   C691      1.0  0.73222  0.76635  0.00638  1.0000
  C   C692      1.0  0.71954  0.74330  0.99607  1.0000
  C   C693      1.0  0.54234  0.67021  0.24282  1.0000
  S   S237      1.0  0.55148  0.66989  0.28038  1.0000
  C   C694      1.0  0.56761  0.83308  0.38233  1.0000
  C   C695      1.0  0.53145  0.67153  0.18173  1.0000
  C   C696      1.0  0.52034  0.69316  0.19895  1.0000
  C   C697      1.0  0.52544  0.69232  0.22952  1.0000
  S   S238      1.0  0.74767  0.61144  0.06773  1.0000
  H   H698      1.0  0.62914  0.50490  0.45750  1.0000
  C   C698      1.0  0.59259  0.70660  0.43575  1.0000
  C   C699      1.0  0.57065  0.72546  0.44537  1.0000
  H   H699      1.0  0.54196  0.53354  0.10820  1.0000
  H   H700      1.0  0.56132  0.65528  0.42922  1.0000
  N   N57       1.0  0.57492  0.48594  0.06427  1.0000
  C   C700      1.0  0.61008  0.69150  0.45651  1.0000
  C   C701      1.0  0.53378  0.82157  0.23704  1.0000
  C   C702      1.0  0.71830  0.77903  0.19934  1.0000
  H   H701      1.0  0.60009  0.84012  0.18758  1.0000
  H   H702      1.0  0.62715  0.67700  0.44912  1.0000
  C   C703      1.0  0.62742  0.80536  0.30472  1.0000
  C   C704      1.0  0.64210  0.83014  0.30007  1.0000
  C   C705      1.0  0.67245  0.82931  0.29911  1.0000
  C   C706      1.0  0.68833  0.80361  0.30268  1.0000
  C   C707      1.0  0.67363  0.77891  0.30684  1.0000
  C   C708      1.0  0.64343  0.77976  0.30789  1.0000
  H   H703      1.0  0.62998  0.85009  0.29743  1.0000
  Fe  Fe120     1.0  0.72793  0.65017  0.26381  1.0000
  C   C709      1.0  0.63399  0.52320  0.46991  1.0000
  N   N58       1.0  0.62829  0.66843  0.15740  1.0000
  C   C710      1.0  0.60326  0.68328  0.15021  1.0000
  C   C711      1.0  0.65111  0.66769  0.13742  1.0000
  C   C712      1.0  0.64880  0.68127  0.10896  1.0000
  C   C713      1.0  0.63111  0.65457  0.18729  1.0000
  H   H704      1.0  0.58574  0.68521  0.16656  1.0000
  S   S239      1.0  0.50491  0.63127  0.08492  1.0000
  H   H705      1.0  0.56952  0.84978  0.45431  1.0000
  H   H706      1.0  0.61037  0.64638  0.19574  1.0000
  H   H707      1.0  0.64725  0.63648  0.18725  1.0000
  H   H708      1.0  0.63765  0.66975  0.20285  1.0000
  H   H709      1.0  0.56168  0.78913  0.25724  1.0000
  C   C714      1.0  0.56015  0.80645  0.24053  1.0000
  C   C715      1.0  0.72002  0.82170  0.22437  1.0000
  C   C716      1.0  0.74589  0.57028  0.37094  1.0000
  H   H710      1.0  0.62703  0.81393  0.23604  1.0000
  C   C717      1.0  0.62300  0.69580  0.10117  1.0000
  H   H711      1.0  0.56489  0.63039  0.23635  1.0000
  C   C718      1.0  0.71957  0.71840  0.01459  1.0000
  H   H712      1.0  0.59635  0.82036  0.41800  1.0000
  C   C719      1.0  0.57036  0.51003  0.07877  1.0000
  N   N59       1.0  0.64466  0.65006  0.33047  1.0000
  C   C720      1.0  0.65361  0.62235  0.33045  1.0000
  C   C721      1.0  0.65185  0.66575  0.35297  1.0000
  C   C722      1.0  0.67066  0.60977  0.35315  1.0000
  C   C723      1.0  0.66930  0.65395  0.37574  1.0000
  C   C724      1.0  0.67882  0.62580  0.37568  1.0000
  S   S240      1.0  0.52545  0.75303  0.29728  1.0000
  H   H713      1.0  0.64770  0.60987  0.31276  1.0000
  H   H714      1.0  0.64403  0.68753  0.35343  1.0000
  H   H715      1.0  0.67807  0.58789  0.35302  1.0000
  H   H716      1.0  0.67535  0.66653  0.39331  1.0000
  H   H717      1.0  0.69268  0.61638  0.39292  1.0000
  C   C725      1.0  0.62585  0.66267  0.30725  1.0000
  C   C726      1.0  0.72855  0.58460  0.15150  1.0000
  Fe  Fe121     1.0  0.71329  0.64093  0.20020  1.0000
  S   S241      1.0  0.70312  0.60644  0.17091  1.0000
  H   H718      1.0  0.55530  0.63159  0.18232  1.0000
  C   C727      1.0  0.73714  0.60353  0.32806  1.0000
  S   S242      1.0  0.70558  0.68730  0.18741  1.0000
  C   C728      1.0  0.74158  0.81751  0.17519  1.0000
  H   H719      1.0  0.55140  0.85393  0.32721  1.0000
  C   C729      1.0  0.54676  0.64843  0.19543  1.0000
  S   S243      1.0  0.59692  0.69900  0.39841  1.0000
  H   H720      1.0  0.55354  0.86705  0.17981  1.0000
  H   H721      1.0  0.70039  0.78474  0.24358  1.0000
  S   S244      1.0  0.73952  0.63779  0.31153  1.0000
  S   S245      1.0  0.74083  0.51317  0.36904  1.0000
  H   H722      1.0  0.67116  0.65624  0.14326  1.0000
  C   C730      1.0  0.60008  0.69694  0.12196  1.0000
  C   C731      1.0  0.68564  0.62665  0.46224  1.0000
  C   C732      1.0  0.52819  0.86469  0.39397  1.0000
  H   H723      1.0  0.50640  0.49715  0.11414  1.0000
  Fe  Fe122     1.0  0.74613  0.69246  0.21214  1.0000
  H   H724      1.0  0.58616  0.62810  0.00568  1.0000
  H   H725      1.0  0.61064  0.78193  0.24663  1.0000
  H   H726      1.0  0.62051  0.78963  0.20815  1.0000
  C   C733      1.0  0.52578  0.49375  0.10039  1.0000
  H   H727      1.0  0.60302  0.66185  0.31502  1.0000
  C   C734      1.0  0.53381  0.84818  0.34340  1.0000
  H   H728      1.0  0.72209  0.53758  0.31290  1.0000
  S   S246      1.0  0.72065  0.50199  0.45729  1.0000
  H   H729      1.0  0.52533  0.87780  0.43910  1.0000
  C   C735      1.0  0.58152  0.83487  0.20158  1.0000
  H   H730      1.0  0.73607  0.70432  0.33083  1.0000
  N   N60       1.0  0.58375  0.81358  0.22339  1.0000
  H   H731      1.0  0.50778  0.76694  0.07026  1.0000
  C   C736      1.0  0.61189  0.79906  0.22870  1.0000
  C   C737      1.0  0.72845  0.55441  0.32551  1.0000
  C   C738      1.0  0.74415  0.76481  0.03478  1.0000
  C   C739      1.0  0.57736  0.83314  0.41132  1.0000
  H   H732      1.0  0.70130  0.92716  0.00181  1.0000
  C   C740      1.0  0.72807  0.58187  0.31219  1.0000
  C   C741      1.0  0.74056  0.77446  0.14934  1.0000
  H   H733      1.0  0.73293  0.78552  0.99265  1.0000
  C   C742      1.0  0.54320  0.65352  0.44583  1.0000
  H   H734      1.0  0.57994  0.70851  0.11657  1.0000
  H   H735      1.0  0.51493  0.86298  0.33887  1.0000
  Fe  Fe123     1.0  0.54668  0.70956  0.30516  1.0000
  C   C743      1.0  0.54574  0.51429  0.09699  1.0000
  H   H736      1.0  0.65352  0.52770  0.13495  1.0000
  H   H737      1.0  0.61058  0.50159  0.03816  1.0000
  H   H738      1.0  0.74165  0.73647  0.28997  1.0000
  H   H739      1.0  0.66685  0.68031  0.09303  1.0000
  N   N61       1.0  0.54339  0.84881  0.37397  1.0000
  C   C744      1.0  0.71159  0.79431  0.22426  1.0000
  H   H740      1.0  0.62082  0.70627  0.07914  1.0000
  C   C745      1.0  0.74440  0.73993  0.05313  1.0000
  S   S247      1.0  0.74215  0.50880  0.02997  1.0000
  H   H741      1.0  0.50864  0.71115  0.18844  1.0000
  H   H742      1.0  0.74023  0.89201  0.98528  1.0000
  H   H743      1.0  0.71705  0.68658  0.46956  1.0000
  H   H744      1.0  0.74213  0.85466  0.19977  1.0000
  H   H745      1.0  0.51820  0.70420  0.43425  1.0000
  H   H746      1.0  0.51111  0.85568  0.21251  1.0000
  H   H747      1.0  0.50855  0.87662  0.38766  1.0000
  C   C746      1.0  0.50603  0.68764  0.42685  1.0000
  H   H748      1.0  0.67917  0.53066  0.18154  1.0000
  C   C747      1.0  0.74579  0.59768  0.35749  1.0000
  C   C748      1.0  0.68810  0.51723  0.16466  1.0000
  H   H749      1.0  0.65365  0.51559  0.08533  1.0000
  H   H750      1.0  0.75304  0.56603  0.39350  1.0000
  H   H751      1.0  0.72689  0.50521  0.18807  1.0000
  Fe  Fe124     1.0  0.50788  0.74637  0.34439  1.0000
  H   H752      1.0  0.75149  0.60469  0.00375  1.0000
  Fe  Fe125     1.0  0.74970  0.49703  0.41679  1.0000
  C   C749      1.0  0.72681  0.48695  0.14573  1.0000
  S   S248      1.0  0.75096  0.88132  0.28774  1.0000
  H   H753      1.0  0.75351  0.78299  0.04239  1.0000
  C   C750      1.0  0.60102  0.48148  0.04562  1.0000
  H   H754      1.0  0.75353  0.71398  0.36327  1.0000
  Fe  Fe126     1.0  0.54371  0.69377  0.66702  1.0000
  H   H755      1.0  0.57363  0.96844  0.89659  1.0000
  S   S249      1.0  0.58975  0.68492  0.64942  1.0000
  S   S250      1.0  0.58234  0.63369  0.51066  1.0000
  S   S251      1.0  0.52537  0.73766  0.65594  1.0000
  Fe  Fe127     1.0  0.50944  0.84535  0.92647  1.0000
  H   H756      1.0  0.64277  0.56114  0.71871  1.0000
  Fe  Fe128     1.0  0.72986  0.60869  0.72531  1.0000
  S   S252      1.0  0.73123  0.56192  0.73288  1.0000
  S   S253      1.0  0.68910  0.63545  0.73479  1.0000
  S   S254      1.0  0.67515  0.80725  0.68189  1.0000
  C   C751      1.0  0.71495  0.93047  0.92792  1.0000
  C   C752      1.0  0.69685  0.57119  0.83816  1.0000
  H   H757      1.0  0.71820  0.57116  0.82773  1.0000
  H   H758      1.0  0.57364  0.84106  0.91271  1.0000
  H   H759      1.0  0.59925  0.78603  0.93464  1.0000
  H   H760      1.0  0.54534  0.81774  0.57936  1.0000
  C   C753      1.0  0.69943  0.94913  0.54363  1.0000
  C   C754      1.0  0.73723  0.88433  0.72586  1.0000
  S   S255      1.0  0.53110  0.80277  0.93470  1.0000
  H   H761      1.0  0.58736  0.78348  0.83257  1.0000
  H   H762      1.0  0.52948  0.57685  0.75540  1.0000
  Fe  Fe129     1.0  0.50780  0.73476  0.70297  1.0000
  Fe  Fe130     1.0  0.55981  0.61458  0.59328  1.0000
  S   S256      1.0  0.54268  0.59547  0.63739  1.0000
  Fe  Fe131     1.0  0.60825  0.60970  0.54583  1.0000
  Fe  Fe132     1.0  0.54436  0.61048  0.52843  1.0000
  S   S257      1.0  0.59821  0.63969  0.58143  1.0000
  S   S258      1.0  0.53087  0.88599  0.92680  1.0000
  Fe  Fe133     1.0  0.55463  0.67568  0.82526  1.0000
  Fe  Fe134     1.0  0.61745  0.68748  0.80620  1.0000
  S   S259      1.0  0.63319  0.64290  0.81528  1.0000
  S   S260      1.0  0.64929  0.71929  0.78869  1.0000
  Fe  Fe135     1.0  0.59340  0.63262  0.79269  1.0000
  S   S261      1.0  0.59601  0.59468  0.76507  1.0000
  Fe  Fe136     1.0  0.60511  0.64454  0.85667  1.0000
  S   S262      1.0  0.62031  0.62738  0.90144  1.0000
  S   S263      1.0  0.57869  0.67745  0.78066  1.0000
  S   S264      1.0  0.59208  0.69002  0.84940  1.0000
  Fe  Fe137     1.0  0.68254  0.79188  0.57407  1.0000
  S   S265      1.0  0.68627  0.76163  0.61431  1.0000
  S   S266      1.0  0.64688  0.78283  0.54373  1.0000
  S   S267      1.0  0.69384  0.82845  0.59895  1.0000
  Fe  Fe138     1.0  0.69405  0.84370  0.91010  1.0000
  S   S268      1.0  0.66698  0.88282  0.91953  1.0000
  S   S269      1.0  0.68089  0.80397  0.89246  1.0000
  C   C755      1.0  0.67162  0.81694  0.74163  1.0000
  C   C756      1.0  0.68189  0.81575  0.77084  1.0000
  H   H763      1.0  0.64927  0.82291  0.73786  1.0000
  H   H764      1.0  0.66744  0.82039  0.78943  1.0000
  Fe  Fe139     1.0  0.72060  0.80817  0.86274  1.0000
  C   C757      1.0  0.69040  0.52677  0.52615  1.0000
  C   C758      1.0  0.59388  0.63202  0.92984  1.0000
  C   C759      1.0  0.60109  0.62696  0.95976  1.0000
  C   C760      1.0  0.72765  0.92920  0.50345  1.0000
  H   H765      1.0  0.61731  0.68114  0.50291  1.0000
  C   C761      1.0  0.54500  0.64569  0.94568  1.0000
  C   C762      1.0  0.56573  0.64116  0.92283  1.0000
  H   H766      1.0  0.62282  0.61980  0.96530  1.0000
  H   H767      1.0  0.64643  0.73815  0.50360  1.0000
  C   C763      1.0  0.56031  0.59653  0.67126  1.0000
  C   C764      1.0  0.56945  0.57127  0.68651  1.0000
  C   C765      1.0  0.58057  0.57111  0.71505  1.0000
  C   C766      1.0  0.58202  0.59613  0.72903  1.0000
  C   C767      1.0  0.57235  0.62134  0.71414  1.0000
  C   C768      1.0  0.56179  0.62156  0.68520  1.0000
  H   H768      1.0  0.56762  0.55172  0.67633  1.0000
  H   H769      1.0  0.58758  0.55143  0.72654  1.0000
  H   H770      1.0  0.57273  0.64063  0.72502  1.0000
  H   H771      1.0  0.55404  0.64101  0.67399  1.0000
  H   H772      1.0  0.59758  0.76807  0.51387  1.0000
  S   S270      1.0  0.53224  0.76492  0.86501  1.0000
  H   H773      1.0  0.70708  0.49334  0.55628  1.0000
  H   H774      1.0  0.71662  0.59014  0.53437  1.0000
  C   C769      1.0  0.56342  0.83271  0.51665  1.0000
  C   C770      1.0  0.56836  0.80467  0.51034  1.0000
  C   C771      1.0  0.59412  0.78983  0.51867  1.0000
  C   C772      1.0  0.61515  0.80280  0.53345  1.0000
  C   C773      1.0  0.61032  0.83091  0.53960  1.0000
  C   C774      1.0  0.58456  0.84580  0.53116  1.0000
  C   C775      1.0  0.52538  0.76921  0.56627  1.0000
  C   C776      1.0  0.72655  0.60728  0.48984  1.0000
  H   H775      1.0  0.62641  0.84116  0.55080  1.0000
  H   H776      1.0  0.58092  0.86754  0.53599  1.0000
  C   C777      1.0  0.56874  0.88386  0.92453  1.0000
  C   C778      1.0  0.58319  0.90760  0.92984  1.0000
  C   C779      1.0  0.61327  0.90687  0.92819  1.0000
  C   C780      1.0  0.62924  0.88237  0.92122  1.0000
  C   C781      1.0  0.61493  0.85851  0.91573  1.0000
  C   C782      1.0  0.58464  0.85929  0.91732  1.0000
  S   S271      1.0  0.53114  0.85201  0.50697  1.0000
  H   H777      1.0  0.62108  0.57140  0.87555  1.0000
  H   H778      1.0  0.62715  0.83960  0.91020  1.0000
  S   S272      1.0  0.74737  0.78781  0.62805  1.0000
  C   C783      1.0  0.72355  0.71150  0.83521  1.0000
  C   C784      1.0  0.69567  0.70710  0.82593  1.0000
  C   C785      1.0  0.68539  0.72096  0.79965  1.0000
  C   C786      1.0  0.70403  0.73755  0.78189  1.0000
  C   C787      1.0  0.73208  0.74122  0.79083  1.0000
  Fe  Fe140     1.0  0.74022  0.81611  0.58659  1.0000
  H   H779      1.0  0.68193  0.69358  0.83948  1.0000
  H   H780      1.0  0.69691  0.74788  0.76114  1.0000
  C   C788      1.0  0.68325  0.68336  0.53785  1.0000
  H   H781      1.0  0.54486  0.73589  0.76292  1.0000
  Fe  Fe141     1.0  0.71068  0.78229  0.92695  1.0000
  S   S273      1.0  0.75258  0.71172  0.59381  1.0000
  H   H782      1.0  0.62686  0.58896  0.60788  1.0000
  H   H783      1.0  0.60352  0.74979  0.82501  1.0000
  H   H784      1.0  0.70057  0.53439  0.63013  1.0000
  C   C789      1.0  0.70259  0.95716  0.92006  1.0000
  C   C790      1.0  0.54518  0.70955  0.91257  1.0000
  H   H785      1.0  0.65419  0.72157  0.57552  1.0000
  C   C791      1.0  0.52543  0.76798  0.82664  1.0000
  H   H786      1.0  0.71642  0.68599  0.70942  1.0000
  H   H787      1.0  0.60642  0.73533  0.61544  1.0000
  C   C792      1.0  0.71336  0.95244  0.51574  1.0000
  C   C793      1.0  0.67123  0.53420  0.50339  1.0000
  C   C794      1.0  0.66425  0.56111  0.61545  1.0000
  C   C795      1.0  0.53961  0.74912  0.80778  1.0000
  C   C796      1.0  0.64611  0.57405  0.83416  1.0000
  N   N62       1.0  0.67305  0.57494  0.82114  1.0000
  H   H788      1.0  0.68409  0.67114  0.55905  1.0000
  H   H789      1.0  0.70321  0.96529  0.89699  1.0000
  C   C797      1.0  0.61747  0.67126  0.67309  1.0000
  C   C798      1.0  0.64271  0.65838  0.66082  1.0000
  C   C799      1.0  0.66512  0.64745  0.67927  1.0000
  C   C800      1.0  0.66247  0.64964  0.71010  1.0000
  C   C801      1.0  0.63763  0.66321  0.72213  1.0000
  C   C802      1.0  0.61530  0.67404  0.70376  1.0000
  H   H790      1.0  0.64473  0.65649  0.63702  1.0000
  H   H791      1.0  0.68423  0.63719  0.66967  1.0000
  H   H792      1.0  0.63557  0.66525  0.74591  1.0000
  H   H793      1.0  0.59632  0.68448  0.71339  1.0000
  S   S274      1.0  0.73272  0.84860  0.87966  1.0000
  S   S275      1.0  0.56685  0.62999  0.83530  1.0000
  S   S276      1.0  0.72529  0.80593  0.81216  1.0000
  C   C803      1.0  0.68988  0.80967  0.71737  1.0000
  Fe  Fe142     1.0  0.57035  0.66238  0.54699  1.0000
  C   C804      1.0  0.72736  0.89201  0.96507  1.0000
  H   H794      1.0  0.54687  0.74092  0.48357  1.0000
  C   C805      1.0  0.61029  0.77448  0.91728  1.0000
  C   C806      1.0  0.60444  0.69376  0.48695  1.0000
  C   C807      1.0  0.70300  0.67653  0.51496  1.0000
  S   S277      1.0  0.57172  0.58269  0.56003  1.0000
  H   H795      1.0  0.71515  0.86603  0.79696  1.0000
  H   H796      1.0  0.72479  0.91804  0.91062  1.0000
  C   C808      1.0  0.68961  0.97311  0.94217  1.0000
  S   S278      1.0  0.52755  0.69166  0.71497  1.0000
  C   C809      1.0  0.70794  0.60061  0.51435  1.0000
  H   H797      1.0  0.62724  0.57662  0.82061  1.0000
  C   C810      1.0  0.65264  0.57906  0.70618  1.0000
  H   H798      1.0  0.67334  0.58273  0.71605  1.0000
  H   H799      1.0  0.63840  0.59818  0.70916  1.0000
  C   C811      1.0  0.63369  0.75580  0.92401  1.0000
  S   S279      1.0  0.65516  0.59412  0.54224  1.0000
  N   N63       1.0  0.63101  0.74882  0.71137  1.0000
  C   C812      1.0  0.63144  0.76521  0.73491  1.0000
  C   C813      1.0  0.60660  0.74833  0.69555  1.0000
  C   C814      1.0  0.60716  0.78176  0.74325  1.0000
  C   C815      1.0  0.58202  0.76498  0.70303  1.0000
  C   C816      1.0  0.58242  0.78185  0.72695  1.0000
  C   C817      1.0  0.65705  0.73187  0.70347  1.0000
  H   H800      1.0  0.65073  0.76548  0.74745  1.0000
  H   H801      1.0  0.60596  0.73501  0.67717  1.0000
  H   H802      1.0  0.60768  0.79453  0.76209  1.0000
  H   H803      1.0  0.56266  0.76479  0.69064  1.0000
  H   H804      1.0  0.56350  0.79482  0.73297  1.0000
  H   H805      1.0  0.67503  0.74571  0.69805  1.0000
  H   H806      1.0  0.66297  0.71697  0.72265  1.0000
  H   H807      1.0  0.65408  0.71957  0.68395  1.0000
  C   C818      1.0  0.67650  0.57879  0.78868  1.0000
  H   H808      1.0  0.62500  0.77989  0.82124  1.0000
  H   H809      1.0  0.65803  0.59161  0.77886  1.0000
  H   H810      1.0  0.71295  0.56505  0.88267  1.0000
  C   C819      1.0  0.69181  0.49948  0.53911  1.0000
  C   C820      1.0  0.55845  0.79957  0.58769  1.0000
  H   H811      1.0  0.62423  0.92528  0.93257  1.0000
  C   C821      1.0  0.58331  0.80361  0.60290  1.0000
  H   H812      1.0  0.73238  0.85955  0.51203  1.0000
  C   C822      1.0  0.60089  0.78045  0.61273  1.0000
  C   C823      1.0  0.71895  0.87582  0.74952  1.0000
  C   C824      1.0  0.72889  0.87354  0.77848  1.0000
  H   H813      1.0  0.63270  0.69275  0.56770  1.0000
  H   H814      1.0  0.58940  0.82461  0.60610  1.0000
  H   H815      1.0  0.56165  0.72932  0.58986  1.0000
  H   H816      1.0  0.62068  0.78338  0.62372  1.0000
  H   H817      1.0  0.71375  0.97306  0.50416  1.0000
  N   N64       1.0  0.61579  0.76462  0.86567  1.0000
  H   H818      1.0  0.66395  0.56621  0.90688  1.0000
  C   C825      1.0  0.64283  0.71186  0.55806  1.0000
  Fe  Fe143     1.0  0.70023  0.79761  0.63871  1.0000
  C   C826      1.0  0.60154  0.77864  0.88780  1.0000
  S   S280      1.0  0.50493  0.67419  0.65047  1.0000
  S   S281      1.0  0.71996  0.82197  0.94629  1.0000
  C   C827      1.0  0.71092  0.80852  0.77585  1.0000
  C   C828      1.0  0.53429  0.75088  0.77718  1.0000
  C   C829      1.0  0.63831  0.58560  0.65409  1.0000
  H   H819      1.0  0.74112  0.68864  0.66179  1.0000
  H   H820      1.0  0.67067  0.55531  0.49306  1.0000
  C   C830      1.0  0.64248  0.57081  0.86516  1.0000
  N   N65       1.0  0.71477  0.92015  0.95703  1.0000
  N   N66       1.0  0.65396  0.51493  0.49376  1.0000
  C   C831      1.0  0.71898  0.80344  0.72222  1.0000
  C   C832      1.0  0.66660  0.56793  0.88277  1.0000
  S   S282      1.0  0.50717  0.77441  0.72719  1.0000
  C   C833      1.0  0.72944  0.80339  0.75112  1.0000
  S   S283      1.0  0.50868  0.68737  0.84171  1.0000
  S   S284      1.0  0.53060  0.64090  0.56237  1.0000
  H   H821      1.0  0.50780  0.76280  0.58211  1.0000
  H   H822      1.0  0.55231  0.79432  0.49915  1.0000
  C   C834      1.0  0.69401  0.56769  0.86923  1.0000
  H   H823      1.0  0.75203  0.79846  0.75427  1.0000
  H   H824      1.0  0.62076  0.60009  0.66064  1.0000
  N   N67       1.0  0.55134  0.77317  0.58243  1.0000
  H   H825      1.0  0.55405  0.73256  0.81699  1.0000
  C   C835      1.0  0.64789  0.74143  0.90134  1.0000
  H   H826      1.0  0.55990  0.64491  0.89983  1.0000
  H   H827      1.0  0.73003  0.88536  0.70314  1.0000
  S   S285      1.0  0.74907  0.78226  0.89532  1.0000
  H   H828      1.0  0.52967  0.75281  0.55012  1.0000
  H   H829      1.0  0.62511  0.72691  0.55035  1.0000
  H   H830      1.0  0.74640  0.75359  0.77683  1.0000
  C   C836      1.0  0.70200  0.69199  0.48756  1.0000
  H   H831      1.0  0.64126  0.75287  0.94661  1.0000
  C   C837      1.0  0.74159  0.72945  0.81816  1.0000
  H   H832      1.0  0.73351  0.79844  0.70379  1.0000
  H   H833      1.0  0.69376  0.54553  0.68264  1.0000
  H   H834      1.0  0.71900  0.67810  0.76406  1.0000
  H   H835      1.0  0.74933  0.60166  0.49098  1.0000
  H   H836      1.0  0.66645  0.72727  0.90630  1.0000
  C   C838      1.0  0.51903  0.71709  0.95780  1.0000
  C   C839      1.0  0.66230  0.72077  0.50696  1.0000
  C   C840      1.0  0.60746  0.76985  0.83461  1.0000
  C   C841      1.0  0.64167  0.57952  0.62419  1.0000
  H   H837      1.0  0.67837  0.55812  0.77895  1.0000
  S   S286      1.0  0.70468  0.74441  0.95990  1.0000
  C   C842      1.0  0.70022  0.92281  0.55902  1.0000
  N   N68       1.0  0.72767  0.90332  0.51837  1.0000
  H   H838      1.0  0.71582  0.87978  0.55843  1.0000
  C   C843      1.0  0.57085  0.71378  0.95737  1.0000
  H   H839      1.0  0.66716  0.55634  0.59230  1.0000
  C   C844      1.0  0.67813  0.60662  0.51276  1.0000
  H   H840      1.0  0.74205  0.88421  0.94700  1.0000
  C   C845      1.0  0.58129  0.71103  0.49674  1.0000
  C   C846      1.0  0.71469  0.90004  0.54606  1.0000
  H   H841      1.0  0.59079  0.71329  0.96903  1.0000
  H   H842      1.0  0.65011  0.73551  0.85442  1.0000
  H   H843      1.0  0.73908  0.93205  0.48213  1.0000
  H   H844      1.0  0.73094  0.70109  0.85575  1.0000
  H   H845      1.0  0.71888  0.65924  0.51837  1.0000
  C   C847      1.0  0.68303  0.54885  0.63663  1.0000
  C   C848      1.0  0.63866  0.74623  0.87210  1.0000
  C   C849      1.0  0.50674  0.78931  0.81455  1.0000
  N   N69       1.0  0.65695  0.57355  0.67471  1.0000
  C   C850      1.0  0.67903  0.55529  0.66635  1.0000
  S   S287      1.0  0.57066  0.70838  0.53442  1.0000
  H   H846      1.0  0.52325  0.65269  0.94017  1.0000
  H   H847      1.0  0.59140  0.70627  0.91473  1.0000
  H   H848      1.0  0.69737  0.87029  0.74531  1.0000
  C   C851      1.0  0.73800  0.68362  0.75077  1.0000
  C   C852      1.0  0.59304  0.75358  0.60794  1.0000
  H   H849      1.0  0.69597  0.59032  0.78223  1.0000
  N   N70       1.0  0.51959  0.71278  0.92808  1.0000
  C   C853      1.0  0.51478  0.77162  0.76531  1.0000
  H   H850      1.0  0.57106  0.92650  0.93567  1.0000
  C   C854      1.0  0.68154  0.71430  0.48348  1.0000
  H   H851      1.0  0.58339  0.79327  0.88275  1.0000
  Fe  Fe144     1.0  0.73249  0.75502  0.59968  1.0000
  S   S288      1.0  0.72811  0.78283  0.55789  1.0000
  C   C855      1.0  0.73666  0.68818  0.71982  1.0000
  C   C856      1.0  0.56785  0.75031  0.59301  1.0000
  H   H852      1.0  0.70444  0.54200  0.53326  1.0000
  C   C857      1.0  0.51939  0.61677  0.77346  1.0000
  C   C858      1.0  0.74302  0.87924  0.50539  1.0000
  N   N71       1.0  0.66309  0.70509  0.53357  1.0000
  H   H853      1.0  0.54533  0.70620  0.88900  1.0000
  H   H854      1.0  0.68880  0.96714  0.55364  1.0000
  H   H855      1.0  0.54116  0.62334  0.77107  1.0000
  C   C859      1.0  0.54461  0.71772  0.97287  1.0000
  C   C860      1.0  0.57121  0.70989  0.92694  1.0000
  C   C861      1.0  0.55236  0.64134  0.97557  1.0000
  H   H856      1.0  0.69021  0.92018  0.58110  1.0000
  H   H857      1.0  0.51808  0.78860  0.55300  1.0000
  C   C862      1.0  0.65460  0.48831  0.50691  1.0000
  C   C863      1.0  0.66712  0.62019  0.48679  1.0000
  H   H858      1.0  0.64423  0.62493  0.48522  1.0000
  H   H859      1.0  0.74432  0.72032  0.90154  1.0000
  C   C864      1.0  0.68902  0.96218  0.97171  1.0000
  Fe  Fe145     1.0  0.50559  0.79150  0.89655  1.0000
  H   H860      1.0  0.50899  0.70127  0.52400  1.0000
  C   C865      1.0  0.51275  0.59072  0.76467  1.0000
  S   S289      1.0  0.51198  0.59290  0.49918  1.0000
  H   H861      1.0  0.74414  0.88189  0.48068  1.0000
  H   H862      1.0  0.70990  0.87739  0.96925  1.0000
  H   H863      1.0  0.61366  0.53266  0.47953  1.0000
  C   C866      1.0  0.70173  0.93548  0.97878  1.0000
  H   H864      1.0  0.86308  0.43891  0.47340  1.0000
  Fe  Fe146     1.0  0.78848  0.45069  0.44871  1.0000
  S   S290      1.0  0.82200  0.41685  0.43422  1.0000
  H   H865      1.0  0.77535  0.38587  0.40910  1.0000
  S   S291      1.0  0.77818  0.45651  0.06594  1.0000
  Fe  Fe147     1.0  0.80733  0.45356  0.02546  1.0000
  S   S292      1.0  0.84430  0.41983  0.02248  1.0000
  S   S293      1.0  0.79938  0.00086  0.03276  1.0000
  H   H866      1.0  0.91396  0.46336  0.99664  1.0000
  S   S294      1.0  0.95857  0.39835  0.44367  1.0000
  S   S295      1.0  0.97784  0.33270  0.39391  1.0000
  H   H867      1.0  0.98814  0.23171  0.99837  1.0000
  C   C867      1.0  0.80795  0.08051  0.02157  1.0000
  S   S296      1.0  0.97175  0.41472  0.07220  1.0000
  H   H868      1.0  0.00327  0.27215  0.02445  1.0000
  Fe  Fe148     1.0  0.99010  0.36923  0.41812  1.0000
  H   H869      1.0  0.95427  0.46073  0.42487  1.0000
  N   N72       1.0  0.94757  0.29823  0.47153  1.0000
  H   H870      1.0  0.86435  0.38350  0.40249  1.0000
  H   H871      1.0  0.82951  0.08573  0.01419  1.0000
  H   H872      1.0  0.84682  0.47101  0.41598  1.0000
  S   S297      1.0  0.85436  0.04168  0.98093  1.0000
  C   C868      1.0  0.80221  0.07440  0.05198  1.0000
  C   C869      1.0  0.87882  0.41805  0.03853  1.0000
  C   C870      1.0  0.89717  0.39381  0.03587  1.0000
  C   C871      1.0  0.92540  0.39212  0.04653  1.0000
  C   C872      1.0  0.93579  0.41482  0.05980  1.0000
  C   C873      1.0  0.91740  0.43905  0.06247  1.0000
  C   C874      1.0  0.88909  0.44063  0.05211  1.0000
  H   H873      1.0  0.88953  0.37619  0.02541  1.0000
  H   H874      1.0  0.93918  0.37335  0.04421  1.0000
  H   H875      1.0  0.92504  0.45675  0.07275  1.0000
  H   H876      1.0  0.87532  0.45942  0.05437  1.0000
  C   C875      1.0  0.85994  0.41200  0.43756  1.0000
  C   C876      1.0  0.87557  0.39387  0.41875  1.0000
  C   C877      1.0  0.90566  0.38926  0.42045  1.0000
  C   C878      1.0  0.92050  0.40243  0.44138  1.0000
  C   C879      1.0  0.90481  0.42012  0.46062  1.0000
  C   C880      1.0  0.87477  0.42517  0.45852  1.0000
  H   H877      1.0  0.91736  0.37569  0.40540  1.0000
  H   H878      1.0  0.94357  0.34106  0.45502  1.0000
  C   C881      1.0  0.91058  0.47200  0.41233  1.0000
  H   H879      1.0  0.81912  0.07490  0.06778  1.0000
  Fe  Fe149     1.0  0.82632  0.00415  0.98986  1.0000
  H   H880      1.0  0.91016  0.45480  0.39796  1.0000
  Fe  Fe150     1.0  0.76205  0.99607  0.00330  1.0000
  H   H881      1.0  0.91602  0.43029  0.47704  1.0000
  C   C882      1.0  0.77479  0.06696  0.06167  1.0000
  N   N73       1.0  0.78697  0.07918  0.00135  1.0000
  H   H882      1.0  0.86485  0.47506  0.38002  1.0000
  C   C883      1.0  0.93283  0.28817  0.44654  1.0000
  H   H883      1.0  0.97032  0.47667  0.09134  1.0000
  H   H884      1.0  0.91938  0.27057  0.45420  1.0000
  S   S298      1.0  0.77008  0.45480  0.99429  1.0000
  C   C884      1.0  0.00291  0.36438  0.24662  1.0000
  H   H885      1.0  0.91855  0.30498  0.43566  1.0000
  C   C885      1.0  0.95173  0.32614  0.47235  1.0000
  H   H886      1.0  0.94900  0.28070  0.42965  1.0000
  H   H887      1.0  0.91353  0.42904  0.98406  1.0000
  H   H888      1.0  0.98285  0.25307  0.11660  1.0000
  H   H889      1.0  0.98945  0.38328  0.24943  1.0000
  H   H890      1.0  0.77012  0.06168  0.08511  1.0000
  C   C886      1.0  0.93561  0.47518  0.42761  1.0000
  C   C887      1.0  0.76013  0.07158  0.01064  1.0000
  H   H891      1.0  0.99696  0.20971  0.46360  1.0000
  S   S299      1.0  0.99954  0.35781  0.30808  1.0000
  H   H892      1.0  0.76832  0.38968  0.46348  1.0000
  C   C888      1.0  0.75611  0.37832  0.42054  1.0000
  H   H893      1.0  0.97051  0.35801  0.49553  1.0000
  H   H894      1.0  0.79702  0.06425  0.95885  1.0000
  H   H895      1.0  0.98492  0.19856  0.91082  1.0000
  H   H896      1.0  0.94412  0.12386  0.72267  1.0000
  Fe  Fe151     1.0  0.83192  0.00064  0.54626  1.0000
  S   S300      1.0  0.87237  0.02385  0.53234  1.0000
  H   H897      1.0  0.98288  0.27323  0.53308  1.0000
  C   C889      1.0  0.93123  0.07438  0.95613  1.0000
  H   H898      1.0  0.94944  0.10439  0.67271  1.0000
  H   H899      1.0  0.97497  0.22963  0.88731  1.0000
  Fe  Fe152     1.0  0.76602  0.99635  0.55534  1.0000
  S   S301      1.0  0.95739  0.08574  0.61099  1.0000
  H   H900      1.0  0.92783  0.45655  0.95951  1.0000
  S   S302      1.0  0.80160  0.00402  0.58616  1.0000
  S   S303      1.0  0.98784  0.05370  0.94542  1.0000
  C   C890      1.0  0.00139  0.07751  0.73450  1.0000
  C   C891      1.0  0.97810  0.31680  0.51741  1.0000
  N   N74       1.0  0.88235  0.45900  0.96470  1.0000
  C   C892      1.0  0.98555  0.07626  0.68517  1.0000
  C   C893      1.0  0.96072  0.10763  0.71841  1.0000
  C   C894      1.0  0.97953  0.09781  0.74070  1.0000
  C   C895      1.0  0.89146  0.04432  0.97042  1.0000
  C   C896      1.0  0.86592  0.43854  0.95607  1.0000
  C   C897      1.0  0.89533  0.04169  0.55440  1.0000
  C   C898      1.0  0.88897  0.04575  0.58446  1.0000
  C   C899      1.0  0.90823  0.05923  0.60128  1.0000
  C   C900      1.0  0.93409  0.06887  0.58839  1.0000
  C   C901      1.0  0.94049  0.06476  0.55833  1.0000
  C   C902      1.0  0.92118  0.05132  0.54147  1.0000
  H   H901      1.0  0.86916  0.03861  0.59475  1.0000
  H   H902      1.0  0.90296  0.06236  0.62446  1.0000
  H   H903      1.0  0.96022  0.07208  0.54804  1.0000
  H   H904      1.0  0.92633  0.04840  0.51823  1.0000
  H   H905      1.0  0.95624  0.25713  0.49177  1.0000
  C   C903      1.0  0.82877  0.47342  0.94116  1.0000
  S   S304      1.0  0.76193  0.45212  0.49176  1.0000
  S   S305      1.0  0.78796  0.00268  0.96076  1.0000
  H   H906      1.0  0.88744  0.08944  0.96539  1.0000
  C   C904      1.0  0.96369  0.09679  0.69044  1.0000
  C   C905      1.0  0.95048  0.05090  0.95454  1.0000
  C   C906      1.0  0.79351  0.08448  0.96941  1.0000
  H   H907      1.0  0.77568  0.09717  0.95839  1.0000
  H   H908      1.0  0.99004  0.23253  0.92310  1.0000
  H   H909      1.0  0.00092  0.16765  0.76995  1.0000
  H   H910      1.0  0.98772  0.06807  0.66332  1.0000
  C   C907      1.0  0.99099  0.22001  0.90318  1.0000
  C   C908      1.0  0.90199  0.07108  0.96411  1.0000
  C   C909      1.0  0.97374  0.28837  0.51642  1.0000
  S   S306      1.0  0.99901  0.13522  0.91257  1.0000
  H   H911      1.0  0.90300  0.00011  0.97345  1.0000
  H   H912      1.0  0.93893  0.09509  0.95140  1.0000
  C   C910      1.0  0.95849  0.27939  0.49307  1.0000
  S   S307      1.0  0.79609  0.99681  0.51457  1.0000
  H   H913      1.0  0.81348  0.09588  0.96530  1.0000
  C   C911      1.0  0.83876  0.44541  0.94452  1.0000
  H   H914      1.0  0.82531  0.42904  0.93890  1.0000
  H   H915      1.0  0.87315  0.41663  0.95940  1.0000
  H   H916      1.0  0.99046  0.32398  0.53500  1.0000
  H   H917      1.0  0.97790  0.10653  0.76235  1.0000
  C   C912      1.0  0.96696  0.33586  0.49531  1.0000
  H   H918      1.0  0.90123  0.98864  0.58551  1.0000
  H   H919      1.0  0.93567  0.98944  0.54382  1.0000
  C   C913      1.0  0.93995  0.02414  0.96088  1.0000
  C   C914      1.0  0.91065  0.02082  0.96865  1.0000
  H   H920      1.0  0.95458  0.00581  0.95974  1.0000
  Fe  Fe153     1.0  0.00144  0.10435  0.60279  1.0000
  H   H921      1.0  0.80762  0.47905  0.93259  1.0000
  C   C915      1.0  0.91085  0.45166  0.97668  1.0000
  N   N75       1.0  0.00404  0.06687  0.70707  1.0000
  S   S308      1.0  0.96591  0.75729  0.35749  1.0000
  N   N76       1.0  0.79447  0.59281  0.01478  1.0000
  C   C916      1.0  0.88688  0.51040  0.43559  1.0000
  C   C917      1.0  0.77693  0.56476  0.14101  1.0000
  H   H922      1.0  0.96831  0.52244  0.11504  1.0000
  H   H923      1.0  0.85670  0.88768  0.02888  1.0000
  H   H924      1.0  0.78946  0.61232  0.27181  1.0000
  C   C918      1.0  0.81180  0.87846  0.99649  1.0000
  H   H925      1.0  0.98213  0.79655  0.11019  1.0000
  H   H926      1.0  0.93596  0.67048  0.14255  1.0000
  Fe  Fe154     1.0  0.82377  0.83745  0.28662  1.0000
  S   S309      1.0  0.82071  0.88453  0.27978  1.0000
  S   S310      1.0  0.86473  0.81100  0.27644  1.0000
  Fe  Fe155     1.0  0.78416  0.87933  0.24982  1.0000
  S   S311      1.0  0.95663  0.86316  0.46134  1.0000
  Fe  Fe156     1.0  0.78817  0.88288  0.31822  1.0000
  S   S312      1.0  0.78685  0.91717  0.35128  1.0000
  S   S313      1.0  0.78901  0.83249  0.25434  1.0000
  S   S314      1.0  0.79388  0.83596  0.32703  1.0000
  C   C919      1.0  0.84184  0.60122  0.04799  1.0000
  S   S315      1.0  0.81544  0.63265  0.46520  1.0000
  C   C920      1.0  0.85329  0.95537  0.41147  1.0000
  S   S316      1.0  0.83775  0.95766  0.99071  1.0000
  S   S317      1.0  0.77279  0.73122  0.20199  1.0000
  H   H927      1.0  0.82103  0.77493  0.27068  1.0000
  H   H928      1.0  0.85712  0.95941  0.45833  1.0000
  S   S318      1.0  0.76938  0.94929  0.00535  1.0000
  Fe  Fe157     1.0  0.93630  0.76856  0.20383  1.0000
  S   S319      1.0  0.91911  0.81313  0.19848  1.0000
  S   S320      1.0  0.90867  0.73158  0.21171  1.0000
  Fe  Fe158     1.0  0.94573  0.81496  0.15589  1.0000
  C   C921      1.0  0.78806  0.93669  0.11980  1.0000
  Fe  Fe159     1.0  0.95998  0.82212  0.22041  1.0000
  S   S321      1.0  0.96222  0.85723  0.25119  1.0000
  S   S322      1.0  0.95985  0.76961  0.15976  1.0000
  S   S323      1.0  0.97607  0.77705  0.22827  1.0000
  Fe  Fe160     1.0  0.94008  0.83586  0.42807  1.0000
  S   S324      1.0  0.92165  0.85943  0.38722  1.0000
  S   S325      1.0  0.79298  0.67416  0.40746  1.0000
  Fe  Fe161     1.0  0.82401  0.67501  0.44386  1.0000
  H   H929      1.0  0.79175  0.74137  0.99340  1.0000
  Fe  Fe162     1.0  0.82884  0.65432  0.37985  1.0000
  S   S326      1.0  0.81947  0.61062  0.39716  1.0000
  S   S327      1.0  0.83856  0.67135  0.33181  1.0000
  Fe  Fe163     1.0  0.78546  0.63091  0.42752  1.0000
  Fe  Fe164     1.0  0.85045  0.61733  0.43333  1.0000
  S   S328      1.0  0.88803  0.58662  0.44596  1.0000
  S   S329      1.0  0.86113  0.66011  0.41461  1.0000
  Fe  Fe165     1.0  0.83215  0.66034  0.09217  1.0000
  S   S330      1.0  0.82183  0.68909  0.12816  1.0000
  S   S331      1.0  0.87362  0.66446  0.06551  1.0000
  Fe  Fe166     1.0  0.80371  0.65186  0.15446  1.0000
  S   S332      1.0  0.82382  0.63367  0.19926  1.0000
  Fe  Fe167     1.0  0.77868  0.69668  0.10708  1.0000
  C   C922      1.0  0.86188  0.88767  0.00517  1.0000
  S   S333      1.0  0.81555  0.62272  0.11773  1.0000
  S   S334      1.0  0.79112  0.67068  0.06936  1.0000
  H   H930      1.0  0.84944  0.94423  0.36621  1.0000
  C   C923      1.0  0.97359  0.78206  0.03848  1.0000
  S   S335      1.0  0.79100  0.52567  0.09979  1.0000
  H   H931      1.0  0.76625  0.59620  0.17262  1.0000
  Fe  Fe168     1.0  0.99149  0.82900  0.46858  1.0000
  C   C924      1.0  0.85969  0.74062  0.08993  1.0000
  C   C925      1.0  0.83166  0.65800  0.29696  1.0000
  C   C926      1.0  0.84812  0.63522  0.28596  1.0000
  C   C927      1.0  0.84565  0.62830  0.25610  1.0000
  C   C928      1.0  0.82703  0.64422  0.23658  1.0000
  C   C929      1.0  0.81098  0.66706  0.24786  1.0000
  C   C930      1.0  0.81339  0.67390  0.27747  1.0000
  H   H932      1.0  0.86326  0.62332  0.30024  1.0000
  H   H933      1.0  0.85837  0.61058  0.24803  1.0000
  H   H934      1.0  0.79635  0.67978  0.23399  1.0000
  H   H935      1.0  0.80123  0.69204  0.28500  1.0000
  C   C931      1.0  0.94594  0.60767  0.10628  1.0000
  C   C932      1.0  0.91897  0.60980  0.12090  1.0000
  C   C933      1.0  0.89682  0.62755  0.10862  1.0000
  C   C934      1.0  0.90146  0.64287  0.08146  1.0000
  C   C935      1.0  0.92843  0.64074  0.06679  1.0000
  C   C936      1.0  0.95069  0.62317  0.07921  1.0000
  H   H936      1.0  0.87625  0.62945  0.12037  1.0000
  H   H937      1.0  0.93209  0.65251  0.04572  1.0000
  H   H938      1.0  0.97145  0.62149  0.06772  1.0000
  H   H939      1.0  0.97892  0.69795  0.38983  1.0000
  Fe  Fe169     1.0  0.75856  0.83467  0.29422  1.0000
  H   H940      1.0  0.97127  0.71207  0.22466  1.0000
  C   C937      1.0  0.99800  0.87804  0.37112  1.0000
  C   C938      1.0  0.85504  0.77615  0.40991  1.0000
  C   C939      1.0  0.94922  0.85456  0.28862  1.0000
  C   C940      1.0  0.93032  0.87607  0.29835  1.0000
  C   C941      1.0  0.92167  0.87664  0.32843  1.0000
  C   C942      1.0  0.93277  0.85641  0.34956  1.0000
  H   H941      1.0  0.92246  0.89258  0.28259  1.0000
  H   H942      1.0  0.90673  0.89326  0.33541  1.0000
  C   C943      1.0  0.94847  0.81534  0.08263  1.0000
  C   C944      1.0  0.93771  0.81764  0.05385  1.0000
  C   C945      1.0  0.95053  0.80128  0.03164  1.0000
  H   H943      1.0  0.91921  0.83172  0.04887  1.0000
  H   H944      1.0  0.91588  0.70895  0.07930  1.0000
  C   C946      1.0  0.81085  0.73250  0.20223  1.0000
  C   C947      1.0  0.82883  0.70931  0.19588  1.0000
  C   C948      1.0  0.85871  0.70964  0.19804  1.0000
  C   C949      1.0  0.87128  0.73374  0.20571  1.0000
  C   C950      1.0  0.85359  0.75788  0.21039  1.0000
  C   C951      1.0  0.82344  0.75727  0.20847  1.0000
  H   H945      1.0  0.81947  0.69076  0.18969  1.0000
  H   H946      1.0  0.87199  0.69090  0.19393  1.0000
  H   H947      1.0  0.86298  0.77662  0.21658  1.0000
  H   H948      1.0  0.80986  0.77577  0.21273  1.0000
  C   C952      1.0  0.78867  0.91571  0.39074  1.0000
  C   C953      1.0  0.78370  0.94068  0.40532  1.0000
  C   C954      1.0  0.78746  0.94121  0.43621  1.0000
  C   C955      1.0  0.79643  0.91672  0.45283  1.0000
  C   C956      1.0  0.80063  0.89161  0.43849  1.0000
  C   C957      1.0  0.79675  0.89103  0.40760  1.0000
  C   C958      1.0  0.79050  0.54222  0.28073  1.0000
  H   H949      1.0  0.95096  0.71663  0.41053  1.0000
  C   C959      1.0  0.79321  0.59133  0.28205  1.0000
  H   H950      1.0  0.88039  0.72488  0.42135  1.0000
  C   C960      1.0  0.80656  0.91642  0.10703  1.0000
  C   C961      1.0  0.81516  0.89217  0.12486  1.0000
  C   C962      1.0  0.80571  0.88839  0.15507  1.0000
  C   C963      1.0  0.78768  0.90902  0.16798  1.0000
  Fe  Fe170     1.0  0.94882  0.78385  0.46985  1.0000
  H   H951      1.0  0.81277  0.86978  0.16845  1.0000
  H   H952      1.0  0.82739  0.80837  0.38778  1.0000
  H   H953      1.0  0.96401  0.64308  0.14834  1.0000
  C   C964      1.0  0.90004  0.76114  0.10798  1.0000
  S   S336      1.0  0.93091  0.83355  0.11137  1.0000
  N   N77       1.0  0.88671  0.48963  0.41628  1.0000
  N   N78       1.0  0.86861  0.91776  0.44653  1.0000
  H   H954      1.0  0.92292  0.76395  0.10725  1.0000
  Fe  Fe171     1.0  0.77258  0.63603  0.09817  1.0000
  C   C965      1.0  0.80105  0.57494  0.03892  1.0000
  H   H955      1.0  0.78412  0.96069  0.44694  1.0000
  C   C966      1.0  0.82307  0.80859  0.43562  1.0000
  C   C967      1.0  0.80486  0.56130  0.32569  1.0000
  C   C968      1.0  0.93736  0.77150  0.33503  1.0000
  C   C969      1.0  0.91231  0.78359  0.34850  1.0000
  C   C970      1.0  0.88985  0.79614  0.33102  1.0000
  C   C971      1.0  0.89212  0.79613  0.29994  1.0000
  C   C972      1.0  0.91675  0.78326  0.28665  1.0000
  C   C973      1.0  0.93937  0.77128  0.30402  1.0000
  H   H956      1.0  0.91104  0.78459  0.37243  1.0000
  H   H957      1.0  0.87119  0.80636  0.34149  1.0000
  H   H958      1.0  0.91854  0.78294  0.26267  1.0000
  H   H959      1.0  0.95848  0.76210  0.29336  1.0000
  C   C974      1.0  0.78023  0.75657  0.27710  1.0000
  N   N79       1.0  0.86405  0.76390  0.43658  1.0000
  C   C975      1.0  0.76332  0.73958  0.29612  1.0000
  H   H960      1.0  0.00208  0.76510  0.07262  1.0000
  N   N80       1.0  0.77388  0.72736  0.32215  1.0000
  C   C976      1.0  0.96439  0.69060  0.18513  1.0000
  H   H961      1.0  0.99097  0.88658  0.32445  1.0000
  H   H962      1.0  0.75539  0.57963  0.23600  1.0000
  H   H963      1.0  0.80478  0.62997  0.98893  1.0000
  C   C977      1.0  0.81069  0.61520  0.00731  1.0000
  H   H964      1.0  0.99272  0.70315  0.99244  1.0000
  H   H965      1.0  0.89603  0.72413  0.04813  1.0000
  H   H966      1.0  0.94200  0.80290  0.00953  1.0000
  S   S337      1.0  0.97402  0.58717  0.12317  1.0000
  H   H967      1.0  0.80080  0.87175  0.39666  1.0000
  N   N81       1.0  0.88573  0.88869  0.20502  1.0000
  C   C978      1.0  0.86310  0.90553  0.19439  1.0000
  C   C979      1.0  0.91041  0.88503  0.18797  1.0000
  C   C980      1.0  0.86463  0.91870  0.16568  1.0000
  C   C981      1.0  0.91224  0.89704  0.15876  1.0000
  C   C982      1.0  0.88910  0.91389  0.14755  1.0000
  C   C983      1.0  0.88298  0.87428  0.23469  1.0000
  H   H968      1.0  0.84351  0.90852  0.20796  1.0000
  H   H969      1.0  0.92873  0.87246  0.19673  1.0000
  H   H970      1.0  0.84656  0.93191  0.15724  1.0000
  H   H971      1.0  0.93136  0.89297  0.14484  1.0000
  H   H972      1.0  0.80891  0.72335  0.35146  1.0000
  H   H973      1.0  0.90210  0.86016  0.24031  1.0000
  H   H974      1.0  0.88011  0.88970  0.25195  1.0000
  H   H975      1.0  0.86432  0.86093  0.23579  1.0000
  C   C984      1.0  0.76675  0.54859  0.11919  1.0000
  H   H976      1.0  0.80765  0.87267  0.45129  1.0000
  C   C985      1.0  0.76899  0.58908  0.99774  1.0000
  C   C986      1.0  0.98425  0.77986  0.06718  1.0000
  H   H977      1.0  0.97584  0.81797  0.30256  1.0000
  N   N82       1.0  0.84101  0.88397  0.98552  1.0000
  H   H978      1.0  0.83917  0.78153  0.14657  1.0000
  H   H979      1.0  0.88761  0.72949  0.45922  1.0000
  C   C987      1.0  0.85341  0.77384  0.46280  1.0000
  H   H980      1.0  0.81851  0.75128  0.11124  1.0000
  C   C988      1.0  0.89015  0.89171  0.99495  1.0000
  C   C989      1.0  0.88245  0.77487  0.12893  1.0000
  Fe  Fe172     1.0  0.80822  0.95417  0.03191  1.0000
  H   H981      1.0  0.95800  0.67969  0.41878  1.0000
  H   H982      1.0  0.86371  0.76838  0.38919  1.0000
  C   C990      1.0  0.85561  0.93707  0.38862  1.0000
  H   H983      1.0  0.76469  0.94903  0.15958  1.0000
  H   H984      1.0  0.96575  0.66787  0.11639  1.0000
  C   C991      1.0  0.85298  0.77134  0.13014  1.0000
  N   N83       1.0  0.90464  0.69673  0.27870  1.0000
  C   C992      1.0  0.92956  0.70015  0.29267  1.0000
  C   C993      1.0  0.90330  0.67601  0.25951  1.0000
  C   C994      1.0  0.95423  0.68297  0.28712  1.0000
  C   C995      1.0  0.92747  0.65818  0.25370  1.0000
  C   C996      1.0  0.95317  0.66191  0.26744  1.0000
  C   C997      1.0  0.87970  0.71612  0.28379  1.0000
  H   H985      1.0  0.93049  0.71634  0.30811  1.0000
  H   H986      1.0  0.88362  0.67358  0.24814  1.0000
  H   H987      1.0  0.97415  0.68616  0.29776  1.0000
  H   H988      1.0  0.92626  0.64188  0.23839  1.0000
  H   H989      1.0  0.97237  0.64872  0.26277  1.0000
  H   H990      1.0  0.86031  0.70985  0.27298  1.0000
  H   H991      1.0  0.87467  0.71660  0.30803  1.0000
  H   H992      1.0  0.88429  0.73745  0.27427  1.0000
  N   N84       1.0  0.97551  0.68322  0.15807  1.0000
  H   H993      1.0  0.76916  0.68619  0.34132  1.0000
  C   C998      1.0  0.79879  0.53819  0.31037  1.0000
  C   C999      1.0  0.94440  0.58437  0.46357  1.0000
  H   H994      1.0  0.95518  0.49893  0.45942  1.0000
  Fe  Fe173     1.0  0.99782  0.78314  0.18290  1.0000
  C   C1000     1.0  0.95951  0.66535  0.14045  1.0000
  C   C1001     1.0  0.83262  0.79620  0.46273  1.0000
  H   H995      1.0  0.78214  0.55345  0.22391  1.0000
  C   C1002     1.0  0.95262  0.83541  0.34023  1.0000
  C   C1003     1.0  0.96051  0.83421  0.30967  1.0000
  S   S338      1.0  0.97641  0.80318  0.43301  1.0000
  H   H996      1.0  0.91529  0.59807  0.14199  1.0000
  C   C1004     1.0  0.99471  0.68832  0.45813  1.0000
  H   H997      1.0  0.85066  0.72661  0.07534  1.0000
  H   H998      1.0  0.84544  0.97695  0.40691  1.0000
  H   H999      1.0  0.80531  0.60633  0.32357  1.0000
  S   S339      1.0  0.91067  0.81379  0.46150  1.0000
  N   N85       1.0  0.98915  0.70620  0.43369  1.0000
  H   H1000     1.0  0.79940  0.51747  0.32178  1.0000
  H   H1001     1.0  0.96181  0.82007  0.35649  1.0000
  S   S340      1.0  0.82419  0.71280  0.47093  1.0000
  C   C1005     1.0  0.91149  0.51409  0.45131  1.0000
  C   C1006     1.0  0.97244  0.79719  0.08878  1.0000
  N   N86       1.0  0.78818  0.56856  0.26684  1.0000
  H   H1002     1.0  0.98386  0.66901  0.46185  1.0000
  H   H1003     1.0  0.82948  0.56504  0.07543  1.0000
  H   H1004     1.0  0.79965  0.56359  0.14530  1.0000
  H   H1005     1.0  0.86646  0.89464  0.37743  1.0000
  S   S341      1.0  0.81209  0.49992  0.01995  1.0000
  H   H1006     1.0  0.78536  0.52423  0.26915  1.0000
  H   H1007     1.0  0.80676  0.82573  0.43523  1.0000
  H   H1008     1.0  0.78116  0.95543  0.10653  1.0000
  H   H1009     1.0  0.78712  0.55833  0.04600  1.0000
  H   H1010     1.0  0.90660  0.89481  0.01057  1.0000
  H   H1011     1.0  0.94331  0.68440  0.19291  1.0000
  S   S342      1.0  0.77607  0.90653  0.20635  1.0000
  H   H1012     1.0  0.99820  0.74489  0.40999  1.0000
  H   H1013     1.0  0.83890  0.75532  0.31946  1.0000
  H   H1014     1.0  0.89168  0.78808  0.14418  1.0000
  H   H1015     1.0  0.89001  0.92309  0.12482  1.0000
  Fe  Fe174     1.0  0.77342  0.50182  0.99077  1.0000
  S   S343      1.0  0.82044  0.92086  0.06950  1.0000
  H   H1016     1.0  0.86794  0.52432  0.43902  1.0000
  C   C1007     1.0  0.80055  0.73308  0.33082  1.0000
  H   H1017     1.0  0.79088  0.58908  0.22346  1.0000
  C   C1008     1.0  0.84142  0.75435  0.11034  1.0000
  C   C1009     1.0  0.85991  0.94530  0.44051  1.0000
  C   C1010     1.0  0.91760  0.59963  0.46337  1.0000
  N   N87       1.0  0.88857  0.74438  0.08875  1.0000
  H   H1018     1.0  0.94727  0.56541  0.45193  1.0000
  Fe  Fe175     1.0  0.78050  0.50295  0.05901  1.0000
  H   H1019     1.0  0.87820  0.87799  0.42902  1.0000
  H   H1020     1.0  0.82951  0.87631  0.11534  1.0000
  C   C1011     1.0  0.80768  0.76195  0.28539  1.0000
  S   S344      1.0  0.98459  0.82871  0.17674  1.0000
  C   C1012     1.0  0.86485  0.90915  0.39495  1.0000
  C   C1013     1.0  0.81775  0.75071  0.31271  1.0000
  H   H1021     1.0  0.84736  0.63762  0.01806  1.0000
  C   C1014     1.0  0.80215  0.58804  0.31144  1.0000
  H   H1022     1.0  0.86002  0.60471  0.06130  1.0000
  H   H1023     1.0  0.77744  0.95988  0.39247  1.0000
  C   C1015     1.0  0.77875  0.93298  0.14998  1.0000
  C   C1016     1.0  0.90763  0.72907  0.06805  1.0000
  H   H1024     1.0  0.92603  0.74158  0.06000  1.0000
  C   C1017     1.0  0.83448  0.79869  0.40899  1.0000
  H   H1025     1.0  0.98046  0.89238  0.37796  1.0000
  C   C1018     1.0  0.00266  0.73073  0.42934  1.0000
  C   C1019     1.0  0.82484  0.57881  0.05581  1.0000
  C   C1020     1.0  0.83471  0.61965  0.02367  1.0000
  H   H1026     1.0  0.81027  0.55869  0.34898  1.0000
  C   C1021     1.0  0.87136  0.89982  0.42419  1.0000
  H   H1027     1.0  0.80656  0.88812  0.01792  1.0000
  H   H1028     1.0  0.77187  0.76571  0.25622  1.0000
  C   C1022     1.0  0.00233  0.69062  0.14849  1.0000
  H   H1029     1.0  0.91142  0.53060  0.46660  1.0000
  H   H1030     1.0  0.76088  0.56788  0.00256  1.0000
  C   C1023     1.0  0.93601  0.49639  0.44721  1.0000
  C   C1024     1.0  0.77857  0.57274  0.23613  1.0000
  S   S345      1.0  0.75869  0.66226  0.13624  1.0000
  H   H1031     1.0  0.76422  0.77021  0.14744  1.0000
  C   C1025     1.0  0.96823  0.69961  0.41216  1.0000
  H   H1032     1.0  0.90729  0.74863  0.43008  1.0000
  C   C1026     1.0  0.75801  0.58313  0.15673  1.0000
  C   C1027     1.0  0.98000  0.70629  0.20314  1.0000
  C   C1028     1.0  0.88598  0.74064  0.43674  1.0000
  C   C1029     1.0  0.98838  0.50978  0.11340  1.0000
  S   S346      1.0  0.98958  0.76061  0.01168  1.0000
  S   S347      1.0  0.79054  0.49752  0.44176  1.0000
  H   H1033     1.0  0.80952  0.85551  0.99950  1.0000
  H   H1034     1.0  0.84755  0.50511  0.39626  1.0000
  S   S348      1.0  0.75977  0.73893  0.08885  1.0000
  C   C1030     1.0  0.75727  0.70710  0.34036  1.0000
  S   S349      1.0  0.75491  0.64563  0.22183  1.0000
  H   H1035     1.0  0.89406  0.63647  0.47805  1.0000
  C   C1031     1.0  0.98954  0.48435  0.09997  1.0000
  C   C1032     1.0  0.87529  0.90711  0.47693  1.0000
  C   C1033     1.0  0.91448  0.62444  0.47803  1.0000
  C   C1034     1.0  0.96769  0.59359  0.47866  1.0000
  C   C1035     1.0  0.86020  0.48503  0.40135  1.0000
  H   H1036     1.0  0.00368  0.83593  0.02150  1.0000
  H   H1037     1.0  0.89872  0.90202  0.47869  1.0000
  H   H1038     1.0  0.98811  0.58158  0.47882  1.0000
  C   C1036     1.0  0.00402  0.87459  0.34087  1.0000
  H   H1039     1.0  0.79581  0.88739  0.98018  1.0000
  Fe  Fe176     1.0  0.98481  0.72908  0.64719  1.0000
  S   S350      1.0  0.96584  0.72300  0.69319  1.0000
  S   S351      1.0  0.95420  0.75468  0.61748  1.0000
  C   C1037     1.0  0.82181  0.58420  0.53408  1.0000
  Fe  Fe177     1.0  0.98659  0.67979  0.69251  1.0000
  S   S352      1.0  0.96175  0.64145  0.70702  1.0000
  C   C1038     1.0  0.00140  0.70147  0.96990  1.0000
  Fe  Fe178     1.0  0.79472  0.60858  0.71488  1.0000
  S   S353      1.0  0.80070  0.56150  0.72215  1.0000
  S   S354      1.0  0.82551  0.64195  0.69855  1.0000
  C   C1039     1.0  0.90337  0.96600  0.58625  1.0000
  H   H1040     1.0  0.76990  0.88634  0.89349  1.0000
  Fe  Fe179     1.0  0.76912  0.56572  0.76166  1.0000
  C   C1040     1.0  0.93146  0.63016  0.83041  1.0000
  S   S355      1.0  0.00354  0.68508  0.64514  1.0000
  H   H1041     1.0  0.75796  0.57497  0.61346  1.0000
  S   S356      1.0  0.77029  0.85010  0.57160  1.0000
  C   C1041     1.0  0.76328  0.53062  0.55663  1.0000
  S   S357      1.0  0.78610  0.92789  0.92894  1.0000
  S   S358      1.0  0.83964  0.95407  0.55292  1.0000
  Fe  Fe180     1.0  0.80802  0.95674  0.59157  1.0000
  S   S359      1.0  0.82334  0.93690  0.63629  1.0000
  N   N88       1.0  0.86419  0.79976  0.63900  1.0000
  Fe  Fe181     1.0  0.86514  0.77086  0.78025  1.0000
  S   S360      1.0  0.82364  0.75938  0.76208  1.0000
  S   S361      1.0  0.90676  0.74779  0.76596  1.0000
  Fe  Fe182     1.0  0.83714  0.82329  0.80746  1.0000
  S   S362      1.0  0.79345  0.81492  0.79241  1.0000
  S   S363      1.0  0.85018  0.86489  0.82302  1.0000
  Fe  Fe183     1.0  0.80402  0.76925  0.80670  1.0000
  Fe  Fe184     1.0  0.81585  0.80528  0.74899  1.0000
  S   S364      1.0  0.79767  0.81968  0.70401  1.0000
  S   S365      1.0  0.84658  0.77854  0.82584  1.0000
  S   S366      1.0  0.85887  0.81580  0.76303  1.0000
  Fe  Fe185     1.0  0.96556  0.81643  0.91546  1.0000
  S   S367      1.0  0.97570  0.77035  0.92406  1.0000
  C   C1042     1.0  0.89243  0.79282  0.64477  1.0000
  H   H1042     1.0  0.83800  0.51600  0.94715  1.0000
  N   N89       1.0  0.98549  0.61921  0.60651  1.0000
  H   H1043     1.0  0.87963  0.96133  0.62826  1.0000
  H   H1044     1.0  0.83061  0.76715  0.96645  1.0000
  H   H1045     1.0  0.86585  0.68294  0.68085  1.0000
  H   H1046     1.0  0.82045  0.79425  0.65241  1.0000
  H   H1047     1.0  0.80238  0.59022  0.52094  1.0000
  S   S368      1.0  0.99175  0.62994  0.51526  1.0000
  H   H1048     1.0  0.97193  0.70093  0.52888  1.0000
  S   S369      1.0  0.77049  0.94929  0.56383  1.0000
  C   C1043     1.0  0.82218  0.75183  0.92399  1.0000
  H   H1049     1.0  0.86825  0.59968  0.72301  1.0000
  S   S370      1.0  0.00225  0.67809  0.84214  1.0000
  Fe  Fe186     1.0  0.76216  0.56130  0.69321  1.0000
  H   H1050     1.0  0.83245  0.76128  0.69531  1.0000
  C   C1044     1.0  0.76391  0.68626  0.76445  1.0000
  C   C1045     1.0  0.80355  0.71223  0.50469  1.0000
  S   S371      1.0  0.77630  0.73575  0.83064  1.0000
  S   S372      1.0  0.92490  0.83026  0.89189  1.0000
  H   H1051     1.0  0.92140  0.60021  0.72576  1.0000
  H   H1052     1.0  0.98500  0.65383  0.57445  1.0000
  Fe  Fe187     1.0  0.92977  0.83836  0.49519  1.0000
  S   S373      1.0  0.79736  0.82611  0.94222  1.0000
  C   C1046     1.0  0.82129  0.58476  0.58880  1.0000
  H   H1053     1.0  0.76113  0.49126  0.90724  1.0000
  C   C1047     1.0  0.77877  0.72322  0.95388  1.0000
  H   H1054     1.0  0.82241  0.56203  0.59062  1.0000
  H   H1055     1.0  0.81365  0.90857  0.74821  1.0000
  C   C1048     1.0  0.89986  0.77409  0.66892  1.0000
  H   H1056     1.0  0.96010  0.70004  0.95051  1.0000
  H   H1057     1.0  0.81585  0.75281  0.51539  1.0000
  H   H1058     1.0  0.81602  0.66557  0.58321  1.0000
  H   H1059     1.0  0.76142  0.48515  0.61838  1.0000
  C   C1049     1.0  0.77215  0.71195  0.55953  1.0000
  Fe  Fe188     1.0  0.75804  0.82245  0.91451  1.0000
  S   S374      1.0  0.98045  0.82859  0.95928  1.0000
  S   S375      1.0  0.76662  0.53230  0.51698  1.0000
  H   H1060     1.0  0.86365  0.88789  0.48309  1.0000
  N   N90       1.0  0.82077  0.59920  0.56144  1.0000
  Fe  Fe189     1.0  0.99350  0.78293  0.96639  1.0000
  S   S376      1.0  0.80404  0.91635  0.49119  1.0000
  C   C1050     1.0  0.93757  0.63341  0.49343  1.0000
  C   C1051     1.0  0.76974  0.53696  0.84555  1.0000
  Fe  Fe190     1.0  0.79787  0.95611  0.96436  1.0000
  C   C1052     1.0  0.86518  0.85463  0.53974  1.0000
  C   C1053     1.0  0.85119  0.83007  0.53562  1.0000
  C   C1054     1.0  0.82202  0.82771  0.54547  1.0000
  C   C1055     1.0  0.80687  0.85011  0.55896  1.0000
  C   C1056     1.0  0.82099  0.87447  0.56231  1.0000
  C   C1057     1.0  0.84979  0.87653  0.55318  1.0000
  H   H1061     1.0  0.86298  0.81276  0.52566  1.0000
  H   H1062     1.0  0.81132  0.80875  0.54270  1.0000
  H   H1063     1.0  0.80960  0.89202  0.57226  1.0000
  H   H1064     1.0  0.86004  0.89557  0.55627  1.0000
  C   C1058     1.0  0.89049  0.82265  0.90669  1.0000
  C   C1059     1.0  0.88447  0.82013  0.93739  1.0000
  C   C1060     1.0  0.85574  0.81962  0.94811  1.0000
  C   C1061     1.0  0.83305  0.82151  0.92821  1.0000
  C   C1062     1.0  0.83936  0.82130  0.89772  1.0000
  C   C1063     1.0  0.86801  0.82200  0.88706  1.0000
  H   H1065     1.0  0.90170  0.82042  0.95276  1.0000
  C   C1064     1.0  0.84762  0.88363  0.95572  1.0000
  H   H1066     1.0  0.82216  0.82183  0.88223  1.0000
  H   H1067     1.0  0.87270  0.82307  0.86338  1.0000
  C   C1065     1.0  0.93315  0.73022  0.78888  1.0000
  C   C1066     1.0  0.96032  0.72370  0.77595  1.0000
  C   C1067     1.0  0.98168  0.70820  0.79220  1.0000
  C   C1068     1.0  0.97634  0.69936  0.82190  1.0000
  C   C1069     1.0  0.94930  0.70635  0.83530  1.0000
  C   C1070     1.0  0.92771  0.72176  0.81885  1.0000
  H   H1068     1.0  0.96498  0.73074  0.75316  1.0000
  H   H1069     1.0  0.76149  0.71251  0.96561  1.0000
  H   H1070     1.0  0.94485  0.69940  0.85828  1.0000
  H   H1071     1.0  0.90684  0.72665  0.82913  1.0000
  C   C1071     1.0  0.81746  0.90307  0.65296  1.0000
  C   C1072     1.0  0.79734  0.88604  0.64251  1.0000
  C   C1073     1.0  0.79202  0.86016  0.65793  1.0000
  C   C1074     1.0  0.80677  0.85109  0.68385  1.0000
  C   C1075     1.0  0.82770  0.86761  0.69363  1.0000
  C   C1076     1.0  0.83284  0.89356  0.67837  1.0000
  H   H1072     1.0  0.78534  0.89304  0.62297  1.0000
  H   H1073     1.0  0.77592  0.84744  0.65001  1.0000
  H   H1074     1.0  0.83940  0.86072  0.71335  1.0000
  H   H1075     1.0  0.88259  0.90943  0.62952  1.0000
  C   C1077     1.0  0.80460  0.91228  0.89862  1.0000
  C   C1078     1.0  0.83222  0.91885  0.88837  1.0000
  C   C1079     1.0  0.84597  0.90426  0.86507  1.0000
  C   C1080     1.0  0.83233  0.88293  0.85213  1.0000
  C   C1081     1.0  0.80462  0.87683  0.86217  1.0000
  C   C1082     1.0  0.79097  0.89149  0.88524  1.0000
  H   H1076     1.0  0.84302  0.93491  0.89845  1.0000
  H   H1077     1.0  0.86740  0.90926  0.85730  1.0000
  H   H1078     1.0  0.79389  0.86046  0.85254  1.0000
  H   H1079     1.0  0.78650  0.67209  0.50042  1.0000
  C   C1083     1.0  0.96967  0.64056  0.58755  1.0000
  H   H1080     1.0  0.84128  0.58919  0.52018  1.0000
  H   H1081     1.0  0.77906  0.69147  0.65921  1.0000
  C   C1084     1.0  0.90683  0.90804  0.58782  1.0000
  H   H1082     1.0  0.92847  0.91337  0.54513  1.0000
  H   H1083     1.0  0.76001  0.67125  0.54932  1.0000
  C   C1085     1.0  0.87826  0.76249  0.68719  1.0000
  C   C1086     1.0  0.89699  0.89160  0.96448  1.0000
  H   H1084     1.0  0.83601  0.81627  0.60511  1.0000
  H   H1085     1.0  0.91080  0.97413  0.52115  1.0000
  C   C1087     1.0  0.91312  0.66064  0.78965  1.0000
  H   H1086     1.0  0.80487  0.70363  0.70300  1.0000
  C   C1088     1.0  0.94749  0.74497  0.58172  1.0000
  C   C1089     1.0  0.92880  0.76262  0.56438  1.0000
  C   C1090     1.0  0.92617  0.75854  0.53423  1.0000
  H   H1087     1.0  0.99466  0.62080  0.76367  1.0000
  H   H1088     1.0  0.91746  0.78047  0.57380  1.0000
  H   H1089     1.0  0.91285  0.77328  0.52069  1.0000
  C   C1091     1.0  0.77216  0.68906  0.54186  1.0000
  C   C1092     1.0  0.78779  0.73499  0.54970  1.0000
  C   C1093     1.0  0.92382  0.64190  0.70485  1.0000
  C   C1094     1.0  0.90794  0.66521  0.69234  1.0000
  C   C1095     1.0  0.87787  0.66484  0.69077  1.0000
  C   C1096     1.0  0.86333  0.64124  0.70174  1.0000
  C   C1097     1.0  0.87917  0.61798  0.71448  1.0000
  C   C1098     1.0  0.90930  0.61833  0.71598  1.0000
  H   H1090     1.0  0.91878  0.68349  0.68366  1.0000
  C   C1099     1.0  0.77275  0.53379  0.90920  1.0000
  H   H1091     1.0  0.76476  0.48570  0.56308  1.0000
  C   C1100     1.0  0.98073  0.61761  0.63673  1.0000
  H   H1092     1.0  0.76514  0.87643  0.80575  1.0000
  C   C1101     1.0  0.78740  0.68940  0.51427  1.0000
  H   H1093     1.0  0.80818  0.69607  0.75769  1.0000
  C   C1102     1.0  0.87276  0.48656  0.96132  1.0000
  S   S377      1.0  0.75788  0.60795  0.68381  1.0000
  C   C1103     1.0  0.81970  0.59905  0.61494  1.0000
  S   S378      1.0  0.94550  0.73801  0.48216  1.0000
  C   C1104     1.0  0.96422  0.61800  0.49401  1.0000
  H   H1094     1.0  0.81897  0.63931  0.53763  1.0000
  C   C1105     1.0  0.92815  0.96925  0.53730  1.0000
  C   C1106     1.0  0.87561  0.88754  0.94470  1.0000
  H   H1095     1.0  0.85102  0.81931  0.97183  1.0000
  N   N91       1.0  0.91699  0.95268  0.56332  1.0000
  Fe  Fe191     1.0  0.76135  0.49913  0.48335  1.0000
  S   S379      1.0  0.77549  0.53311  0.94901  1.0000
  N   N92       1.0  0.78313  0.72153  0.92384  1.0000
  C   C1107     1.0  0.81757  0.64282  0.58499  1.0000
  H   H1096     1.0  0.77910  0.89763  0.71305  1.0000
  H   H1097     1.0  0.95510  0.65463  0.60069  1.0000
  C   C1108     1.0  0.76341  0.70625  0.90744  1.0000
  H   H1098     1.0  0.89584  0.67359  0.77926  1.0000
  H   H1099     1.0  0.84847  0.90659  0.68659  1.0000
  S   S380      1.0  0.76603  0.61282  0.75605  1.0000
  C   C1109     1.0  0.76003  0.53004  0.61989  1.0000
  C   C1110     1.0  0.79591  0.73944  0.96973  1.0000
  C   C1111     1.0  0.80480  0.89340  0.76543  1.0000
  C   C1112     1.0  0.76311  0.50521  0.57388  1.0000
  H   H1100     1.0  0.92840  0.61905  0.85199  1.0000
  C   C1113     1.0  0.90866  0.64609  0.81719  1.0000
  C   C1114     1.0  0.85659  0.82077  0.61492  1.0000
  H   H1101     1.0  0.92228  0.76859  0.67334  1.0000
  H   H1102     1.0  0.88383  0.74813  0.70613  1.0000
  C   C1115     1.0  0.76429  0.51212  0.86300  1.0000
  N   N93       1.0  0.93793  0.80890  0.80523  1.0000
  C   C1116     1.0  0.92250  0.83368  0.80891  1.0000
  C   C1117     1.0  0.94702  0.80183  0.77737  1.0000
  C   C1118     1.0  0.91635  0.85237  0.78439  1.0000
  C   C1119     1.0  0.94127  0.81995  0.75235  1.0000
  C   C1120     1.0  0.92587  0.84544  0.75594  1.0000
  C   C1121     1.0  0.94492  0.79017  0.83143  1.0000
  H   H1103     1.0  0.91470  0.83915  0.83088  1.0000
  H   H1104     1.0  0.95892  0.78208  0.77424  1.0000
  H   H1105     1.0  0.90385  0.87185  0.78757  1.0000
  H   H1106     1.0  0.94880  0.81399  0.73046  1.0000
  H   H1107     1.0  0.92099  0.85961  0.73672  1.0000
  H   H1108     1.0  0.95765  0.80111  0.84684  1.0000
  H   H1109     1.0  0.92486  0.78365  0.84331  1.0000
  H   H1110     1.0  0.95800  0.77107  0.82543  1.0000
  C   C1122     1.0  0.84954  0.76964  0.68104  1.0000
  H   H1111     1.0  0.95660  0.63043  0.57172  1.0000
  S   S381      1.0  0.76736  0.53749  0.80572  1.0000
  C   C1123     1.0  0.99478  0.69715  0.91765  1.0000
  H   H1112     1.0  0.76529  0.87694  0.51348  1.0000
  C   C1124     1.0  0.95843  0.62889  0.81569  1.0000
  H   H1113     1.0  0.88073  0.88657  0.92103  1.0000
  C   C1125     1.0  0.75968  0.55548  0.60264  1.0000
  H   H1114     1.0  0.90945  0.80158  0.63063  1.0000
  H   H1115     1.0  0.87327  0.82098  0.59662  1.0000
  S   S382      1.0  0.96660  0.80724  0.50571  1.0000
  C   C1126     1.0  0.80439  0.73571  0.90880  1.0000
  H   H1116     1.0  0.94378  0.67128  0.75488  1.0000
  H   H1117     1.0  0.78330  0.57699  0.90272  1.0000
  C   C1127     1.0  0.75720  0.87951  0.78333  1.0000
  C   C1128     1.0  0.89287  0.92148  0.61125  1.0000
  H   H1118     1.0  0.78807  0.75269  0.56329  1.0000
  C   C1129     1.0  0.89121  0.95065  0.61057  1.0000
  S   S383      1.0  0.90217  0.85917  0.53086  1.0000
  C   C1130     1.0  0.78590  0.69824  0.71631  1.0000
  C   C1131     1.0  0.81771  0.75384  0.95461  1.0000
  C   C1132     1.0  0.76568  0.51052  0.89447  1.0000
  C   C1133     1.0  0.80358  0.73503  0.52252  1.0000
  C   C1134     1.0  0.95944  0.71777  0.53893  1.0000
  H   H1119     1.0  0.83867  0.76342  0.91189  1.0000
  H   H1120     1.0  0.88767  0.64744  0.82835  1.0000
  H   H1121     1.0  0.85379  0.84189  0.62369  1.0000
  C   C1135     1.0  0.94039  0.65906  0.77574  1.0000
  C   C1136     1.0  0.94236  0.73690  0.52115  1.0000
  H   H1122     1.0  0.80710  0.73536  0.88477  1.0000
  C   C1137     1.0  0.84286  0.78840  0.65671  1.0000
  Fe  Fe192     1.0  0.80174  0.95047  0.52438  1.0000
  H   H1123     1.0  0.91885  0.89434  0.95616  1.0000
  H   H1124     1.0  0.81971  0.58755  0.63662  1.0000
  C   C1138     1.0  0.96204  0.72184  0.56937  1.0000
  N   N94       1.0  0.96260  0.64329  0.78873  1.0000
  C   C1139     1.0  0.81782  0.62826  0.61296  1.0000
  C   C1140     1.0  0.99103  0.64127  0.77374  1.0000
  C   C1141     1.0  0.77639  0.56037  0.86031  1.0000
  H   H1125     1.0  0.80681  0.90205  0.78750  1.0000
  H   H1126     1.0  0.96500  0.63188  0.64691  1.0000
  C   C1142     1.0  0.91855  0.92406  0.56370  1.0000
  C   C1143     1.0  0.77792  0.55874  0.89179  1.0000
  C   C1144     1.0  0.76135  0.55571  0.57124  1.0000
  H   H1127     1.0  0.90770  0.88538  0.58776  1.0000
  C   C1145     1.0  0.81914  0.62786  0.55931  1.0000
  C   C1146     1.0  0.78799  0.69382  0.74721  1.0000
  H   H1128     1.0  0.83135  0.87935  0.94039  1.0000
  H   H1129     1.0  0.00213  0.70264  0.78151  1.0000
  H   H1130     1.0  0.81656  0.63957  0.63309  1.0000
  H   H1131     1.0  0.76523  0.68279  0.78845  1.0000
  H   H1132     1.0  0.99768  0.76610  0.54780  1.0000
  H   H1133     1.0  0.97641  0.70807  0.58276  1.0000
  H   H1134     1.0  0.94666  0.95796  0.52626  1.0000
  H   H1135     1.0  0.93467  0.65243  0.50508  1.0000
  N   N95       1.0  0.76060  0.69486  0.70296  1.0000
  H   H1136     1.0  0.75600  0.68766  0.92101  1.0000
  H   H1137     1.0  0.76113  0.57553  0.55819  1.0000
  H   H1138     1.0  0.82213  0.56109  0.53878  1.0000
  C   C1147     1.0  0.76517  0.89086  0.73160  1.0000
  H   H1139     1.0  0.81805  0.87335  0.76523  1.0000
  C   C1148     1.0  0.98316  0.69949  0.94642  1.0000
  N   N96       1.0  0.77484  0.88837  0.76005  1.0000
  H   H1140     1.0  0.98094  0.69606  0.89903  1.0000
  H   H1141     1.0  0.77383  0.69895  0.88652  1.0000
  H   H1142     1.0  0.77406  0.59136  0.97343  1.0000
  H   H1143     1.0  0.97626  0.61688  0.82618  1.0000
  H   H1144     1.0  0.86067  0.76415  0.48393  1.0000
  H   H1145     1.0  0.75889  0.49388  0.85203  1.0000
  H   H1146     1.0  0.99308  0.59702  0.67903  1.0000
  C   C1149     1.0  0.76137  0.50497  0.60528  1.0000
  H   H1147     1.0  0.99327  0.65810  0.75578  1.0000
  C   C1150     1.0  0.84587  0.49419  0.94944  1.0000
  H   H1148     1.0  0.86814  0.92228  0.49364  1.0000
  C   C1151     1.0  0.99639  0.59783  0.65500  1.0000
  H   H1149     1.0  0.78060  0.57969  0.84746  1.0000
  H   H1150     1.0  0.82389  0.80371  0.48358  1.0000
  H   H1151     1.0  0.88577  0.50277  0.96816  1.0000
  S   S384      1.0  0.75724  0.52834  0.65956  1.0000
  C   C1152     1.0  0.75897  0.69963  0.67053  1.0000
  H   H1152     1.0  0.75560  0.72239  0.66422  1.0000
