data_image0
_chemical_formula_structural       FeS2FeS2FeSFeS3HSHCSFeS2CHSHSCHC3H4C6HC6H4C2H2FeHFeHC3H4C2NHCHCHNHCHCHNHCH2CHC2NHCH4C2HCH2NC6H4SH3CHC4H4CH2C2HSH3C2HC5H2FeS2FeSHFeSFeS3FeS2FeS2FeSFeS3FeS2CH4SFeS2C2SHC2FeCHCNHC2HSH3FeC2HC6H4SHC6H5C3SH2SHC3H3CHC3HC3HNC6H8NC6H7CNCSCHC2H2CHC2H2NFeHCH2CH2C4FeH2C2H5FeS2FeS2FeSFeS3FeS2FeS2FeNFeS3FeS2FeCSC2H2CHC5HCH5C6H4C2NC2HCNC6H4CH2CHC3HC2HC2NH2CHCNC6H8NC6H5C3HC3H2SHCH2NHCHCHSH3CHCNH3CH2CH2SCH5C2HC3HC2H3CHCH3FeSCFeSCFeSFeS3HSC2SC2HFeS2FeCH2CHSCHSHC3HCNHNC3HSCHC3HCH2C6H4FeHCH2FeC2H2CSHCH2CHCHCHSHCSCH3SCHCHCHSCSNCHSH2C2HFeH7CH3CHNC3H4CH2FeC2H2SC5H2CFeS2FeSFeS3HSFeS2CFeHC3NC4H2C4H2CH3C3H5CHC2NSCHCHC3H6CHCH2CHCH2C2HCHC2H4CSHCHC2SFeS2FeS2FeCFeS3HFeS2FeS2FeSFeS3FeS2NC3H2FeCH3C4H2C6H4C6H4C6H4CHC3HCH3NCHC2HCH2CHCH2CH2CH2CHC2H2CHC2HCNC6H7SC2SH8SCHC3HCHN2SHC3HSHFeHCNC2HC2HCSCH2CHC3H2CH2FeS2FeS2FeSFeS3FeS2FeS2FeSFeS3FeS2CHCHCH2CHCH2C6H4C6H4C6H4C2H3CHC4H3CNC3HC2HSCH4CHCH2C3H5C3HCNCNC5HCH5CHNC6H8C2H3C2HCHCH2C3NH3CHFeSH2FeSFeS3FeC2H2FeS2CHC2HSC2HC4HSHC2H2C5HCH2SFe2HCH2CHCH2NS2HCHCHCH3CHCHNH4C2H2C2SC2H2NCSC2NH2FeC2FeS2FeCHCS2C5H4NC4FeHC8HCHCHCHFeH2C3HFeC2H2CHNSH3CHC2SH2SHCHSH2NCHC2H3C3H5C4HCSHSHSFeS2FeS2FeSFeS3FeS2FeS2FeSFeS3FeS2H3C2HCH4C2HC6H4C6H4C2FeH2C6H4C4H4C2H2C10H2NCHC3H5C2NH5CH4C3HCNHC2H3SNHCNHNCH2CH6CHCH3C10H3CHNHC4H2CH4FeS2FeS2FeSFeS3HCSFeS2FeS2FeSFeS3FeS2C8H4C4H4CH3C2HCHCHC6H4C6H3CHCHCHNC6H10C2H3CH2CHNHCH3CH3CH2CH2NC5HCSCH3FeNC4HSHCHCH2C2H2CHCHC3HFeCHFeS2H2CFeSNC3H3CHCSCSH3SHC2HC2H3SCH2C3HCSNSFeHCHCHFeHC4HC4HCHNHSNC2H3C2H2CS2HC2HCH4NH2FeS2FeHFeS2CFeS2FeS2FeSFeS3FeS2FeSH2FeS2FeSCFeS2FeS2CH3CHC4HC3H3C6H4C3H2CH2CNHSHCHC2H5C4HC2HSC2H4CH6CNC2NH2C2SHC2HCHC2HCSC2H8CS2HCHNC3HCH2CHC3HNCHC4H3C2H2CH3NCHC2FeS2FeS2Fe2CS2FeS2FeSFeS3CHCH3FeS2FeS2C2HC2H2CHCFeCHC3HC2HC2H2C8H4CHCH2C6H4C3HSNHCHSCH3C2HC2HNC6H3C2H5C2HSHS2HNH3FeH3NC2HCH2FeHCH2CSCFeCHCFeS2FeS2FeSFeS2FeS2FeSFeS3FeS2FeS2HC2H4FeHC2HCHC2HSC2H2C6H5C2H2CHCSHC6H4SHC2NCH2C2H3CH2CHCNCNC7H2C3HC3NC6H9CH7SCH2CHCNC3NCH2SC2H8C2HFeCH2CHC2H2CHSFeSHCFeCSFeSCFeSHFeS2FeHFe2S2FeSHFeSCFeS2FeS2HCHFeS2FeCSHC2FeS2CNSFeCHC2S2CHC2H2CH2CH2CSCHC6H5C2NCHCH2C3FeHC2HCHC2H2CHSHCHN2C6H8CH2CHSCHC2SCS2HCHCSH2SNC3HCHC2HNCSCFeCH5CHFeCH2C3H4CH6S
_chemical_formula_sum              "Fe160 S320 H960 C960 N80"
_cell_length_a       60.3594
_cell_length_b       57.7117
_cell_length_c       62.13
_cell_angle_alpha    90.787
_cell_angle_beta     91.0211
_cell_angle_gamma    121.435

_space_group_name_H-M_alt    "P 1"
_space_group_IT_number       1

loop_
  _space_group_symop_operation_xyz
  'x, y, z'

loop_
  _atom_site_type_symbol
  _atom_site_label
  _atom_site_symmetry_multiplicity
  _atom_site_fract_x
  _atom_site_fract_y
  _atom_site_fract_z
  _atom_site_occupancy
  Fe  Fe1       1.0  0.33273  0.35747  0.20107  1.0000
  S   S1        1.0  0.35100  0.37274  0.16888  1.0000
  S   S2        1.0  0.31320  0.37928  0.21492  1.0000
  Fe  Fe2       1.0  0.34705  0.31366  0.20073  1.0000
  S   S3        1.0  0.36552  0.32574  0.16820  1.0000
  S   S4        1.0  0.33789  0.27594  0.21982  1.0000
  Fe  Fe3       1.0  0.38422  0.36913  0.18146  1.0000
  S   S5        1.0  0.42746  0.39858  0.17368  1.0000
  Fe  Fe4       1.0  0.33101  0.32874  0.15785  1.0000
  S   S6        1.0  0.30612  0.31892  0.12641  1.0000
  S   S7        1.0  0.36738  0.35661  0.21451  1.0000
  S   S8        1.0  0.31127  0.31399  0.18947  1.0000
  H   H1        1.0  0.40882  0.09935  0.21836  1.0000
  S   S9        1.0  0.39056  0.04434  0.20503  1.0000
  H   H2        1.0  0.01623  0.31895  0.06667  1.0000
  C   C1        1.0  0.34443  0.04805  0.17888  1.0000
  S   S10       1.0  0.01794  0.35231  0.23147  1.0000
  Fe  Fe5       1.0  0.23779  0.22559  0.01232  1.0000
  S   S11       1.0  0.19658  0.19020  0.01544  1.0000
  S   S12       1.0  0.26759  0.24118  0.04107  1.0000
  C   C2        1.0  0.06214  0.35314  0.21762  1.0000
  H   H3        1.0  0.25877  0.05846  0.03645  1.0000
  S   S13       1.0  0.22646  0.03976  0.99822  1.0000
  H   H4        1.0  0.29975  0.03229  0.05644  1.0000
  S   S14       1.0  0.00331  0.36415  0.16761  1.0000
  C   C3        1.0  0.22370  0.03042  0.05221  1.0000
  H   H5        1.0  0.37349  0.03873  0.13675  1.0000
  C   C4        1.0  0.25670  0.31211  0.16828  1.0000
  C   C5        1.0  0.99401  0.14515  0.03196  1.0000
  C   C6        1.0  0.23592  0.32425  0.20301  1.0000
  H   H6        1.0  0.28693  0.40574  0.22971  1.0000
  H   H7        1.0  0.39577  0.11997  0.24709  1.0000
  H   H8        1.0  0.28547  0.33215  0.24291  1.0000
  H   H9        1.0  0.21315  0.03960  0.04609  1.0000
  C   C7        1.0  0.45102  0.43413  0.17758  1.0000
  C   C8        1.0  0.47582  0.44492  0.16880  1.0000
  C   C9        1.0  0.11087  0.22910  0.00234  1.0000
  C   C10       1.0  0.46543  0.47954  0.19212  1.0000
  C   C11       1.0  0.44595  0.45175  0.18919  1.0000
  C   C12       1.0  0.32670  0.01399  0.15113  1.0000
  H   H10       1.0  0.42708  0.44397  0.19607  1.0000
  C   C13       1.0  0.29455  0.29592  0.10345  1.0000
  C   C14       1.0  0.30246  0.27740  0.09945  1.0000
  C   C15       1.0  0.29392  0.26088  0.08042  1.0000
  C   C16       1.0  0.27690  0.26207  0.06521  1.0000
  C   C17       1.0  0.26866  0.28029  0.06941  1.0000
  C   C18       1.0  0.27757  0.29717  0.08825  1.0000
  H   H11       1.0  0.31527  0.27586  0.11094  1.0000
  H   H12       1.0  0.30042  0.24687  0.07748  1.0000
  H   H13       1.0  0.25568  0.28163  0.05797  1.0000
  H   H14       1.0  0.27124  0.31135  0.09101  1.0000
  C   C19       1.0  0.38013  0.05794  0.22561  1.0000
  C   C20       1.0  0.04818  0.35412  0.23498  1.0000
  H   H15       1.0  0.48008  0.43163  0.15973  1.0000
  H   H16       1.0  0.11973  0.41507  0.22175  1.0000
  Fe  Fe6       1.0  0.37252  0.99992  0.19362  1.0000
  H   H17       1.0  0.29496  0.35413  0.15051  1.0000
  Fe  Fe7       1.0  0.99337  0.34796  0.20128  1.0000
  H   H18       1.0  0.23340  0.27033  0.17762  1.0000
  C   C21       1.0  0.22994  0.08955  0.00267  1.0000
  C   C22       1.0  0.22859  0.29735  0.19871  1.0000
  C   C23       1.0  0.35747  0.26418  0.23126  1.0000
  H   H19       1.0  0.36052  0.06690  0.18572  1.0000
  H   H20       1.0  0.12425  0.24584  0.01296  1.0000
  H   H21       1.0  0.37325  0.06976  0.14036  1.0000
  H   H22       1.0  0.21508  0.28140  0.20904  1.0000
  C   C24       1.0  0.12872  0.42263  0.23760  1.0000
  C   C25       1.0  0.27896  0.38691  0.23820  1.0000
  N   N1        1.0  0.26434  0.33853  0.17301  1.0000
  H   H23       1.0  0.29703  0.37844  0.16976  1.0000
  C   C26       1.0  0.24957  0.04099  0.04673  1.0000
  H   H24       1.0  0.27288  0.36623  0.14792  1.0000
  C   C27       1.0  0.08614  0.35490  0.22129  1.0000
  H   H25       1.0  0.05441  0.35094  0.20137  1.0000
  N   N2        1.0  0.15330  0.42806  0.24204  1.0000
  H   H26       1.0  0.17936  0.44365  0.21628  1.0000
  C   C28       1.0  0.35951  0.04141  0.23885  1.0000
  H   H27       1.0  0.35768  0.31309  0.09358  1.0000
  C   C29       1.0  0.37171  0.05214  0.14873  1.0000
  H   H28       1.0  0.00704  0.32343  0.01292  1.0000
  N   N3        1.0  0.26273  0.02887  0.05342  1.0000
  H   H29       1.0  0.99631  0.47212  0.14386  1.0000
  C   C30       1.0  0.38462  0.28009  0.23222  1.0000
  H   H30       1.0  0.07956  0.23679  0.00648  1.0000
  H   H31       1.0  0.25993  0.36564  0.19360  1.0000
  C   C31       1.0  0.28316  0.36041  0.15957  1.0000
  H   H32       1.0  0.38837  0.05945  0.16041  1.0000
  C   C32       1.0  0.28879  0.36984  0.23447  1.0000
  C   C33       1.0  0.99886  0.30282  0.07376  1.0000
  N   N4        1.0  0.34708  0.03754  0.15991  1.0000
  H   H33       1.0  0.22834  0.32942  0.21679  1.0000
  C   C34       1.0  0.99476  0.14049  0.00990  1.0000
  H   H34       1.0  0.34936  0.01955  0.23668  1.0000
  H   H35       1.0  0.00227  0.32746  0.10183  1.0000
  H   H36       1.0  0.26471  0.30713  0.15473  1.0000
  H   H37       1.0  0.09672  0.35409  0.20772  1.0000
  C   C35       1.0  0.25381  0.34468  0.18983  1.0000
  C   C36       1.0  0.23890  0.29116  0.18115  1.0000
  H   H38       1.0  0.31984  0.04207  0.20567  1.0000
  C   C37       1.0  0.32140  0.03414  0.19020  1.0000
  H   H39       1.0  0.18119  0.41840  0.23203  1.0000
  H   H40       1.0  0.28847  0.03191  0.02943  1.0000
  N   N5        1.0  0.39404  0.38630  0.11773  1.0000
  C   C38       1.0  0.40327  0.36953  0.12178  1.0000
  C   C39       1.0  0.37173  0.37709  0.10556  1.0000
  C   C40       1.0  0.39042  0.34300  0.11312  1.0000
  C   C41       1.0  0.35866  0.35084  0.09637  1.0000
  C   C42       1.0  0.36804  0.33370  0.10025  1.0000
  C   C43       1.0  0.40731  0.41381  0.12737  1.0000
  H   H41       1.0  0.42054  0.37650  0.13190  1.0000
  H   H42       1.0  0.36378  0.38992  0.10303  1.0000
  H   H43       1.0  0.39757  0.32964  0.11664  1.0000
  H   H44       1.0  0.34081  0.34345  0.08690  1.0000
  S   S15       1.0  0.99573  0.27258  0.03746  1.0000
  H   H45       1.0  0.42837  0.42183  0.13033  1.0000
  H   H46       1.0  0.40575  0.42820  0.11669  1.0000
  H   H47       1.0  0.39874  0.41354  0.14312  1.0000
  C   C44       1.0  0.38557  0.09812  0.24487  1.0000
  H   H48       1.0  0.39443  0.29971  0.22481  1.0000
  C   C45       1.0  0.39296  0.08634  0.22862  1.0000
  C   C46       1.0  0.25072  0.00615  0.06560  1.0000
  C   C47       1.0  0.09657  0.35779  0.24230  1.0000
  C   C48       1.0  0.28923  0.03936  0.04620  1.0000
  H   H49       1.0  0.32861  0.00583  0.13592  1.0000
  H   H50       1.0  0.15460  0.40774  0.21362  1.0000
  H   H51       1.0  0.23363  0.12892  0.00655  1.0000
  H   H52       1.0  0.46122  0.49281  0.20128  1.0000
  C   C49       1.0  0.30075  0.00969  0.18165  1.0000
  H   H53       1.0  0.48921  0.44467  0.21656  1.0000
  H   H54       1.0  0.30061  0.06191  0.04663  1.0000
  C   C50       1.0  0.21130  0.00727  0.06462  1.0000
  C   C51       1.0  0.16793  0.42451  0.22508  1.0000
  H   H55       1.0  0.01168  0.15415  0.04188  1.0000
  S   S16       1.0  0.12777  0.36184  0.24574  1.0000
  H   H56       1.0  0.24677  0.09517  0.01290  1.0000
  H   H57       1.0  0.01316  0.14570  0.00302  1.0000
  H   H58       1.0  0.32416  0.22612  0.24026  1.0000
  C   C52       1.0  0.22250  0.10883  0.99912  1.0000
  C   C53       1.0  0.39912  0.27086  0.24330  1.0000
  H   H59       1.0  0.42008  0.28356  0.24424  1.0000
  C   C54       1.0  0.27825  0.34558  0.24563  1.0000
  C   C55       1.0  0.49031  0.49030  0.18354  1.0000
  C   C56       1.0  0.34514  0.23867  0.24101  1.0000
  C   C57       1.0  0.30327  0.99967  0.16187  1.0000
  C   C58       1.0  0.08538  0.22399  0.99870  1.0000
  H   H60       1.0  0.19103  0.99846  0.06847  1.0000
  H   H61       1.0  0.28294  0.99838  0.19041  1.0000
  Fe  Fe8       1.0  0.19506  0.41450  0.30590  1.0000
  S   S17       1.0  0.15150  0.38834  0.30798  1.0000
  S   S18       1.0  0.21313  0.46064  0.30660  1.0000
  Fe  Fe9       1.0  0.20034  0.36640  0.29127  1.0000
  S   S19       1.0  0.15706  0.33738  0.29220  1.0000
  H   H62       1.0  0.22856  0.45667  0.35085  1.0000
  Fe  Fe10      1.0  0.15246  0.36948  0.27647  1.0000
  S   S20       1.0  0.17665  0.02641  0.48434  1.0000
  Fe  Fe11      1.0  0.15923  0.35807  0.32384  1.0000
  S   S21       1.0  0.13245  0.33047  0.34989  1.0000
  S   S22       1.0  0.19570  0.39713  0.27326  1.0000
  S   S23       1.0  0.20286  0.38554  0.32404  1.0000
  Fe  Fe12      1.0  0.36632  0.16933  0.32987  1.0000
  S   S24       1.0  0.40501  0.20763  0.32532  1.0000
  S   S25       1.0  0.33600  0.16840  0.35216  1.0000
  Fe  Fe13      1.0  0.37561  0.13884  0.29309  1.0000
  S   S26       1.0  0.41474  0.17509  0.28586  1.0000
  S   S27       1.0  0.35593  0.09509  0.27986  1.0000
  Fe  Fe14      1.0  0.42148  0.18065  0.32182  1.0000
  S   S28       1.0  0.45614  0.18332  0.33988  1.0000
  Fe  Fe15      1.0  0.39528  0.19955  0.28968  1.0000
  S   S29       1.0  0.40595  0.23662  0.26930  1.0000
  S   S30       1.0  0.38326  0.14279  0.32896  1.0000
  S   S31       1.0  0.35563  0.16278  0.29435  1.0000
  Fe  Fe16      1.0  0.12847  0.26135  0.46462  1.0000
  S   S32       1.0  0.09962  0.21604  0.46449  1.0000
  S   S33       1.0  0.15416  0.28727  0.43717  1.0000
  C   C59       1.0  0.39424  0.07802  0.30931  1.0000
  H   H63       1.0  0.32076  0.27019  0.27490  1.0000
  H   H64       1.0  0.16875  0.06861  0.46499  1.0000
  H   H65       1.0  0.20179  0.19654  0.45814  1.0000
  H   H66       1.0  0.12553  0.11626  0.43606  1.0000
  S   S34       1.0  0.03288  0.21388  0.48144  1.0000
  Fe  Fe17      1.0  0.26638  0.11117  0.46655  1.0000
  S   S35       1.0  0.22505  0.09690  0.45670  1.0000
  S   S36       1.0  0.29680  0.11362  0.44344  1.0000
  C   C60       1.0  0.23249  0.48520  0.32704  1.0000
  C   C61       1.0  0.35963  0.22946  0.25209  1.0000
  S   S37       1.0  0.21383  0.15633  0.47013  1.0000
  H   H67       1.0  0.30206  0.07976  0.33116  1.0000
  C   C62       1.0  0.08261  0.35875  0.25967  1.0000
  C   C63       1.0  0.25836  0.33872  0.26046  1.0000
  Fe  Fe18      1.0  0.22836  0.12839  0.48080  1.0000
  C   C64       1.0  0.15672  0.07665  0.46951  1.0000
  H   H68       1.0  0.36311  0.31116  0.26714  1.0000
  C   C65       1.0  0.14163  0.06715  0.48771  1.0000
  N   N6        1.0  0.36051  0.25437  0.30139  1.0000
  H   H69       1.0  0.38480  0.08793  0.31725  1.0000
  C   C66       1.0  0.00146  0.18772  0.48940  1.0000
  C   C67       1.0  0.23654  0.47788  0.34743  1.0000
  H   H70       1.0  0.09037  0.36101  0.27591  1.0000
  S   S38       1.0  0.15104  0.26091  0.49391  1.0000
  H   H71       1.0  0.40192  0.27795  0.30182  1.0000
  H   H72       1.0  0.31938  0.23366  0.29646  1.0000
  H   H73       1.0  0.20292  0.48649  0.38430  1.0000
  Fe  Fe19      1.0  0.07560  0.22561  0.48644  1.0000
  C   C68       1.0  0.19293  0.16607  0.48178  1.0000
  C   C69       1.0  0.42201  0.08940  0.27801  1.0000
  H   H74       1.0  0.25055  0.32003  0.26912  1.0000
  C   C70       1.0  0.32770  0.15588  0.37874  1.0000
  C   C71       1.0  0.30852  0.15820  0.38940  1.0000
  C   C72       1.0  0.29954  0.14638  0.40961  1.0000
  C   C73       1.0  0.30961  0.13198  0.41940  1.0000
  C   C74       1.0  0.32936  0.13038  0.40902  1.0000
  C   C75       1.0  0.33839  0.14226  0.38885  1.0000
  H   H75       1.0  0.30019  0.16882  0.38183  1.0000
  H   H76       1.0  0.28443  0.14792  0.41738  1.0000
  H   H77       1.0  0.33742  0.11945  0.41650  1.0000
  H   H78       1.0  0.35332  0.14049  0.38102  1.0000
  S   S39       1.0  0.10340  0.27092  0.48445  1.0000
  H   H79       1.0  0.34087  0.21891  0.32064  1.0000
  C   C76       1.0  0.13885  0.32064  0.37518  1.0000
  C   C77       1.0  0.11795  0.29977  0.38625  1.0000
  C   C78       1.0  0.12211  0.28999  0.40567  1.0000
  C   C79       1.0  0.14730  0.30100  0.41430  1.0000
  C   C80       1.0  0.16813  0.32236  0.40351  1.0000
  C   C81       1.0  0.16397  0.33216  0.38408  1.0000
  H   H80       1.0  0.09841  0.29083  0.37960  1.0000
  H   H81       1.0  0.10590  0.27356  0.41374  1.0000
  H   H82       1.0  0.18768  0.33114  0.41009  1.0000
  H   H83       1.0  0.18023  0.34833  0.37586  1.0000
  H   H84       1.0  0.11397  0.43528  0.28723  1.0000
  C   C82       1.0  0.35974  0.23190  0.31280  1.0000
  C   C83       1.0  0.15563  0.17866  0.49596  1.0000
  C   C84       1.0  0.14004  0.12671  0.44943  1.0000
  S   S40       1.0  0.27078  0.14459  0.48902  1.0000
  H   H85       1.0  0.40396  0.31517  0.28090  1.0000
  H   H86       1.0  0.33624  0.04016  0.26532  1.0000
  S   S41       1.0  0.22353  0.34619  0.28318  1.0000
  H   H87       1.0  0.15949  0.44701  0.29461  1.0000
  C   C85       1.0  0.12590  0.09723  0.48067  1.0000
  C   C86       1.0  0.24856  0.35584  0.26420  1.0000
  C   C87       1.0  0.36521  0.08157  0.25833  1.0000
  H   H88       1.0  0.36291  0.21912  0.30124  1.0000
  H   H89       1.0  0.44699  0.10141  0.25072  1.0000
  H   H90       1.0  0.16936  0.20761  0.47066  1.0000
  C   C88       1.0  0.38530  0.29788  0.28505  1.0000
  H   H91       1.0  0.15939  0.14080  0.44265  1.0000
  C   C89       1.0  0.17161  0.19247  0.47881  1.0000
  C   C90       1.0  0.25892  0.37994  0.25286  1.0000
  C   C91       1.0  0.43148  0.12390  0.30425  1.0000
  H   H92       1.0  0.40099  0.06924  0.32171  1.0000
  C   C92       1.0  0.19003  0.18614  0.47176  1.0000
  C   C93       1.0  0.16453  0.43742  0.26208  1.0000
  C   C94       1.0  0.12614  0.07754  0.49342  1.0000
  H   H93       1.0  0.34978  0.20996  0.25969  1.0000
  N   N7        1.0  0.16333  0.28919  0.34261  1.0000
  C   C95       1.0  0.16739  0.28328  0.36302  1.0000
  C   C96       1.0  0.18391  0.30680  0.33056  1.0000
  C   C97       1.0  0.19250  0.29596  0.37219  1.0000
  C   C98       1.0  0.20925  0.31995  0.33924  1.0000
  C   C99       1.0  0.21352  0.31460  0.36025  1.0000
  C   C100      1.0  0.13688  0.27567  0.33327  1.0000
  H   H94       1.0  0.15109  0.26951  0.37270  1.0000
  H   H95       1.0  0.18088  0.31099  0.31417  1.0000
  H   H96       1.0  0.19543  0.29194  0.38870  1.0000
  H   H97       1.0  0.22539  0.33434  0.32968  1.0000
  H   H98       1.0  0.23303  0.32500  0.36730  1.0000
  H   H99       1.0  0.13204  0.25646  0.32484  1.0000
  H   H100      1.0  0.12250  0.27134  0.34593  1.0000
  H   H101      1.0  0.13480  0.28904  0.32175  1.0000
  N   N8        1.0  0.28980  0.09190  0.35874  1.0000
  C   C101      1.0  0.29127  0.07713  0.37515  1.0000
  C   C102      1.0  0.27271  0.10071  0.35951  1.0000
  C   C103      1.0  0.27567  0.07120  0.39310  1.0000
  C   C104      1.0  0.25669  0.09498  0.37715  1.0000
  C   C105      1.0  0.25834  0.08027  0.39409  1.0000
  C   C106      1.0  0.30703  0.09850  0.34049  1.0000
  H   H102      1.0  0.30523  0.07069  0.37478  1.0000
  H   H103      1.0  0.27210  0.11315  0.34686  1.0000
  H   H104      1.0  0.27779  0.06074  0.40663  1.0000
  H   H105      1.0  0.24389  0.10287  0.37813  1.0000
  H   H106      1.0  0.24704  0.07686  0.40840  1.0000
  H   H107      1.0  0.30577  0.11277  0.32940  1.0000
  H   H108      1.0  0.32757  0.10882  0.34641  1.0000
  C   C107      1.0  0.35211  0.05319  0.25508  1.0000
  N   N9        1.0  0.14108  0.10670  0.46300  1.0000
  C   C108      1.0  0.33854  0.27256  0.28171  1.0000
  S   S42       1.0  0.25460  0.08053  0.49309  1.0000
  C   C109      1.0  0.48947  0.20897  0.33837  1.0000
  H   H109      1.0  0.11398  0.10541  0.48528  1.0000
  C   C110      1.0  0.33794  0.25194  0.29379  1.0000
  C   C111      1.0  0.15065  0.44032  0.27860  1.0000
  H   H110      1.0  0.18419  0.44220  0.26555  1.0000
  H   H111      1.0  0.37515  0.23963  0.32568  1.0000
  C   C112      1.0  0.36239  0.29565  0.27735  1.0000
  H   H112      1.0  0.21430  0.00881  0.48079  1.0000
  C   C113      1.0  0.38400  0.27681  0.29695  1.0000
  C   C114      1.0  0.45268  0.14293  0.29259  1.0000
  H   H113      1.0  0.04796  0.35763  0.26957  1.0000
  H   H114      1.0  0.37894  0.06140  0.29878  1.0000
  N   N10       1.0  0.41621  0.09765  0.29671  1.0000
  Fe  Fe20      1.0  0.21365  0.06864  0.48461  1.0000
  H   H115      1.0  0.13476  0.13956  0.45890  1.0000
  C   C115      1.0  0.12522  0.43387  0.27442  1.0000
  H   H116      1.0  0.40993  0.06858  0.27199  1.0000
  H   H117      1.0  0.09429  0.41960  0.25035  1.0000
  C   C116      1.0  0.15635  0.09665  0.45733  1.0000
  H   H118      1.0  0.16874  0.10448  0.44355  1.0000
  H   H119      1.0  0.42723  0.13034  0.31930  1.0000
  C   C117      1.0  0.45832  0.13488  0.27320  1.0000
  C   C118      1.0  0.05858  0.35691  0.25600  1.0000
  C   C119      1.0  0.38674  0.24570  0.25357  1.0000
  C   C120      1.0  0.44300  0.10792  0.26588  1.0000
  Fe  Fe21      1.0  0.12089  0.21634  0.49502  1.0000
  H   H120      1.0  0.25361  0.49215  0.37932  1.0000
  H   H121      1.0  0.48761  0.21534  0.39373  1.0000
  C   C121      1.0  0.11423  0.42522  0.25374  1.0000
  C   C122      1.0  0.99671  0.16310  0.49754  1.0000
  H   H122      1.0  0.46449  0.16383  0.29853  1.0000
  H   H123      1.0  0.47449  0.14957  0.26387  1.0000
  H   H124      1.0  0.48371  0.23505  0.31763  1.0000
  H   H125      1.0  0.25172  0.39338  0.25557  1.0000
  H   H126      1.0  0.14211  0.05184  0.49734  1.0000
  Fe  Fe22      1.0  0.20460  0.41761  0.65846  1.0000
  S   S43       1.0  0.16192  0.38622  0.65503  1.0000
  S   S44       1.0  0.22085  0.44902  0.63199  1.0000
  Fe  Fe23      1.0  0.21206  0.38899  0.69730  1.0000
  S   S45       1.0  0.16963  0.35574  0.69654  1.0000
  S   S46       1.0  0.24350  0.39713  0.72290  1.0000
  Fe  Fe24      1.0  0.17364  0.35565  0.66023  1.0000
  S   S47       1.0  0.15838  0.31660  0.63981  1.0000
  Fe  Fe25      1.0  0.16098  0.38894  0.69129  1.0000
  S   S48       1.0  0.13284  0.39954  0.70672  1.0000
  S   S49       1.0  0.21653  0.38673  0.66155  1.0000
  S   S50       1.0  0.20322  0.42244  0.69418  1.0000
  Fe  Fe26      1.0  0.38738  0.14423  0.68216  1.0000
  S   S51       1.0  0.41131  0.18480  0.69966  1.0000
  S   S52       1.0  0.37490  0.10121  0.69283  1.0000
  Fe  Fe27      1.0  0.38453  0.17027  0.63990  1.0000
  S   S53       1.0  0.40890  0.21253  0.65434  1.0000
  S   S54       1.0  0.37409  0.16650  0.60387  1.0000
  Fe  Fe28      1.0  0.43408  0.19861  0.66905  1.0000
  N   N11       1.0  0.42603  0.38300  0.74560  1.0000
  Fe  Fe29      1.0  0.38434  0.19599  0.68357  1.0000
  S   S55       1.0  0.36540  0.21977  0.69429  1.0000
  S   S56       1.0  0.41179  0.15761  0.65255  1.0000
  S   S57       1.0  0.35849  0.15414  0.66818  1.0000
  Fe  Fe30      1.0  0.12398  0.26768  0.51377  1.0000
  S   S58       1.0  0.09483  0.22305  0.51706  1.0000
  S   S59       1.0  0.13775  0.30320  0.53812  1.0000
  Fe  Fe31      1.0  0.25623  0.11306  0.51474  1.0000
  C   C123      1.0  0.03099  0.21174  0.54030  1.0000
  S   S60       1.0  0.26644  0.11725  0.55092  1.0000
  C   C124      1.0  0.30950  0.02354  0.72663  1.0000
  C   C125      1.0  0.07646  0.27631  0.57128  1.0000
  H   H127      1.0  0.04695  0.25291  0.51384  1.0000
  H   H128      1.0  0.03964  0.20485  0.52802  1.0000
  C   C126      1.0  0.05961  0.24874  0.56606  1.0000
  H   H129      1.0  0.41918  0.10193  0.67178  1.0000
  C   C127      1.0  0.37935  0.08806  0.71721  1.0000
  C   C128      1.0  0.27900  0.39034  0.74616  1.0000
  C   C129      1.0  0.09181  0.39408  0.72987  1.0000
  C   C130      1.0  0.37327  0.06096  0.71724  1.0000
  C   C131      1.0  0.36957  0.23913  0.71834  1.0000
  H   H130      1.0  0.30505  0.01158  0.71182  1.0000
  C   C132      1.0  0.17982  0.46811  0.69074  1.0000
  H   H131      1.0  0.14689  0.14837  0.51971  1.0000
  H   H132      1.0  0.18153  0.02523  0.53393  1.0000
  H   H133      1.0  0.01257  0.15959  0.49949  1.0000
  H   H134      1.0  0.36457  0.22539  0.64053  1.0000
  H   H135      1.0  0.47058  0.20398  0.62750  1.0000
  C   C133      1.0  0.34373  0.15043  0.58946  1.0000
  C   C134      1.0  0.34359  0.15128  0.56681  1.0000
  C   C135      1.0  0.32013  0.14074  0.55469  1.0000
  C   C136      1.0  0.29649  0.12922  0.56512  1.0000
  C   C137      1.0  0.29656  0.12776  0.58773  1.0000
  C   C138      1.0  0.32001  0.13831  0.59986  1.0000
  H   H136      1.0  0.36182  0.16058  0.55859  1.0000
  H   H137      1.0  0.32044  0.14198  0.53732  1.0000
  H   H138      1.0  0.27837  0.11882  0.59598  1.0000
  H   H139      1.0  0.31978  0.13744  0.61724  1.0000
  C   C139      1.0  0.10453  0.38095  0.72240  1.0000
  C   C140      1.0  0.44424  0.13705  0.69213  1.0000
  N   N12       1.0  0.04888  0.24061  0.54570  1.0000
  C   C141      1.0  0.25801  0.37836  0.73108  1.0000
  C   C142      1.0  0.17761  0.15294  0.49943  1.0000
  H   H140      1.0  0.36711  0.04905  0.70234  1.0000
  C   C143      1.0  0.17028  0.45460  0.67088  1.0000
  N   N13       1.0  0.46726  0.16138  0.69405  1.0000
  C   C144      1.0  0.14988  0.31218  0.61190  1.0000
  C   C145      1.0  0.15162  0.33322  0.59972  1.0000
  C   C146      1.0  0.14718  0.32976  0.57724  1.0000
  C   C147      1.0  0.14101  0.30530  0.56665  1.0000
  C   C148      1.0  0.13824  0.28386  0.57891  1.0000
  C   C149      1.0  0.14260  0.28730  0.60144  1.0000
  H   H141      1.0  0.15702  0.35239  0.60756  1.0000
  H   H142      1.0  0.14916  0.34641  0.56793  1.0000
  H   H143      1.0  0.13331  0.26486  0.57100  1.0000
  H   H144      1.0  0.14104  0.27083  0.61076  1.0000
  C   C150      1.0  0.06926  0.38028  0.74224  1.0000
  H   H145      1.0  0.05536  0.23394  0.57835  1.0000
  H   H146      1.0  0.43059  0.13008  0.70509  1.0000
  C   C151      1.0  0.31471  0.05014  0.72560  1.0000
  H   H147      1.0  0.09624  0.31687  0.55909  1.0000
  C   C152      1.0  0.24900  0.35191  0.72342  1.0000
  C   C153      1.0  0.49124  0.21619  0.63114  1.0000
  C   C154      1.0  0.05500  0.25932  0.53007  1.0000
  H   H148      1.0  0.09943  0.41509  0.72604  1.0000
  C   C155      1.0  0.38751  0.10326  0.73656  1.0000
  C   C156      1.0  0.09435  0.35374  0.72750  1.0000
  H   H149      1.0  0.40543  0.32064  0.72367  1.0000
  C   C157      1.0  0.22217  0.04112  0.54135  1.0000
  C   C158      1.0  0.38518  0.24049  0.73582  1.0000
  N   N14       1.0  0.31100  0.01316  0.74591  1.0000
  H   H150      1.0  0.06410  0.31887  0.74355  1.0000
  H   H151      1.0  0.24177  0.48535  0.67013  1.0000
  C   C159      1.0  0.26076  0.33767  0.73084  1.0000
  H   H152      1.0  0.27509  0.07262  0.53622  1.0000
  C   C160      1.0  0.35885  0.26868  0.73874  1.0000
  N   N15       1.0  0.20970  0.34277  0.59036  1.0000
  C   C161      1.0  0.20688  0.34829  0.56948  1.0000
  C   C162      1.0  0.21577  0.36174  0.60646  1.0000
  C   C163      1.0  0.20947  0.37313  0.56438  1.0000
  C   C164      1.0  0.21857  0.38681  0.60192  1.0000
  C   C165      1.0  0.21529  0.39245  0.58076  1.0000
  C   C166      1.0  0.20718  0.31679  0.59549  1.0000
  H   H153      1.0  0.20171  0.33313  0.55671  1.0000
  H   H154      1.0  0.21781  0.35723  0.62302  1.0000
  H   H155      1.0  0.20642  0.37705  0.54788  1.0000
  H   H156      1.0  0.22293  0.40169  0.61476  1.0000
  H   H157      1.0  0.21706  0.41170  0.57717  1.0000
  H   H158      1.0  0.22653  0.31889  0.59544  1.0000
  H   H159      1.0  0.19865  0.31002  0.61163  1.0000
  H   H160      1.0  0.19390  0.30049  0.58371  1.0000
  N   N16       1.0  0.33518  0.20303  0.61619  1.0000
  C   C167      1.0  0.30893  0.19092  0.61273  1.0000
  C   C168      1.0  0.35143  0.21082  0.59918  1.0000
  C   C169      1.0  0.29837  0.18676  0.59178  1.0000
  C   C170      1.0  0.34155  0.20705  0.57803  1.0000
  C   C171      1.0  0.31483  0.19488  0.57435  1.0000
  C   C172      1.0  0.34589  0.20574  0.63807  1.0000
  H   H161      1.0  0.26847  0.06790  0.56447  1.0000
  H   H162      1.0  0.37206  0.21899  0.60188  1.0000
  H   H163      1.0  0.27751  0.17647  0.58897  1.0000
  H   H164      1.0  0.35441  0.21241  0.56458  1.0000
  H   H165      1.0  0.30677  0.19079  0.55800  1.0000
  C   C173      1.0  0.17707  0.46949  0.65204  1.0000
  C   C174      1.0  0.19652  0.02044  0.53655  1.0000
  C   C175      1.0  0.41458  0.36156  0.73110  1.0000
  H   H166      1.0  0.02651  0.19871  0.55451  1.0000
  C   C176      1.0  0.47802  0.15523  0.65820  1.0000
  C   C177      1.0  0.45466  0.13028  0.65617  1.0000
  C   C178      1.0  0.28175  0.34967  0.74589  1.0000
  H   H167      1.0  0.23286  0.34236  0.71188  1.0000
  H   H168      1.0  0.08540  0.28274  0.58729  1.0000
  S   S61       1.0  0.12996  0.18342  0.50397  1.0000
  H   H169      1.0  0.39220  0.12410  0.73686  1.0000
  C   C179      1.0  0.43769  0.12102  0.67328  1.0000
  H   H170      1.0  0.36943  0.02790  0.73624  1.0000
  H   H171      1.0  0.32666  0.08713  0.74371  1.0000
  N   N17       1.0  0.24129  0.03527  0.54391  1.0000
  H   H172      1.0  0.34435  0.25252  0.70655  1.0000
  C   C180      1.0  0.23559  0.00906  0.54157  1.0000
  H   H173      1.0  0.39532  0.22964  0.73493  1.0000
  C   C181      1.0  0.07198  0.28700  0.53467  1.0000
  H   H174      1.0  0.25346  0.31717  0.72487  1.0000
  S   S62       1.0  0.21414  0.09919  0.50787  1.0000
  H   H175      1.0  0.07746  0.30168  0.52205  1.0000
  H   H176      1.0  0.17481  0.45658  0.70542  1.0000
  H   H177      1.0  0.33261  0.20508  0.65057  1.0000
  C   C182      1.0  0.48408  0.17053  0.67741  1.0000
  H   H178      1.0  0.34943  0.18899  0.64084  1.0000
  C   C183      1.0  0.15899  0.15907  0.50634  1.0000
  N   N18       1.0  0.19267  0.49720  0.65300  1.0000
  H   H179      1.0  0.40466  0.36246  0.71671  1.0000
  H   H180      1.0  0.29596  0.18388  0.62617  1.0000
  H   H181      1.0  0.22673  0.06193  0.54286  1.0000
  C   C184      1.0  0.35653  0.25343  0.71992  1.0000
  H   H182      1.0  0.44951  0.11838  0.64125  1.0000
  H   H183      1.0  0.46549  0.19227  0.71118  1.0000
  C   C185      1.0  0.37447  0.04884  0.73646  1.0000
  H   H184      1.0  0.31460  0.05875  0.71019  1.0000
  H   H185      1.0  0.28165  0.05017  0.55096  1.0000
  S   S63       1.0  0.47841  0.22492  0.67196  1.0000
  C   C186      1.0  0.08252  0.29551  0.55548  1.0000
  H   H186      1.0  0.01237  0.20848  0.53352  1.0000
  H   H187      1.0  0.10382  0.34331  0.72190  1.0000
  H   H188      1.0  0.15775  0.43266  0.67012  1.0000
  H   H189      1.0  0.17960  0.13754  0.50738  1.0000
  H   H190      1.0  0.42599  0.41174  0.72428  1.0000
  C   C187      1.0  0.47310  0.17857  0.71346  1.0000
  C   C188      1.0  0.26793  0.05742  0.54914  1.0000
  H   H191      1.0  0.17000  0.45868  0.63665  1.0000
  C   C189      1.0  0.24010  0.48490  0.63551  1.0000
  C   C190      1.0  0.42472  0.40727  0.74169  1.0000
  C   C191      1.0  0.32159  0.06614  0.74443  1.0000
  H   H192      1.0  0.34855  0.27936  0.73971  1.0000
  C   C192      1.0  0.07178  0.33993  0.73983  1.0000
  C   C193      1.0  0.41494  0.33790  0.73490  1.0000
  H   H193      1.0  0.49116  0.16300  0.64485  1.0000
  H   H194      1.0  0.46415  0.16613  0.72785  1.0000
  H   H195      1.0  0.24222  0.49154  0.60134  1.0000
  C   C194      1.0  0.19589  0.49635  0.69158  1.0000
  H   H196      1.0  0.25073  0.00437  0.54326  1.0000
  C   C195      1.0  0.05904  0.35304  0.74727  1.0000
  H   H197      1.0  0.05976  0.39069  0.74777  1.0000
  H   H198      1.0  0.11449  0.07049  0.50765  1.0000
  H   H199      1.0  0.40619  0.40425  0.74775  1.0000
  Fe  Fe32      1.0  0.36302  0.31673  0.78942  1.0000
  S   S64       1.0  0.38132  0.34443  0.81894  1.0000
  C   C196      1.0  0.49061  0.48979  0.79418  1.0000
  Fe  Fe33      1.0  0.32770  0.33904  0.77962  1.0000
  S   S65       1.0  0.34366  0.36813  0.80814  1.0000
  C   C197      1.0  0.27411  0.14958  0.95601  1.0000
  Fe  Fe34      1.0  0.38351  0.37743  0.79839  1.0000
  S   S66       1.0  0.41710  0.42203  0.79424  1.0000
  Fe  Fe35      1.0  0.34031  0.33299  0.82690  1.0000
  S   S67       1.0  0.32469  0.32697  0.86163  1.0000
  S   S68       1.0  0.36733  0.35021  0.76853  1.0000
  S   S69       1.0  0.32218  0.30336  0.79876  1.0000
  H   H200      1.0  0.18193  0.28007  0.99203  1.0000
  S   S70       1.0  0.38125  0.04886  0.78101  1.0000
  C   C198      1.0  0.20072  0.10209  0.98598  1.0000
  C   C199      1.0  0.02088  0.29327  0.81191  1.0000
  S   S71       1.0  0.01107  0.37331  0.80687  1.0000
  C   C200      1.0  0.04777  0.34109  0.82409  1.0000
  C   C201      1.0  0.00462  0.26566  0.81602  1.0000
  H   H201      1.0  0.45847  0.01529  0.85068  1.0000
  Fe  Fe36      1.0  0.23196  0.22534  0.96224  1.0000
  S   S72       1.0  0.19028  0.19036  0.96316  1.0000
  S   S73       1.0  0.24720  0.23559  0.92738  1.0000
  Fe  Fe37      1.0  0.20461  0.17111  0.98685  1.0000
  C   C202      1.0  0.19420  0.05652  0.97993  1.0000
  H   H202      1.0  0.44599  0.35611  0.78387  1.0000
  H   H203      1.0  0.20068  0.23606  0.91536  1.0000
  C   C203      1.0  0.99945  0.25732  0.83727  1.0000
  H   H204      1.0  0.32946  0.06796  0.77862  1.0000
  S   S74       1.0  0.19080  0.12583  0.97987  1.0000
  C   C204      1.0  0.42388  0.00822  0.86630  1.0000
  H   H205      1.0  0.19546  0.14371  0.93524  1.0000
  S   S75       1.0  0.25965  0.00005  0.98637  1.0000
  H   H206      1.0  0.15438  0.21545  0.92513  1.0000
  C   C205      1.0  0.28398  0.34424  0.83101  1.0000
  C   C206      1.0  0.25011  0.12627  0.95100  1.0000
  C   C207      1.0  0.26257  0.35106  0.80077  1.0000
  H   H207      1.0  0.29691  0.19332  0.95459  1.0000
  C   C208      1.0  0.27536  0.31805  0.82294  1.0000
  N   N19       1.0  0.18165  0.27045  0.95900  1.0000
  H   H208      1.0  0.28925  0.14793  0.96417  1.0000
  N   N20       1.0  0.03123  0.31211  0.82849  1.0000
  C   C209      1.0  0.23052  0.12877  0.94104  1.0000
  C   C210      1.0  0.17490  0.28308  0.97625  1.0000
  C   C211      1.0  0.06749  0.20234  0.98514  1.0000
  H   H209      1.0  0.01626  0.33286  0.90077  1.0000
  S   S76       1.0  0.29468  0.32998  0.75553  1.0000
  C   C212      1.0  0.16931  0.23436  0.93283  1.0000
  H   H210      1.0  0.02471  0.29955  0.79534  1.0000
  C   C213      1.0  0.01084  0.27657  0.85409  1.0000
  C   C214      1.0  0.45145  0.44463  0.79899  1.0000
  C   C215      1.0  0.46713  0.43665  0.80937  1.0000
  H   H211      1.0  0.21807  0.17695  0.92608  1.0000
  C   C216      1.0  0.46348  0.47140  0.79152  1.0000
  H   H212      1.0  0.45836  0.41633  0.81547  1.0000
  H   H213      1.0  0.45170  0.47798  0.78351  1.0000
  C   C217      1.0  0.30325  0.30097  0.87963  1.0000
  C   C218      1.0  0.30206  0.30826  0.90117  1.0000
  C   C219      1.0  0.28537  0.28872  0.91600  1.0000
  C   C220      1.0  0.26925  0.26139  0.90952  1.0000
  C   C221      1.0  0.27028  0.25411  0.88793  1.0000
  C   C222      1.0  0.28715  0.27362  0.87314  1.0000
  H   H214      1.0  0.31440  0.32924  0.90652  1.0000
  H   H215      1.0  0.28516  0.29487  0.93248  1.0000
  H   H216      1.0  0.25805  0.23313  0.88257  1.0000
  H   H217      1.0  0.28775  0.26745  0.85676  1.0000
  Fe  Fe38      1.0  0.36730  0.00478  0.78937  1.0000
  H   H218      1.0  0.01152  0.33036  0.98467  1.0000
  C   C223      1.0  0.25416  0.32471  0.79324  1.0000
  H   H219      1.0  0.99587  0.25095  0.80275  1.0000
  H   H220      1.0  0.28486  0.38150  0.82551  1.0000
  Fe  Fe39      1.0  0.00425  0.20706  0.98622  1.0000
  C   C224      1.0  0.21359  0.15567  0.92613  1.0000
  C   C225      1.0  0.43906  0.00025  0.85557  1.0000
  H   H221      1.0  0.14265  0.23766  0.95312  1.0000
  H   H222      1.0  0.26576  0.28373  0.78218  1.0000
  C   C226      1.0  0.43714  0.38116  0.76438  1.0000
  S   S77       1.0  0.00955  0.24862  0.98259  1.0000
  H   H223      1.0  0.18375  0.30514  0.97364  1.0000
  C   C227      1.0  0.38873  0.09114  0.75579  1.0000
  H   H224      1.0  0.06853  0.34776  0.82664  1.0000
  H   H225      1.0  0.23460  0.27843  0.93415  1.0000
  C   C228      1.0  0.38737  0.25561  0.75468  1.0000
  H   H226      1.0  0.21015  0.14778  0.90925  1.0000
  C   C229      1.0  0.07581  0.18603  0.97535  1.0000
  H   H227      1.0  0.21160  0.11063  0.93788  1.0000
  C   C230      1.0  0.16280  0.24706  0.94868  1.0000
  H   H228      1.0  0.25804  0.36399  0.79154  1.0000
  S   S78       1.0  0.37804  0.28869  0.78051  1.0000
  H   H229      1.0  0.28618  0.41080  0.75218  1.0000
  C   C231      1.0  0.99924  0.31279  0.89818  1.0000
  S   S79       1.0  0.03465  0.19443  0.97991  1.0000
  C   C232      1.0  0.02686  0.30403  0.84937  1.0000
  H   H230      1.0  0.04283  0.35330  0.83476  1.0000
  H   H231      1.0  0.30700  0.38574  0.76502  1.0000
  H   H232      1.0  0.00672  0.27040  0.87070  1.0000
  S   S80       1.0  0.99289  0.33362  0.86021  1.0000
  C   C233      1.0  0.21432  0.26971  0.93796  1.0000
  H   H233      1.0  0.43135  0.02955  0.86985  1.0000
  C   C234      1.0  0.18669  0.07574  0.97647  1.0000
  H   H234      1.0  0.44091  0.42548  0.75029  1.0000
  C   C235      1.0  0.00260  0.31388  0.99649  1.0000
  H   H235      1.0  0.00590  0.29729  0.92763  1.0000
  S   S81       1.0  0.03060  0.33432  0.76278  1.0000
  C   C236      1.0  0.27766  0.36088  0.81975  1.0000
  S   S82       1.0  0.15223  0.22106  0.99720  1.0000
  N   N21       1.0  0.26055  0.30857  0.80431  1.0000
  C   C237      1.0  0.25269  0.28160  0.79540  1.0000
  H   H236      1.0  0.10711  0.17831  0.97124  1.0000
  S   S83       1.0  0.24614  0.20514  0.98478  1.0000
  H   H237      1.0  0.15353  0.27377  0.97721  1.0000
  H   H238      1.0  0.28101  0.30558  0.83150  1.0000
  C   C238      1.0  0.19524  0.24586  0.92742  1.0000
  C   C239      1.0  0.10132  0.19117  0.97896  1.0000
  H   H239      1.0  0.42675  0.31774  0.75715  1.0000
  Fe  Fe40      1.0  0.18512  0.21180  0.99150  1.0000
  H   H240      1.0  0.04490  0.34551  0.80725  1.0000
  H   H241      1.0  0.29614  0.35179  0.84559  1.0000
  H   H242      1.0  0.39929  0.25624  0.76817  1.0000
  H   H243      1.0  0.39450  0.10289  0.77076  1.0000
  H   H244      1.0  0.03888  0.49251  0.80069  1.0000
  H   H245      1.0  0.18307  0.03646  0.97245  1.0000
  H   H246      1.0  0.23245  0.27117  0.78875  1.0000
  C   C240      1.0  0.29089  0.37619  0.75346  1.0000
  H   H247      1.0  0.24635  0.10640  0.95539  1.0000
  H   H248      1.0  0.22218  0.29980  0.96249  1.0000
  H   H249      1.0  0.06240  0.16920  0.96482  1.0000
  C   C241      1.0  0.37416  0.26969  0.75634  1.0000
  H   H250      1.0  0.03502  0.31900  0.86251  1.0000
  N   N22       1.0  0.23468  0.15378  0.93628  1.0000
  C   C242      1.0  0.25839  0.17672  0.94061  1.0000
  C   C243      1.0  0.20716  0.28171  0.95391  1.0000
  C   C244      1.0  0.27838  0.17500  0.95069  1.0000
  H   H251      1.0  0.24332  0.31761  0.77800  1.0000
  H   H252      1.0  0.25372  0.26848  0.80780  1.0000
  H   H253      1.0  0.44523  0.39763  0.77626  1.0000
  H   H254      1.0  0.26185  0.19658  0.93666  1.0000
  C   C245      1.0  0.32310  0.05540  0.76400  1.0000
  H   H255      1.0  0.16980  0.07010  0.96629  1.0000
  H   H256      1.0  0.45808  0.00208  0.79589  1.0000
  Fe  Fe41      1.0  0.00218  0.34351  0.77948  1.0000
  C   C246      1.0  0.42686  0.33621  0.75375  1.0000
  C   C247      1.0  0.43774  0.35779  0.76874  1.0000
  H   H257      1.0  0.32014  0.02100  0.77957  1.0000
  H   H258      1.0  0.01254  0.48016  0.83191  1.0000
  S   S84       1.0  0.22638  0.24823  0.98950  1.0000
  C   C248      1.0  0.31779  0.02875  0.76443  1.0000
  C   C249      1.0  0.21590  0.06321  0.99312  1.0000
  C   C250      1.0  0.11918  0.21277  0.99257  1.0000
  C   C251      1.0  0.99331  0.29261  0.91357  1.0000
  C   C252      1.0  0.38181  0.06375  0.75594  1.0000
  H   H259      1.0  0.01179  0.30150  0.99553  1.0000
  H   H260      1.0  0.99307  0.14082  0.96761  1.0000
  C   C253      1.0  0.02289  0.66466  0.03783  1.0000
  Fe  Fe42      1.0  0.34169  0.93901  0.20293  1.0000
  S   S85       1.0  0.34651  0.92770  0.16924  1.0000
  S   S86       1.0  0.32621  0.91034  0.23149  1.0000
  Fe  Fe43      1.0  0.38860  0.96205  0.17289  1.0000
  S   S87       1.0  0.42050  0.95458  0.16043  1.0000
  Fe  Fe44      1.0  0.33720  0.95893  0.15784  1.0000
  S   S88       1.0  0.30503  0.94880  0.13182  1.0000
  S   S89       1.0  0.38424  0.97168  0.20714  1.0000
  S   S90       1.0  0.32990  0.96818  0.19172  1.0000
  H   H261      1.0  0.41941  0.89921  0.17621  1.0000
  S   S91       1.0  0.04553  0.64756  0.20099  1.0000
  Fe  Fe45      1.0  0.24838  0.96842  0.01192  1.0000
  S   S92       1.0  0.21125  0.96720  0.01879  1.0000
  S   S93       1.0  0.28109  0.97716  0.03705  1.0000
  C   C254      1.0  0.37012  0.88247  0.16688  1.0000
  Fe  Fe46      1.0  0.00354  0.61439  0.19179  1.0000
  H   H262      1.0  0.00956  0.51298  0.21278  1.0000
  C   C255      1.0  0.08908  0.68167  0.22612  1.0000
  C   C256      1.0  0.04799  0.58633  0.19265  1.0000
  C   C257      1.0  0.40942  0.90126  0.18978  1.0000
  N   N23       1.0  0.38388  0.89365  0.18764  1.0000
  C   C258      1.0  0.45175  0.96011  0.16852  1.0000
  C   C259      1.0  0.04833  0.56563  0.18109  1.0000
  C   C260      1.0  0.24953  0.84881  0.22885  1.0000
  C   C261      1.0  0.46400  0.95071  0.15483  1.0000
  H   H263      1.0  0.27611  0.87977  0.20735  1.0000
  H   H264      1.0  0.45480  0.94121  0.13946  1.0000
  C   C262      1.0  0.29902  0.95688  0.10527  1.0000
  C   C263      1.0  0.27325  0.94386  0.09696  1.0000
  C   C264      1.0  0.26736  0.94954  0.07622  1.0000
  C   C265      1.0  0.28721  0.96844  0.06330  1.0000
  H   H265      1.0  0.23348  0.84009  0.21721  1.0000
  H   H266      1.0  0.03572  0.67672  0.05125  1.0000
  C   C266      1.0  0.46415  0.97239  0.18831  1.0000
  H   H267      1.0  0.34876  0.87281  0.16826  1.0000
  H   H268      1.0  0.24746  0.93907  0.07017  1.0000
  H   H269      1.0  0.44382  0.91960  0.21047  1.0000
  C   C267      1.0  0.31296  0.98166  0.07169  1.0000
  C   C268      1.0  0.06325  0.65955  0.22604  1.0000
  C   C269      1.0  0.27373  0.87135  0.22319  1.0000
  H   H270      1.0  0.07685  0.79987  0.00423  1.0000
  H   H271      1.0  0.37394  0.86688  0.16043  1.0000
  H   H272      1.0  0.25765  0.92901  0.10658  1.0000
  H   H273      1.0  0.28748  0.98051  0.15511  1.0000
  H   H274      1.0  0.35153  0.89197  0.20270  1.0000
  C   C270      1.0  0.02086  0.53378  0.20750  1.0000
  H   H275      1.0  0.32858  0.99626  0.06195  1.0000
  C   C271      1.0  0.48819  0.97503  0.19426  1.0000
  C   C272      1.0  0.29479  0.88268  0.23794  1.0000
  N   N24       1.0  0.02056  0.55418  0.21870  1.0000
  S   S94       1.0  0.99709  0.58584  0.16371  1.0000
  C   C273      1.0  0.31885  0.97596  0.09243  1.0000
  H   H276      1.0  0.45515  0.97974  0.19911  1.0000
  C   C274      1.0  0.38509  0.90945  0.22389  1.0000
  H   H277      1.0  0.09749  0.69124  0.21111  1.0000
  C   C275      1.0  0.23498  0.75185  0.24190  1.0000
  C   C276      1.0  0.03379  0.58018  0.21146  1.0000
  C   C277      1.0  0.02594  0.67601  0.01762  1.0000
  H   H278      1.0  0.03433  0.52272  0.17949  1.0000
  H   H279      1.0  0.33880  0.98608  0.09832  1.0000
  H   H280      1.0  0.05874  0.57000  0.16619  1.0000
  H   H281      1.0  0.99975  0.62936  0.05674  1.0000
  H   H282      1.0  0.42188  0.92690  0.24111  1.0000
  H   H283      1.0  0.26090  0.99612  0.07048  1.0000
  C   C278      1.0  0.03476  0.53917  0.18857  1.0000
  H   H284      1.0  0.05811  0.60696  0.18686  1.0000
  C   C279      1.0  0.41113  0.91725  0.22620  1.0000
  H   H285      1.0  0.00913  0.69494  0.09310  1.0000
  H   H286      1.0  0.04131  0.69686  0.01519  1.0000
  C   C280      1.0  0.42338  0.91301  0.20910  1.0000
  H   H287      1.0  0.22447  0.74832  0.22667  1.0000
  C   C281      1.0  0.48810  0.95349  0.16072  1.0000
  H   H288      1.0  0.37689  0.89908  0.15514  1.0000
  H   H289      1.0  0.03316  0.59630  0.22001  1.0000
  C   C282      1.0  0.37167  0.89761  0.20439  1.0000
  C   C283      1.0  0.00260  0.63810  0.04092  1.0000
  H   H290      1.0  0.99732  0.65766  0.11867  1.0000
  C   C284      1.0  0.00479  0.54771  0.23790  1.0000
  H   H291      1.0  0.25425  0.79539  0.24049  1.0000
  C   C285      1.0  0.11117  0.84011  0.00135  1.0000
  C   C286      1.0  0.10422  0.69153  0.24541  1.0000
  H   H292      1.0  0.12331  0.83553  0.01117  1.0000
  H   H293      1.0  0.12403  0.70853  0.24513  1.0000
  H   H294      1.0  0.37537  0.91295  0.23696  1.0000
  H   H295      1.0  0.00682  0.53315  0.24798  1.0000
  C   C287      1.0  0.00844  0.66063  0.00076  1.0000
  S   S95       1.0  0.37943  0.99247  0.15916  1.0000
  H   H296      1.0  0.03275  0.63066  0.24592  1.0000
  C   C288      1.0  0.05265  0.64746  0.24561  1.0000
  H   H297      1.0  0.21530  0.97667  0.08067  1.0000
  C   C289      1.0  0.22489  0.99507  0.07146  1.0000
  C   C290      1.0  0.99304  0.67469  0.08906  1.0000
  S   S96       1.0  0.15595  0.89114  0.99821  1.0000
  Fe  Fe47      1.0  0.20472  0.74888  0.32053  1.0000
  S   S97       1.0  0.21579  0.79283  0.31927  1.0000
  S   S98       1.0  0.23750  0.74360  0.33370  1.0000
  Fe  Fe48      1.0  0.15151  0.72856  0.29849  1.0000
  S   S99       1.0  0.15917  0.77088  0.29585  1.0000
  S   S100      1.0  0.11184  0.69065  0.28980  1.0000
  Fe  Fe49      1.0  0.19935  0.78283  0.28543  1.0000
  C   C291      1.0  0.26689  0.84892  0.26418  1.0000
  Fe  Fe50      1.0  0.17504  0.77782  0.33004  1.0000
  S   S101      1.0  0.16606  0.80366  0.35257  1.0000
  S   S102      1.0  0.19050  0.73966  0.28584  1.0000
  S   S103      1.0  0.16506  0.73469  0.33355  1.0000
  H   H298      1.0  0.48691  0.67929  0.26482  1.0000
  Fe  Fe51      1.0  0.29302  0.59567  0.38042  1.0000
  S   S104      1.0  0.29585  0.62049  0.35193  1.0000
  S   S105      1.0  0.27613  0.54988  0.38115  1.0000
  Fe  Fe52      1.0  0.31514  0.64452  0.41211  1.0000
  S   S106      1.0  0.31921  0.67298  0.38571  1.0000
  S   S107      1.0  0.33060  0.66272  0.44599  1.0000
  Fe  Fe53      1.0  0.27983  0.63971  0.37347  1.0000
  S   S108      1.0  0.24426  0.64108  0.36192  1.0000
  Fe  Fe54      1.0  0.33526  0.65202  0.36618  1.0000
  S   S109      1.0  0.36954  0.67802  0.34461  1.0000
  S   S110      1.0  0.27458  0.61279  0.40141  1.0000
  S   S111      1.0  0.33370  0.62577  0.39321  1.0000
  Fe  Fe55      1.0  0.10998  0.80942  0.46944  1.0000
  S   S112      1.0  0.10127  0.84182  0.46140  1.0000
  S   S113      1.0  0.11840  0.78369  0.44641  1.0000
  N   N25       1.0  0.20846  0.52601  0.37996  1.0000
  C   C292      1.0  0.47494  0.67163  0.27887  1.0000
  C   C293      1.0  0.21560  0.57081  0.37645  1.0000
  C   C294      1.0  0.20363  0.84063  0.40965  1.0000
  H   H299      1.0  0.06992  0.71195  0.27279  1.0000
  H   H300      1.0  0.01036  0.76161  0.49393  1.0000
  Fe  Fe56      1.0  0.07027  0.82275  0.48653  1.0000
  C   C295      1.0  0.44520  0.65224  0.31517  1.0000
  H   H301      1.0  0.47574  0.62720  0.33120  1.0000
  H   H302      1.0  0.22695  0.51300  0.40174  1.0000
  H   H303      1.0  0.26940  0.76415  0.29747  1.0000
  C   C296      1.0  0.17361  0.99395  0.48382  1.0000
  C   C297      1.0  0.31821  0.64672  0.47089  1.0000
  C   C298      1.0  0.19513  0.99100  0.48228  1.0000
  C   C299      1.0  0.29560  0.62106  0.47192  1.0000
  H   H304      1.0  0.20264  0.53834  0.32771  1.0000
  H   H305      1.0  0.28557  0.61004  0.45720  1.0000
  C   C300      1.0  0.45476  0.70006  0.34913  1.0000
  C   C301      1.0  0.43640  0.68101  0.36312  1.0000
  C   C302      1.0  0.41011  0.67353  0.36170  1.0000
  C   C303      1.0  0.40195  0.68520  0.34632  1.0000
  C   C304      1.0  0.42026  0.70396  0.33215  1.0000
  C   C305      1.0  0.44651  0.71135  0.33351  1.0000
  H   H306      1.0  0.44255  0.67203  0.37520  1.0000
  H   H307      1.0  0.39623  0.65902  0.37266  1.0000
  H   H308      1.0  0.41414  0.71309  0.32018  1.0000
  H   H309      1.0  0.46037  0.72593  0.32256  1.0000
  C   C306      1.0  0.23855  0.71479  0.34212  1.0000
  C   C307      1.0  0.21655  0.68854  0.34159  1.0000
  C   C308      1.0  0.21868  0.66628  0.34772  1.0000
  C   C309      1.0  0.24274  0.66993  0.35442  1.0000
  C   C310      1.0  0.26473  0.69617  0.35486  1.0000
  C   C311      1.0  0.26261  0.71841  0.34874  1.0000
  H   H310      1.0  0.19791  0.68538  0.33653  1.0000
  H   H311      1.0  0.20152  0.64610  0.34734  1.0000
  H   H312      1.0  0.28337  0.69933  0.35995  1.0000
  H   H313      1.0  0.27978  0.73860  0.34918  1.0000
  C   C312      1.0  0.15106  0.79656  0.37801  1.0000
  C   C313      1.0  0.14486  0.81493  0.38704  1.0000
  C   C314      1.0  0.13425  0.81102  0.40770  1.0000
  C   C315      1.0  0.12966  0.78859  0.41958  1.0000
  C   C316      1.0  0.13518  0.76981  0.41028  1.0000
  C   C317      1.0  0.14586  0.77376  0.38965  1.0000
  H   H314      1.0  0.14865  0.83255  0.37813  1.0000
  H   H315      1.0  0.12989  0.82550  0.41451  1.0000
  H   H316      1.0  0.13163  0.75234  0.41929  1.0000
  H   H317      1.0  0.15046  0.75941  0.38294  1.0000
  C   C318      1.0  0.45086  0.66955  0.27928  1.0000
  H   H318      1.0  0.21333  0.58280  0.34426  1.0000
  C   C319      1.0  0.21439  0.55034  0.38912  1.0000
  C   C320      1.0  0.26096  0.52573  0.35954  1.0000
  C   C321      1.0  0.25737  0.53310  0.33901  1.0000
  H   H319      1.0  0.41710  0.65815  0.29813  1.0000
  C   C322      1.0  0.17839  0.86931  0.45018  1.0000
  H   H320      1.0  0.26828  0.58984  0.49267  1.0000
  H   H321      1.0  0.26517  0.55430  0.33566  1.0000
  H   H322      1.0  0.30726  0.87986  0.27003  1.0000
  N   N26       1.0  0.40315  0.69628  0.41913  1.0000
  C   C323      1.0  0.42860  0.70873  0.41344  1.0000
  H   H323      1.0  0.45761  0.73576  0.39132  1.0000
  C   C324      1.0  0.20367  0.52139  0.35823  1.0000
  C   C325      1.0  0.39360  0.67747  0.43703  1.0000
  H   H324      1.0  0.44198  0.70458  0.42189  1.0000
  C   C326      1.0  0.39464  0.71899  0.39097  1.0000
  H   H325      1.0  0.37591  0.65794  0.43177  1.0000
  H   H326      1.0  0.40819  0.67276  0.44311  1.0000
  C   C327      1.0  0.19022  0.81253  0.44084  1.0000
  H   H327      1.0  0.15691  0.85901  0.44861  1.0000
  C   C328      1.0  0.42047  0.73161  0.38495  1.0000
  H   H328      1.0  0.38092  0.72204  0.38182  1.0000
  H   H329      1.0  0.25529  0.71707  0.29853  1.0000
  C   C329      1.0  0.23919  0.71139  0.28658  1.0000
  H   H330      1.0  0.19850  0.87469  0.41119  1.0000
  H   H331      1.0  0.43342  0.64473  0.32930  1.0000
  C   C330      1.0  0.06789  0.65711  0.26487  1.0000
  H   H332      1.0  0.26443  0.84058  0.28005  1.0000
  H   H333      1.0  0.36623  0.69167  0.41290  1.0000
  C   C331      1.0  0.29118  0.87126  0.25844  1.0000
  H   H334      1.0  0.20866  0.96294  0.48170  1.0000
  C   C332      1.0  0.38632  0.70145  0.40830  1.0000
  C   C333      1.0  0.14884  0.97046  0.48580  1.0000
  H   H335      1.0  0.27219  0.68451  0.48711  1.0000
  H   H336      1.0  0.24024  0.51882  0.30713  1.0000
  C   C334      1.0  0.16711  0.94143  0.48498  1.0000
  H   H337      1.0  0.05953  0.64744  0.27985  1.0000
  C   C335      1.0  0.47914  0.64791  0.33367  1.0000
  C   C336      1.0  0.14559  0.94438  0.48642  1.0000
  H   H338      1.0  0.08148  0.74717  0.26902  1.0000
  C   C337      1.0  0.09376  0.67916  0.26491  1.0000
  N   N27       1.0  0.08856  0.73780  0.30060  1.0000
  C   C338      1.0  0.08045  0.71648  0.31411  1.0000
  C   C339      1.0  0.10068  0.76386  0.30875  1.0000
  C   C340      1.0  0.08425  0.72098  0.33642  1.0000
  C   C341      1.0  0.10447  0.76905  0.33098  1.0000
  C   C342      1.0  0.09627  0.74745  0.34487  1.0000
  C   C343      1.0  0.08588  0.73297  0.27720  1.0000
  H   H339      1.0  0.07153  0.69586  0.30765  1.0000
  H   H340      1.0  0.10803  0.78087  0.29804  1.0000
  H   H341      1.0  0.07835  0.70407  0.34703  1.0000
  H   H342      1.0  0.11449  0.78978  0.33740  1.0000
  H   H343      1.0  0.09965  0.75131  0.36212  1.0000
  H   H344      1.0  0.21793  0.70949  0.24824  1.0000
  H   H345      1.0  0.17459  0.82492  0.46617  1.0000
  S   S114      1.0  0.21532  0.80793  0.25503  1.0000
  C   C344      1.0  0.19675  0.85767  0.41986  1.0000
  C   C345      1.0  0.18354  0.82998  0.45057  1.0000
  S   S115      1.0  0.48756  0.70869  0.35171  1.0000
  H   H346      1.0  0.38823  0.68627  0.45054  1.0000
  H   H347      1.0  0.21870  0.55422  0.40627  1.0000
  H   H348      1.0  0.42691  0.74449  0.37104  1.0000
  H   H349      1.0  0.21038  0.84427  0.39324  1.0000
  H   H350      1.0  0.23724  0.69449  0.27631  1.0000
  H   H351      1.0  0.22036  0.59015  0.38372  1.0000
  H   H352      1.0  0.20461  0.80398  0.41215  1.0000
  H   H353      1.0  0.13202  0.97241  0.48699  1.0000
  S   S116      1.0  0.13921  0.83421  0.49598  1.0000
  C   C346      1.0  0.21146  0.56659  0.35424  1.0000
  H   H354      1.0  0.44397  0.67567  0.26553  1.0000
  C   C347      1.0  0.43766  0.72663  0.39631  1.0000
  C   C348      1.0  0.24314  0.51292  0.32289  1.0000
  C   C349      1.0  0.43579  0.65967  0.29750  1.0000
  H   H355      1.0  0.18649  0.79431  0.44888  1.0000
  C   C350      1.0  0.28582  0.60968  0.49208  1.0000
  H   H356      1.0  0.18708  0.88953  0.44275  1.0000
  N   N28       1.0  0.46926  0.65529  0.31492  1.0000
  N   N29       1.0  0.18699  0.85230  0.44012  1.0000
  S   S117      1.0  0.07703  0.78867  0.49256  1.0000
  H   H357      1.0  0.34852  0.68052  0.48968  1.0000
  C   C351      1.0  0.20030  0.81792  0.42024  1.0000
  C   C352      1.0  0.19186  0.96492  0.48287  1.0000
  C   C353      1.0  0.25160  0.77834  0.24974  1.0000
  H   H358      1.0  0.27666  0.65598  0.48624  1.0000
  S   S118      1.0  0.16440  0.90916  0.48607  1.0000
  H   H359      1.0  0.12642  0.92657  0.48800  1.0000
  Fe  Fe57      1.0  0.12888  0.86598  0.48915  1.0000
  H   H360      1.0  0.18410  0.87308  0.46758  1.0000
  C   C354      1.0  0.99866  0.79030  0.48755  1.0000
  N   N30       1.0  0.24414  0.73459  0.27365  1.0000
  C   C355      1.0  0.33100  0.66068  0.49026  1.0000
  C   C356      1.0  0.20541  0.54170  0.34501  1.0000
  H   H361      1.0  0.22105  0.70408  0.29559  1.0000
  C   C357      1.0  0.26005  0.76053  0.28167  1.0000
  C   C358      1.0  0.24589  0.83744  0.24936  1.0000
  H   H362      1.0  0.10425  0.73576  0.27096  1.0000
  C   C359      1.0  0.48389  0.66436  0.29695  1.0000
  S   S119      1.0  0.03029  0.81828  0.48240  1.0000
  C   C360      1.0  0.20760  0.50511  0.39370  1.0000
  H   H363      1.0  0.46971  0.64871  0.34865  1.0000
  H   H364      1.0  0.27630  0.80331  0.27635  1.0000
  C   C361      1.0  0.26406  0.78278  0.26982  1.0000
  H   H365      1.0  0.30335  0.68868  0.49423  1.0000
  C   C362      1.0  0.28194  0.67505  0.49524  1.0000
  C   C363      1.0  0.23140  0.73006  0.25417  1.0000
  C   C364      1.0  0.99423  0.76481  0.49302  1.0000
  H   H366      1.0  0.19945  0.50229  0.35086  1.0000
  H   H367      1.0  0.19276  0.49935  0.40614  1.0000
  C   C365      1.0  0.25076  0.49806  0.36355  1.0000
  H   H368      1.0  0.01061  0.56616  0.24802  1.0000
  H   H369      1.0  0.02522  0.60457  0.71505  1.0000
  Fe  Fe58      1.0  0.17610  0.76747  0.64900  1.0000
  S   S120      1.0  0.14880  0.72280  0.65473  1.0000
  S   S121      1.0  0.17987  0.79005  0.61781  1.0000
  Fe  Fe59      1.0  0.20603  0.77705  0.69235  1.0000
  S   S122      1.0  0.18035  0.73319  0.70096  1.0000
  S   S123      1.0  0.24050  0.80054  0.71612  1.0000
  Fe  Fe60      1.0  0.18465  0.72324  0.66666  1.0000
  S   S124      1.0  0.19290  0.68905  0.66253  1.0000
  Fe  Fe61      1.0  0.14685  0.73611  0.68868  1.0000
  S   S125      1.0  0.10955  0.72197  0.70731  1.0000
  S   S126      1.0  0.21211  0.76673  0.65880  1.0000
  S   S127      1.0  0.17218  0.78108  0.68230  1.0000
  Fe  Fe62      1.0  0.29625  0.61012  0.61738  1.0000
  S   S128      1.0  0.32117  0.65376  0.62955  1.0000
  S   S129      1.0  0.28286  0.57812  0.64332  1.0000
  Fe  Fe63      1.0  0.29981  0.62676  0.57025  1.0000
  S   S130      1.0  0.32477  0.67102  0.57907  1.0000
  S   S131      1.0  0.28436  0.60902  0.53633  1.0000
  Fe  Fe64      1.0  0.34644  0.65893  0.60172  1.0000
  S   S132      1.0  0.39074  0.68178  0.60096  1.0000
  Fe  Fe65      1.0  0.29744  0.66246  0.60631  1.0000
  S   S133      1.0  0.28606  0.69436  0.61111  1.0000
  S   S134      1.0  0.32318  0.61485  0.59096  1.0000
  S   S135      1.0  0.27078  0.61862  0.59607  1.0000
  Fe  Fe66      1.0  0.10589  0.81605  0.51853  1.0000
  S   S136      1.0  0.09746  0.84950  0.51368  1.0000
  S   S137      1.0  0.10061  0.79722  0.55181  1.0000
  C   C366      1.0  0.21011  0.98787  0.53681  1.0000
  H   H370      1.0  0.25278  0.89200  0.72435  1.0000
  C   C367      1.0  0.05326  0.66082  0.68471  1.0000
  H   H371      1.0  0.11742  0.67765  0.71952  1.0000
  C   C368      1.0  0.09360  0.69459  0.72532  1.0000
  H   H372      1.0  0.20087  0.50149  0.61959  1.0000
  H   H373      1.0  0.04100  0.83429  0.53373  1.0000
  C   C369      1.0  0.03845  0.79668  0.54169  1.0000
  H   H374      1.0  0.20363  0.50698  0.70695  1.0000
  C   C370      1.0  0.25565  0.83459  0.72633  1.0000
  H   H375      1.0  0.29840  0.71174  0.52736  1.0000
  H   H376      1.0  0.18202  0.51561  0.62900  1.0000
  C   C371      1.0  0.21796  0.69016  0.64715  1.0000
  C   C372      1.0  0.22315  0.66915  0.64902  1.0000
  C   C373      1.0  0.24347  0.66969  0.63770  1.0000
  C   C374      1.0  0.25879  0.69128  0.62429  1.0000
  C   C375      1.0  0.25328  0.71203  0.62210  1.0000
  C   C376      1.0  0.23308  0.71158  0.63353  1.0000
  H   H377      1.0  0.21150  0.65243  0.65945  1.0000
  H   H378      1.0  0.24749  0.65361  0.63959  1.0000
  H   H379      1.0  0.26496  0.72881  0.61174  1.0000
  H   H380      1.0  0.22922  0.72780  0.63180  1.0000
  C   C377      1.0  0.15723  0.79112  0.59953  1.0000
  C   C378      1.0  0.16647  0.80590  0.58053  1.0000
  C   C379      1.0  0.14950  0.80778  0.56566  1.0000
  C   C380      1.0  0.12297  0.79502  0.56967  1.0000
  C   C381      1.0  0.11369  0.78022  0.58866  1.0000
  C   C382      1.0  0.13065  0.77818  0.60346  1.0000
  H   H381      1.0  0.18696  0.81603  0.57730  1.0000
  H   H382      1.0  0.15701  0.81928  0.55121  1.0000
  H   H383      1.0  0.09326  0.77029  0.59200  1.0000
  H   H384      1.0  0.12320  0.76680  0.61797  1.0000
  C   C383      1.0  0.45258  0.70615  0.65525  1.0000
  C   C384      1.0  0.42618  0.69374  0.66024  1.0000
  C   C385      1.0  0.40700  0.68692  0.64395  1.0000
  C   C386      1.0  0.41410  0.69252  0.62246  1.0000
  C   C387      1.0  0.44058  0.70564  0.61759  1.0000
  C   C388      1.0  0.45974  0.71247  0.63387  1.0000
  H   H385      1.0  0.42046  0.68885  0.67676  1.0000
  H   H386      1.0  0.38673  0.67692  0.64795  1.0000
  H   H387      1.0  0.44627  0.71008  0.60102  1.0000
  H   H388      1.0  0.04576  0.75930  0.56449  1.0000
  C   C389      1.0  0.25895  0.66103  0.56030  1.0000
  C   C390      1.0  0.29849  0.62371  0.51144  1.0000
  H   H389      1.0  0.24412  0.72088  0.70445  1.0000
  H   H390      1.0  0.33116  0.66035  0.52516  1.0000
  H   H391      1.0  0.30358  0.73615  0.65121  1.0000
  C   C391      1.0  0.10093  0.67544  0.72797  1.0000
  H   H392      1.0  0.34231  0.59045  0.65677  1.0000
  C   C392      1.0  0.26118  0.52974  0.61925  1.0000
  C   C393      1.0  0.26772  0.54239  0.63968  1.0000
  C   C394      1.0  0.26095  0.52617  0.65796  1.0000
  C   C395      1.0  0.02803  0.62273  0.70750  1.0000
  H   H393      1.0  0.23575  0.61877  0.55052  1.0000
  H   H394      1.0  0.26628  0.54194  0.60503  1.0000
  H   H395      1.0  0.26606  0.53575  0.67384  1.0000
  C   C396      1.0  0.24653  0.73975  0.69768  1.0000
  N   N31       1.0  0.02244  0.76989  0.54626  1.0000
  C   C397      1.0  0.27572  0.84371  0.74210  1.0000
  C   C398      1.0  0.30686  0.98580  0.74674  1.0000
  C   C399      1.0  0.99631  0.75916  0.54818  1.0000
  H   H396      1.0  0.47996  0.72201  0.62977  1.0000
  C   C400      1.0  0.27929  0.88768  0.74520  1.0000
  C   C401      1.0  0.03371  0.75294  0.54935  1.0000
  H   H397      1.0  0.05915  0.80517  0.54033  1.0000
  S   S138      1.0  0.47559  0.71171  0.67600  1.0000
  C   C402      1.0  0.24893  0.63936  0.54543  1.0000
  H   H398      1.0  0.17074  0.97746  0.53031  1.0000
  H   H399      1.0  0.13548  0.77670  0.72671  1.0000
  H   H400      1.0  0.04656  0.75547  0.53580  1.0000
  H   H401      1.0  0.21653  0.53270  0.63489  1.0000
  C   C403      1.0  0.04879  0.63678  0.69370  1.0000
  H   H402      1.0  0.45133  0.65293  0.63250  1.0000
  C   C404      1.0  0.25674  0.64424  0.52407  1.0000
  H   H403      1.0  0.20680  0.75969  0.74604  1.0000
  H   H404      1.0  0.09203  0.63799  0.74277  1.0000
  C   C405      1.0  0.07200  0.69123  0.73640  1.0000
  C   C406      1.0  0.16310  0.76895  0.74242  1.0000
  C   C407      1.0  0.28438  0.69135  0.53230  1.0000
  H   H405      1.0  0.22796  0.73440  0.68944  1.0000
  H   H406      1.0  0.25315  0.65752  0.57695  1.0000
  H   H407      1.0  0.21454  0.53266  0.67318  1.0000
  H   H408      1.0  0.06192  0.62965  0.69065  1.0000
  H   H409      1.0  0.23223  0.84557  0.70777  1.0000
  C   C408      1.0  0.24758  0.85223  0.71991  1.0000
  C   C409      1.0  0.02834  0.81336  0.53832  1.0000
  C   C410      1.0  0.27683  0.68721  0.55375  1.0000
  H   H410      1.0  0.06997  0.67257  0.67474  1.0000
  C   C411      1.0  0.19823  0.51252  0.63315  1.0000
  N   N32       1.0  0.27437  0.66997  0.51779  1.0000
  C   C412      1.0  0.32119  0.64930  0.51042  1.0000
  N   N33       1.0  0.26744  0.75190  0.68223  1.0000
  C   C413      1.0  0.27700  0.73701  0.67360  1.0000
  C   C414      1.0  0.27636  0.77779  0.67573  1.0000
  C   C415      1.0  0.29646  0.74825  0.65837  1.0000
  C   C416      1.0  0.29561  0.78957  0.66036  1.0000
  C   C417      1.0  0.30569  0.77465  0.65165  1.0000
  H   H411      1.0  0.01865  0.73102  0.55002  1.0000
  C   C418      1.0  0.00171  0.80253  0.53994  1.0000
  H   H412      1.0  0.28498  0.70409  0.56536  1.0000
  H   H413      1.0  0.26837  0.78938  0.68229  1.0000
  H   H414      1.0  0.30239  0.81001  0.65509  1.0000
  H   H415      1.0  0.32033  0.78332  0.63946  1.0000
  H   H416      1.0  0.25041  0.75429  0.71124  1.0000
  C   C419      1.0  0.48973  0.77538  0.70182  1.0000
  H   H417      1.0  0.20560  0.96713  0.53454  1.0000
  N   N34       1.0  0.37703  0.61547  0.63942  1.0000
  C   C420      1.0  0.38705  0.62311  0.61940  1.0000
  C   C421      1.0  0.39319  0.62107  0.65703  1.0000
  C   C422      1.0  0.41384  0.63614  0.61653  1.0000
  C   C423      1.0  0.42010  0.63416  0.65475  1.0000
  C   C424      1.0  0.43043  0.64172  0.63434  1.0000
  C   C425      1.0  0.34903  0.60302  0.64219  1.0000
  H   H418      1.0  0.37446  0.62003  0.60559  1.0000
  H   H419      1.0  0.38537  0.61598  0.67301  1.0000
  H   H420      1.0  0.42171  0.64311  0.60074  1.0000
  H   H421      1.0  0.43300  0.63948  0.66878  1.0000
  H   H422      1.0  0.29769  0.97367  0.73165  1.0000
  H   H423      1.0  0.33770  0.58932  0.62827  1.0000
  H   H424      1.0  0.34417  0.61907  0.64365  1.0000
  H   H425      1.0  0.26912  0.71604  0.67799  1.0000
  C   C426      1.0  0.08641  0.65289  0.74113  1.0000
  C   C427      1.0  0.25926  0.87856  0.72937  1.0000
  H   H426      1.0  0.99352  0.81501  0.53658  1.0000
  H   H427      1.0  0.00371  0.66349  0.70696  1.0000
  H   H428      1.0  0.47894  0.75402  0.70578  1.0000
  C   C428      1.0  0.20196  0.51070  0.67244  1.0000
  C   C429      1.0  0.15423  0.78560  0.73507  1.0000
  H   H429      1.0  0.06619  0.70596  0.73454  1.0000
  C   C430      1.0  0.16996  0.81370  0.73806  1.0000
  H   H430      1.0  0.99750  0.61069  0.74100  1.0000
  C   C431      1.0  0.24750  0.50114  0.61721  1.0000
  H   H431      1.0  0.16353  0.82686  0.73206  1.0000
  H   H432      1.0  0.49044  0.76739  0.66797  1.0000
  C   C432      1.0  0.03684  0.67036  0.68939  1.0000
  C   C433      1.0  0.01617  0.65573  0.70317  1.0000
  C   C434      1.0  0.19048  0.99365  0.53445  1.0000
  N   N35       1.0  0.01224  0.63244  0.71225  1.0000
  H   H433      1.0  0.04063  0.68941  0.68287  1.0000
  H   H434      1.0  0.24923  0.62712  0.51277  1.0000
  H   H435      1.0  0.15093  0.74715  0.73963  1.0000
  C   C435      1.0  0.24719  0.49758  0.65592  1.0000
  H   H436      1.0  0.28217  0.83028  0.74721  1.0000
  Fe  Fe67      1.0  0.32741  0.94467  0.78062  1.0000
  S   S139      1.0  0.34145  0.93180  0.80929  1.0000
  H   H437      1.0  0.20978  0.77118  0.77366  1.0000
  H   H438      1.0  0.29383  0.97428  0.76004  1.0000
  Fe  Fe68      1.0  0.38222  0.96218  0.79855  1.0000
  S   S140      1.0  0.41121  0.94720  0.79973  1.0000
  Fe  Fe69      1.0  0.34275  0.96653  0.82788  1.0000
  S   S141      1.0  0.33246  0.96279  0.86403  1.0000
  S   S142      1.0  0.36776  0.97278  0.76857  1.0000
  S   S143      1.0  0.32621  0.97753  0.79991  1.0000
  Fe  Fe70      1.0  0.00726  0.60398  0.78375  1.0000
  C   C436      1.0  0.42881  0.97270  0.85070  1.0000
  C   C437      1.0  0.03873  0.51125  0.80023  1.0000
  H   H439      1.0  0.03716  0.57713  0.79768  1.0000
  H   H440      1.0  0.01075  0.66967  0.98511  1.0000
  Fe  Fe71      1.0  0.23815  0.96559  0.96206  1.0000
  S   S144      1.0  0.20011  0.96407  0.96644  1.0000
  S   S145      1.0  0.24885  0.96507  0.92637  1.0000
  C   C438      1.0  0.29346  0.96295  0.91764  1.0000
  H   H441      1.0  0.19909  0.85132  0.97679  1.0000
  C   C439      1.0  0.17775  0.86649  0.96008  1.0000
  C   C440      1.0  0.12202  0.86632  0.99288  1.0000
  H   H442      1.0  0.17993  0.74200  0.76387  1.0000
  S   S146      1.0  0.03448  0.80034  0.97945  1.0000
  C   C441      1.0  0.31137  0.96233  0.90352  1.0000
  C   C442      1.0  0.06839  0.82512  0.98493  1.0000
  H   H443      1.0  0.15825  0.90357  0.95189  1.0000
  C   C443      1.0  0.39291  0.92493  0.85015  1.0000
  C   C444      1.0  0.22227  0.89710  0.93685  1.0000
  C   C445      1.0  0.44540  0.95982  0.79840  1.0000
  C   C446      1.0  0.45399  0.94135  0.79980  1.0000
  H   H444      1.0  0.29571  0.96185  0.93484  1.0000
  S   S147      1.0  0.01076  0.72135  0.99266  1.0000
  H   H445      1.0  0.43982  0.91990  0.80104  1.0000
  C   C447      1.0  0.15591  0.88665  0.94138  1.0000
  C   C448      1.0  0.30911  0.96389  0.88099  1.0000
  H   H446      1.0  0.15399  0.89109  0.92434  1.0000
  H   H447      1.0  0.37741  0.91875  0.83750  1.0000
  C   C449      1.0  0.27277  0.96501  0.90948  1.0000
  C   C450      1.0  0.27043  0.96641  0.88696  1.0000
  C   C451      1.0  0.28842  0.96597  0.87285  1.0000
  C   C452      1.0  0.02839  0.54198  0.81618  1.0000
  C   C453      1.0  0.01991  0.50186  0.83606  1.0000
  H   H448      1.0  0.38457  0.91201  0.86436  1.0000
  C   C454      1.0  0.20028  0.89893  0.93328  1.0000
  H   H449      1.0  0.20111  0.91315  0.92159  1.0000
  H   H450      1.0  0.20688  0.84667  0.75054  1.0000
  S   S148      1.0  0.22923  0.93400  0.98705  1.0000
  Fe  Fe72      1.0  0.00367  0.75528  0.98648  1.0000
  Fe  Fe73      1.0  0.19220  0.93403  0.99269  1.0000
  H   H451      1.0  0.28622  0.96715  0.85566  1.0000
  C   C455      1.0  0.46416  0.98749  0.79690  1.0000
  H   H452      1.0  0.04076  0.66626  0.75776  1.0000
  H   H453      1.0  0.25458  0.96798  0.88033  1.0000
  C   C456      1.0  0.22186  0.87978  0.95248  1.0000
  H   H454      1.0  0.32718  0.96072  0.91015  1.0000
  C   C457      1.0  0.05747  0.66868  0.74955  1.0000
  H   H455      1.0  0.00865  0.80573  0.94110  1.0000
  H   H456      1.0  0.05507  0.52105  0.76862  1.0000
  N   N36       1.0  0.40403  0.95364  0.85615  1.0000
  S   S149      1.0  0.00156  0.59118  0.81849  1.0000
  S   S150      1.0  0.04568  0.61918  0.76672  1.0000
  H   H457      1.0  0.36918  0.94626  0.87057  1.0000
  C   C458      1.0  0.20246  0.80755  0.75559  1.0000
  H   H458      1.0  0.05420  0.56382  0.76709  1.0000
  C   C459      1.0  0.28752  0.87010  0.75145  1.0000
  H   H459      1.0  0.22171  0.81642  0.76302  1.0000
  C   C460      1.0  0.19948  0.86437  0.96422  1.0000
  H   H460      1.0  0.44064  0.96676  0.84211  1.0000
  H   H461      1.0  0.23904  0.87878  0.95577  1.0000
  H   H462      1.0  0.38647  0.99457  0.87990  1.0000
  C   C461      1.0  0.10578  0.87167  0.98026  1.0000
  H   H463      1.0  0.23976  0.90970  0.92795  1.0000
  C   C462      1.0  0.04783  0.52726  0.78199  1.0000
  H   H464      1.0  0.16061  0.85487  0.96960  1.0000
  N   N37       1.0  0.17832  0.88353  0.94469  1.0000
  H   H465      1.0  0.03605  0.50928  0.84821  1.0000
  H   H466      1.0  0.06709  0.85597  0.96674  1.0000
  H   H467      1.0  0.30289  0.87679  0.76359  1.0000
  H   H468      1.0  0.02043  0.54769  0.82933  1.0000
  C   C463      1.0  0.03758  0.55858  0.79829  1.0000
  C   C464      1.0  0.38902  0.96128  0.86664  1.0000
  H   H469      1.0  0.40767  0.92112  0.84330  1.0000
  H   H470      1.0  0.13752  0.86786  0.94553  1.0000
  C   C465      1.0  0.39875  0.98862  0.87200  1.0000
  C   C466      1.0  0.48075  0.95023  0.79949  1.0000
  S   S151      1.0  0.29269  0.92080  0.75698  1.0000
  C   C467      1.0  0.07930  0.85130  0.97637  1.0000
  C   C468      1.0  0.04725  0.55110  0.78108  1.0000
  H   H471      1.0  0.11352  0.89160  0.97366  1.0000
  H   H472      1.0  0.48683  0.93564  0.80047  1.0000
  N   N38       1.0  0.02891  0.51857  0.81691  1.0000
  C   C469      1.0  0.19627  0.76231  0.75943  1.0000
  S   S152      1.0  0.38428  0.99606  0.81874  1.0000
  C   C470      1.0  0.06443  0.64918  0.75180  1.0000
  C   C471      1.0  0.49092  0.99638  0.79661  1.0000
  N   N39       1.0  0.18685  0.77999  0.75268  1.0000
  H   H473      1.0  0.00348  0.50249  0.84328  1.0000
  H   H474      1.0  0.32572  0.98708  0.74948  1.0000
  Fe  Fe74      1.0  0.22153  0.99736  0.99205  1.0000
  C   C472      1.0  0.08469  0.81972  0.99743  1.0000
  C   C473      1.0  0.19421  0.82480  0.74846  1.0000
  Fe  Fe75      1.0  0.93521  0.32547  0.19360  1.0000
  S   S153      1.0  0.94115  0.34055  0.15967  1.0000
  S   S154      1.0  0.89421  0.30453  0.20686  1.0000
  Fe  Fe76      1.0  0.96774  0.32416  0.15621  1.0000
  C   C474      1.0  0.66410  0.04502  0.24185  1.0000
  H   H475      1.0  0.95667  0.42478  0.19840  1.0000
  C   C475      1.0  0.93088  0.27147  0.00479  1.0000
  S   S155      1.0  0.95971  0.30711  0.18981  1.0000
  S   S156      1.0  0.96793  0.36535  0.20716  1.0000
  C   C476      1.0  0.97955  0.48922  0.16443  1.0000
  C   C477      1.0  0.52990  0.46146  0.21042  1.0000
  C   C478      1.0  0.85389  0.27040  0.23246  1.0000
  C   C479      1.0  0.97728  0.44586  0.17035  1.0000
  C   C480      1.0  0.85563  0.09859  0.01024  1.0000
  H   H476      1.0  0.59252  0.48892  0.21552  1.0000
  H   H477      1.0  0.70167  0.09491  0.20745  1.0000
  H   H478      1.0  0.88735  0.29038  0.15829  1.0000
  H   H479      1.0  0.87241  0.26368  0.13766  1.0000
  N   N40       1.0  0.88551  0.25373  0.16596  1.0000
  C   C481      1.0  0.90341  0.24600  0.16737  1.0000
  C   C482      1.0  0.50894  0.46150  0.21966  1.0000
  C   C483      1.0  0.96228  0.25676  0.07251  1.0000
  C   C484      1.0  0.95741  0.46259  0.19514  1.0000
  Fe  Fe77      1.0  0.62493  0.99814  0.18895  1.0000
  H   H480      1.0  0.81718  0.06393  0.01591  1.0000
  C   C485      1.0  0.62311  0.06570  0.23143  1.0000
  C   C486      1.0  0.83333  0.07275  0.00517  1.0000
  C   C487      1.0  0.61917  0.06495  0.17125  1.0000
  C   C488      1.0  0.69423  0.08490  0.22252  1.0000
  C   C489      1.0  0.96553  0.48604  0.18301  1.0000
  C   C490      1.0  0.62900  0.07304  0.20998  1.0000
  C   C491      1.0  0.88821  0.27359  0.15014  1.0000
  C   C492      1.0  0.98545  0.46936  0.15825  1.0000
  H   H481      1.0  0.90708  0.28281  0.14189  1.0000
  C   C493      1.0  0.84111  0.24996  0.24771  1.0000
  H   H482      1.0  0.63297  0.05853  0.16670  1.0000
  C   C494      1.0  0.95441  0.26169  0.09257  1.0000
  H   H483      1.0  0.64804  0.09016  0.20640  1.0000
  C   C495      1.0  0.67348  0.05768  0.22223  1.0000
  H   H484      1.0  0.56347  0.00898  0.22268  1.0000
  Fe  Fe78      1.0  0.97576  0.37938  0.17311  1.0000
  H   H485      1.0  0.91998  0.25470  0.15697  1.0000
  H   H486      1.0  0.84432  0.28035  0.22594  1.0000
  C   C496      1.0  0.86465  0.24270  0.17908  1.0000
  C   C497      1.0  0.96314  0.44263  0.18887  1.0000
  C   C498      1.0  0.87900  0.27831  0.22584  1.0000
  H   H487      1.0  0.57473  0.02291  0.18516  1.0000
  Fe  Fe79      1.0  0.98379  0.23843  0.01163  1.0000
  C   C499      1.0  0.86130  0.22344  0.19419  1.0000
  C   C500      1.0  0.58183  0.02728  0.21934  1.0000
  H   H488      1.0  0.94654  0.45978  0.20954  1.0000
  H   H489      1.0  0.49723  0.48505  0.23807  1.0000
  C   C501      1.0  0.94955  0.12324  0.00584  1.0000
  H   H490      1.0  0.87757  0.20132  0.20799  1.0000
  N   N41       1.0  0.55472  0.48308  0.21371  1.0000
  S   S157      1.0  0.98045  0.19798  0.01622  1.0000
  H   H491      1.0  0.62873  0.08721  0.16924  1.0000
  H   H492      1.0  0.95655  0.31671  0.24046  1.0000
  H   H493      1.0  0.91537  0.22139  0.18375  1.0000
  C   C502      1.0  0.70551  0.09936  0.24213  1.0000
  H   H494      1.0  0.84511  0.21532  0.20500  1.0000
  C   C503      1.0  0.87964  0.21573  0.19596  1.0000
  C   C504      1.0  0.96868  0.28717  0.10347  1.0000
  S   S158      1.0  0.90506  0.14335  0.00434  1.0000
  H   H495      1.0  0.52606  0.44425  0.20027  1.0000
  H   H496      1.0  0.51420  0.48057  0.16489  1.0000
  S   S159      1.0  0.65902  0.04119  0.19698  1.0000
  H   H497      1.0  0.91027  0.27087  0.22927  1.0000
  C   C505      1.0  0.90085  0.22704  0.18247  1.0000
  H   H498      1.0  0.85087  0.24941  0.17836  1.0000
  S   S160      1.0  0.95759  0.29188  0.12894  1.0000
  H   H499      1.0  0.93714  0.24552  0.09974  1.0000
  H   H500      1.0  0.60208  0.05474  0.15992  1.0000
  N   N42       1.0  0.61172  0.05784  0.19364  1.0000
  C   C506      1.0  0.89108  0.26520  0.23435  1.0000
  H   H501      1.0  0.92966  0.12273  0.03452  1.0000
  C   C507      1.0  0.59942  0.04254  0.23608  1.0000
  C   C508      1.0  0.58834  0.03524  0.19808  1.0000
  H   H502      1.0  0.95106  0.23701  0.06455  1.0000
  H   H503      1.0  0.57097  0.46349  0.19593  1.0000
  H   H504      1.0  0.64813  0.02413  0.24191  1.0000
  C   C509      1.0  0.98470  0.27729  0.06295  1.0000
  C   C510      1.0  0.95760  0.28876  0.00873  1.0000
  C   C511      1.0  0.99098  0.30775  0.09381  1.0000
  H   H505      1.0  0.96968  0.14265  0.05794  1.0000
  H   H506      1.0  0.85623  0.10928  0.02489  1.0000
  H   H507      1.0  0.91763  0.26501  0.01804  1.0000
  H   H508      1.0  0.63736  0.07723  0.24423  1.0000
  H   H509      1.0  0.72148  0.12025  0.24205  1.0000
  C   C512      1.0  0.94805  0.12748  0.02785  1.0000
  C   C513      1.0  0.97048  0.13867  0.04094  1.0000
  C   C514      1.0  0.51343  0.48413  0.23181  1.0000
  C   C515      1.0  0.49529  0.47274  0.17169  1.0000
  H   H510      1.0  0.96473  0.29552  0.02517  1.0000
  C   C516      1.0  0.57658  0.48345  0.20345  1.0000
  S   S161      1.0  0.98586  0.42176  0.16186  1.0000
  H   H511      1.0  0.92979  0.34656  0.24551  1.0000
  S   S162      1.0  0.87024  0.14645  0.49063  1.0000
  H   H512      1.0  0.96362  0.19410  0.43057  1.0000
  S   S163      1.0  0.70274  0.45949  0.30685  1.0000
  Fe  Fe80      1.0  0.64944  0.26787  0.37333  1.0000
  S   S164      1.0  0.66989  0.30268  0.39748  1.0000
  S   S165      1.0  0.65930  0.23489  0.36952  1.0000
  Fe  Fe81      1.0  0.60966  0.28303  0.36016  1.0000
  S   S166      1.0  0.62766  0.31928  0.38300  1.0000
  S   S167      1.0  0.57587  0.27704  0.33872  1.0000
  Fe  Fe82      1.0  0.66599  0.32753  0.37156  1.0000
  S   S168      1.0  0.70056  0.37052  0.36798  1.0000
  Fe  Fe83      1.0  0.63000  0.29187  0.40715  1.0000
  S   S169      1.0  0.61505  0.29404  0.44016  1.0000
  S   S170      1.0  0.64826  0.29334  0.34670  1.0000
  S   S171      1.0  0.60932  0.25502  0.38497  1.0000
  Fe  Fe84      1.0  0.75786  0.20423  0.31099  1.0000
  S   S172      1.0  0.73741  0.16377  0.32648  1.0000
  S   S173      1.0  0.74537  0.23545  0.31178  1.0000
  Fe  Fe85      1.0  0.79964  0.19517  0.29299  1.0000
  S   S174      1.0  0.78189  0.15354  0.30760  1.0000
  S   S175      1.0  0.83838  0.21152  0.27599  1.0000
  Fe  Fe86      1.0  0.74338  0.14683  0.29573  1.0000
  S   S176      1.0  0.70902  0.10405  0.28703  1.0000
  Fe  Fe87      1.0  0.77706  0.17284  0.33737  1.0000
  S   S177      1.0  0.77843  0.16224  0.37263  1.0000
  S   S178      1.0  0.76127  0.18699  0.27909  1.0000
  S   S179      1.0  0.79734  0.21487  0.32383  1.0000
  Fe  Fe88      1.0  0.84246  0.11650  0.46527  1.0000
  S   S180      1.0  0.85170  0.08428  0.47320  1.0000
  S   S181      1.0  0.84589  0.12833  0.42983  1.0000
  H   H513      1.0  0.98497  0.16873  0.43999  1.0000
  H   H514      1.0  0.81973  0.00709  0.49208  1.0000
  H   H515      1.0  0.92687  0.19849  0.43056  1.0000
  C   C517      1.0  0.88585  0.30376  0.28092  1.0000
  C   C518      1.0  0.92165  0.33165  0.25803  1.0000
  H   H516      1.0  0.98384  0.21073  0.48081  1.0000
  C   C519      1.0  0.68208  0.25089  0.28831  1.0000
  H   H517      1.0  0.70058  0.22900  0.27948  1.0000
  H   H518      1.0  0.69945  0.32356  0.44208  1.0000
  H   H519      1.0  0.79239  0.11824  0.33905  1.0000
  H   H520      1.0  0.50470  0.25770  0.37367  1.0000
  C   C520      1.0  0.67531  0.05952  0.26146  1.0000
  C   C521      1.0  0.61670  0.29534  0.48446  1.0000
  H   H521      1.0  0.97112  0.32146  0.26697  1.0000
  C   C522      1.0  0.79838  0.15418  0.38833  1.0000
  C   C523      1.0  0.79241  0.14757  0.41005  1.0000
  C   C524      1.0  0.80670  0.13967  0.42298  1.0000
  C   C525      1.0  0.82722  0.13827  0.41433  1.0000
  C   C526      1.0  0.83320  0.14486  0.39260  1.0000
  C   C527      1.0  0.81892  0.15281  0.37967  1.0000
  H   H522      1.0  0.77659  0.14858  0.41695  1.0000
  H   H523      1.0  0.80190  0.13477  0.43966  1.0000
  H   H524      1.0  0.84906  0.14393  0.38573  1.0000
  H   H525      1.0  0.82390  0.15802  0.36307  1.0000
  C   C528      1.0  0.72481  0.23715  0.33104  1.0000
  C   C529      1.0  0.70946  0.21542  0.34432  1.0000
  C   C530      1.0  0.69023  0.21560  0.35676  1.0000
  C   C531      1.0  0.68644  0.23767  0.35636  1.0000
  C   C532      1.0  0.70276  0.26007  0.34401  1.0000
  C   C533      1.0  0.72176  0.25972  0.33134  1.0000
  H   H526      1.0  0.71174  0.19803  0.34441  1.0000
  H   H527      1.0  0.67784  0.19827  0.36640  1.0000
  H   H528      1.0  0.70015  0.27723  0.34361  1.0000
  H   H529      1.0  0.73366  0.27671  0.32123  1.0000
  C   C534      1.0  0.62709  0.29125  0.46570  1.0000
  C   C535      1.0  0.64741  0.28636  0.46776  1.0000
  Fe  Fe89      1.0  0.81953  0.06870  0.49693  1.0000
  H   H530      1.0  0.65544  0.28293  0.45350  1.0000
  H   H531      1.0  0.88660  0.33296  0.25917  1.0000
  C   C536      1.0  0.70161  0.43567  0.32525  1.0000
  C   C537      1.0  0.68033  0.40877  0.32405  1.0000
  C   C538      1.0  0.67947  0.38871  0.33733  1.0000
  C   C539      1.0  0.70003  0.39535  0.35185  1.0000
  C   C540      1.0  0.72121  0.42230  0.35319  1.0000
  C   C541      1.0  0.72195  0.44242  0.34006  1.0000
  H   H532      1.0  0.66453  0.40334  0.31262  1.0000
  H   H533      1.0  0.66307  0.36806  0.33609  1.0000
  H   H534      1.0  0.73720  0.42766  0.36440  1.0000
  H   H535      1.0  0.73844  0.46302  0.34115  1.0000
  C   C542      1.0  0.52435  0.25280  0.32658  1.0000
  C   C543      1.0  0.54290  0.25003  0.33842  1.0000
  C   C544      1.0  0.53465  0.22640  0.34999  1.0000
  C   C545      1.0  0.50808  0.20593  0.34985  1.0000
  H   H536      1.0  0.53056  0.27093  0.31747  1.0000
  H   H537      1.0  0.54870  0.22395  0.35911  1.0000
  H   H538      1.0  0.90102  0.16812  0.41702  1.0000
  H   H539      1.0  0.86644  0.29689  0.28641  1.0000
  C   C546      1.0  0.94911  0.13236  0.44776  1.0000
  C   C547      1.0  0.92230  0.12034  0.44936  1.0000
  H   H540      1.0  0.72868  0.09606  0.39850  1.0000
  H   H541      1.0  0.77395  0.43172  0.32042  1.0000
  C   C548      1.0  0.69287  0.36526  0.42552  1.0000
  C   C549      1.0  0.80746  0.48090  0.30519  1.0000
  C   C550      1.0  0.54917  0.25076  0.41507  1.0000
  C   C551      1.0  0.73041  0.09512  0.38121  1.0000
  C   C552      1.0  0.65905  0.37411  0.43397  1.0000
  C   C553      1.0  0.55828  0.27452  0.40349  1.0000
  C   C554      1.0  0.74446  0.45201  0.27423  1.0000
  C   C555      1.0  0.95494  0.17127  0.49216  1.0000
  C   C556      1.0  0.73702  0.09557  0.33715  1.0000
  C   C557      1.0  0.65735  0.28585  0.48837  1.0000
  H   H542      1.0  0.88762  0.23445  0.25589  1.0000
  H   H543      1.0  0.70635  0.36566  0.41398  1.0000
  N   N43       1.0  0.69115  0.35479  0.44547  1.0000
  C   C558      1.0  0.70714  0.34328  0.45092  1.0000
  H   H544      1.0  0.73966  0.09627  0.31989  1.0000
  C   C559      1.0  0.49776  0.23245  0.32661  1.0000
  C   C560      1.0  0.98044  0.19174  0.48698  1.0000
  C   C561      1.0  0.50743  0.23200  0.39684  1.0000
  H   H545      1.0  0.70707  0.33955  0.46845  1.0000
  H   H546      1.0  0.54271  0.29781  0.36061  1.0000
  H   H547      1.0  0.97191  0.34937  0.25422  1.0000
  H   H548      1.0  0.69492  0.26848  0.27901  1.0000
  H   H549      1.0  0.82192  0.24433  0.25284  1.0000
  C   C562      1.0  0.89913  0.29147  0.28833  1.0000
  C   C563      1.0  0.76604  0.43733  0.30708  1.0000
  N   N44       1.0  0.66974  0.20670  0.30104  1.0000
  H   H550      1.0  0.72850  0.40020  0.30810  1.0000
  H   H551      1.0  0.50187  0.18778  0.35894  1.0000
  H   H552      1.0  0.67208  0.34522  0.47557  1.0000
  H   H553      1.0  0.69364  0.18965  0.29834  1.0000
  H   H554      1.0  0.78682  0.08923  0.35399  1.0000
  C   C564      1.0  0.91075  0.13519  0.44398  1.0000
  H   H555      1.0  0.67829  0.38329  0.40358  1.0000
  H   H556      1.0  0.89933  0.17426  0.44523  1.0000
  H   H557      1.0  0.57812  0.29110  0.40641  1.0000
  H   H558      1.0  0.93347  0.28943  0.28572  1.0000
  C   C565      1.0  0.75137  0.09442  0.37274  1.0000
  C   C566      1.0  0.95180  0.17327  0.43559  1.0000
  C   C567      1.0  0.85321  0.23694  0.25634  1.0000
  H   H559      1.0  0.56198  0.24905  0.42659  1.0000
  C   C568      1.0  0.72952  0.42678  0.28360  1.0000
  N   N45       1.0  0.75455  0.09486  0.35097  1.0000
  H   H560      1.0  0.63901  0.18950  0.32339  1.0000
  C   C569      1.0  0.89717  0.32402  0.26571  1.0000
  C   C570      1.0  0.65079  0.20637  0.31306  1.0000
  H   H561      1.0  0.91064  0.09998  0.45547  1.0000
  H   H562      1.0  0.66062  0.16846  0.28796  1.0000
  H   H563      1.0  0.51639  0.21068  0.42034  1.0000
  S   S182      1.0  0.80846  0.09895  0.48703  1.0000
  N   N46       1.0  0.93465  0.31966  0.26552  1.0000
  H   H564      1.0  0.67307  0.28205  0.48980  1.0000
  C   C571      1.0  0.68512  0.22845  0.28859  1.0000
  N   N47       1.0  0.54250  0.27674  0.38865  1.0000
  H   H565      1.0  0.57342  0.31149  0.37392  1.0000
  N   N48       1.0  0.92551  0.16141  0.43750  1.0000
  C   C572      1.0  0.91274  0.17645  0.43227  1.0000
  H   H566      1.0  0.95842  0.12141  0.45267  1.0000
  H   H567      1.0  0.69672  0.09757  0.37359  1.0000
  C   C573      1.0  0.66305  0.25088  0.30077  1.0000
  H   H568      1.0  0.60099  0.29916  0.48307  1.0000
  H   H569      1.0  0.88993  0.12579  0.44530  1.0000
  H   H570      1.0  0.81508  0.47111  0.31574  1.0000
  H   H571      1.0  0.64625  0.38123  0.42932  1.0000
  H   H572      1.0  0.72761  0.35733  0.44644  1.0000
  H   H573      1.0  0.54901  0.31643  0.38601  1.0000
  C   C574      1.0  0.51723  0.25605  0.38550  1.0000
  H   H574      1.0  0.70920  0.41366  0.27882  1.0000
  C   C575      1.0  0.87814  0.24449  0.24938  1.0000
  H   H575      1.0  0.88998  0.27493  0.29951  1.0000
  H   H576      1.0  0.66095  0.26846  0.30126  1.0000
  H   H577      1.0  0.63306  0.22867  0.32359  1.0000
  C   C576      1.0  0.67385  0.35395  0.45986  1.0000
  C   C577      1.0  0.55232  0.30193  0.37684  1.0000
  C   C578      1.0  0.96399  0.15892  0.44067  1.0000
  C   C579      1.0  0.69610  0.08674  0.26175  1.0000
  C   C580      1.0  0.71575  0.09612  0.34505  1.0000
  C   C581      1.0  0.64724  0.22847  0.31318  1.0000
  C   C582      1.0  0.74034  0.41928  0.30008  1.0000
  C   C583      1.0  0.95968  0.32707  0.25641  1.0000
  C   C584      1.0  0.92364  0.29966  0.28036  1.0000
  C   C585      1.0  0.71260  0.09616  0.36724  1.0000
  H   H578      1.0  0.70227  0.09729  0.33398  1.0000
  H   H579      1.0  0.66787  0.04951  0.27652  1.0000
  H   H580      1.0  0.76573  0.09482  0.38376  1.0000
  C   C586      1.0  0.77785  0.09668  0.34238  1.0000
  H   H581      1.0  0.77311  0.08439  0.32720  1.0000
  N   N49       1.0  0.78069  0.46189  0.29756  1.0000
  H   H582      1.0  0.66795  0.17308  0.31669  1.0000
  C   C587      1.0  0.67302  0.18323  0.30092  1.0000
  C   C588      1.0  0.52361  0.22933  0.41162  1.0000
  C   C589      1.0  0.67697  0.37520  0.41951  1.0000
  C   C590      1.0  0.65747  0.36346  0.45430  1.0000
  H   H583      1.0  0.59494  0.03613  0.25258  1.0000
  H   H584      1.0  0.64319  0.36185  0.46552  1.0000
  C   C591      1.0  0.77018  0.46938  0.28141  1.0000
  H   H585      1.0  0.93900  0.17460  0.48997  1.0000
  H   H586      1.0  0.82054  0.48935  0.29131  1.0000
  H   H587      1.0  0.78154  0.48910  0.27421  1.0000
  H   H588      1.0  0.73587  0.45849  0.26205  1.0000
  Fe  Fe90      1.0  0.74885  0.15622  0.69499  1.0000
  S   S183      1.0  0.75405  0.19762  0.69040  1.0000
  S   S184      1.0  0.73246  0.13633  0.72739  1.0000
  Fe  Fe91      1.0  0.77869  0.16087  0.65347  1.0000
  S   S185      1.0  0.78556  0.20212  0.64660  1.0000
  S   S186      1.0  0.79732  0.14131  0.63447  1.0000
  Fe  Fe92      1.0  0.79520  0.21120  0.68211  1.0000
  S   S187      1.0  0.83079  0.25198  0.69254  1.0000
  Fe  Fe93      1.0  0.74391  0.18495  0.65550  1.0000
  S   S188      1.0  0.71634  0.18989  0.63296  1.0000
  S   S189      1.0  0.79088  0.17107  0.68862  1.0000
  S   S190      1.0  0.73616  0.14252  0.66040  1.0000
  H   H589      1.0  0.78937  0.16945  0.59884  1.0000
  C   C592      1.0  0.89160  0.23909  0.69552  1.0000
  S   S191      1.0  0.75157  0.47541  0.65014  1.0000
  Fe  Fe94      1.0  0.64595  0.29204  0.56593  1.0000
  S   S192      1.0  0.62831  0.25546  0.58709  1.0000
  S   S193      1.0  0.66064  0.28968  0.53269  1.0000
  Fe  Fe95      1.0  0.64591  0.32911  0.60216  1.0000
  S   S194      1.0  0.62821  0.29523  0.62573  1.0000
  S   S195      1.0  0.64996  0.36976  0.61085  1.0000
  Fe  Fe96      1.0  0.65622  0.28380  0.61296  1.0000
  S   S196      1.0  0.68233  0.27754  0.63618  1.0000
  Fe  Fe97      1.0  0.60169  0.26959  0.59821  1.0000
  S   S197      1.0  0.55760  0.24107  0.59856  1.0000
  S   S198      1.0  0.67575  0.31972  0.59130  1.0000
  S   S199      1.0  0.61748  0.30411  0.57510  1.0000
  Fe  Fe98      1.0  0.83668  0.12624  0.51335  1.0000
  S   S200      1.0  0.84622  0.09540  0.52426  1.0000
  S   S201      1.0  0.82314  0.14927  0.53436  1.0000
  C   C593      1.0  0.84881  0.23747  0.72829  1.0000
  C   C594      1.0  0.87342  0.28472  0.71884  1.0000
  C   C595      1.0  0.72280  0.44605  0.63987  1.0000
  C   C596      1.0  0.72376  0.42299  0.63393  1.0000
  C   C597      1.0  0.70162  0.39942  0.62519  1.0000
  C   C598      1.0  0.67830  0.39878  0.62211  1.0000
  C   C599      1.0  0.67737  0.42190  0.62795  1.0000
  C   C600      1.0  0.69947  0.44542  0.63684  1.0000
  H   H590      1.0  0.74170  0.42326  0.63621  1.0000
  H   H591      1.0  0.70263  0.38179  0.62079  1.0000
  H   H592      1.0  0.65944  0.42165  0.62558  1.0000
  H   H593      1.0  0.69846  0.46303  0.64128  1.0000
  C   C601      1.0  0.52706  0.24423  0.65600  1.0000
  C   C602      1.0  0.54498  0.24795  0.64012  1.0000
  C   C603      1.0  0.53609  0.23588  0.61961  1.0000
  C   C604      1.0  0.50915  0.21979  0.61532  1.0000
  H   H594      1.0  0.53413  0.25374  0.67178  1.0000
  H   H595      1.0  0.56564  0.26028  0.64367  1.0000
  H   H596      1.0  0.76331  0.19402  0.73563  1.0000
  H   H597      1.0  0.59452  0.34299  0.66365  1.0000
  C   C605      1.0  0.64695  0.28993  0.50716  1.0000
  H   H598      1.0  0.78939  0.48966  0.61854  1.0000
  H   H599      1.0  0.55839  0.29484  0.58342  1.0000
  H   H600      1.0  0.61831  0.29781  0.51935  1.0000
  C   C606      1.0  0.70639  0.10296  0.73305  1.0000
  C   C607      1.0  0.69161  0.08374  0.71675  1.0000
  H   H601      1.0  0.69611  0.08892  0.70007  1.0000
  C   C608      1.0  0.85235  0.25815  0.71466  1.0000
  H   H602      1.0  0.59704  0.32715  0.60571  1.0000
  C   C609      1.0  0.85539  0.19296  0.67210  1.0000
  H   H603      1.0  0.87646  0.30085  0.70830  1.0000
  C   C610      1.0  0.70493  0.21257  0.63580  1.0000
  C   C611      1.0  0.71533  0.23354  0.65144  1.0000
  C   C612      1.0  0.70747  0.25267  0.65176  1.0000
  C   C613      1.0  0.68921  0.25112  0.63648  1.0000
  C   C614      1.0  0.67825  0.22970  0.62122  1.0000
  C   C615      1.0  0.68607  0.21053  0.62093  1.0000
  H   H604      1.0  0.72980  0.23535  0.66299  1.0000
  H   H605      1.0  0.71598  0.26911  0.66367  1.0000
  H   H606      1.0  0.66403  0.22810  0.60950  1.0000
  H   H607      1.0  0.67780  0.19428  0.60885  1.0000
  C   C616      1.0  0.80556  0.14501  0.60681  1.0000
  C   C617      1.0  0.81835  0.13234  0.59859  1.0000
  C   C618      1.0  0.82419  0.13366  0.57655  1.0000
  C   C619      1.0  0.81754  0.14796  0.56249  1.0000
  C   C620      1.0  0.80522  0.16108  0.57082  1.0000
  C   C621      1.0  0.79917  0.15956  0.59280  1.0000
  H   H608      1.0  0.82348  0.12111  0.60927  1.0000
  H   H609      1.0  0.83374  0.12354  0.57043  1.0000
  H   H610      1.0  0.80009  0.17232  0.56013  1.0000
  C   C622      1.0  0.88409  0.21351  0.70326  1.0000
  H   H611      1.0  0.86671  0.22891  0.63201  1.0000
  C   C623      1.0  0.88045  0.24104  0.67622  1.0000
  H   H612      1.0  0.84450  0.23507  0.64672  1.0000
  C   C624      1.0  0.77838  0.05802  0.55445  1.0000
  H   H613      1.0  0.58097  0.00319  0.73499  1.0000
  N   N50       1.0  0.71401  0.26898  0.57993  1.0000
  C   C625      1.0  0.72589  0.28830  0.59607  1.0000
  C   C626      1.0  0.71920  0.24866  0.57775  1.0000
  C   C627      1.0  0.74398  0.28794  0.61025  1.0000
  C   C628      1.0  0.73711  0.24761  0.59171  1.0000
  C   C629      1.0  0.74955  0.26742  0.60804  1.0000
  C   C630      1.0  0.69409  0.26876  0.56595  1.0000
  H   H614      1.0  0.72064  0.30345  0.59865  1.0000
  H   H615      1.0  0.70889  0.23264  0.56560  1.0000
  H   H616      1.0  0.75250  0.30263  0.62355  1.0000
  H   H617      1.0  0.74034  0.23081  0.59062  1.0000
  H   H618      1.0  0.76253  0.26608  0.61957  1.0000
  H   H619      1.0  0.69690  0.28934  0.56489  1.0000
  H   H620      1.0  0.69466  0.26204  0.54923  1.0000
  H   H621      1.0  0.67455  0.25484  0.57235  1.0000
  H   H622      1.0  0.89215  0.21179  0.71849  1.0000
  H   H623      1.0  0.50201  0.19016  0.67870  1.0000
  C   C631      1.0  0.97122  0.14264  0.50274  1.0000
  C   C632      1.0  0.63460  0.08381  0.74377  1.0000
  H   H624      1.0  0.60806  0.36312  0.64006  1.0000
  H   H625      1.0  0.83497  0.20116  0.63830  1.0000
  H   H626      1.0  0.77023  0.10676  0.51455  1.0000
  C   C633      1.0  0.50012  0.22858  0.65153  1.0000
  H   H627      1.0  0.76300  0.12307  0.53524  1.0000
  H   H628      1.0  0.96777  0.12354  0.50874  1.0000
  C   C634      1.0  0.86588  0.19025  0.69150  1.0000
  H   H629      1.0  0.85975  0.17023  0.69739  1.0000
  N   N51       1.0  0.86256  0.21815  0.66482  1.0000
  H   H630      1.0  0.73726  0.09063  0.52389  1.0000
  C   C635      1.0  0.77482  0.06116  0.57620  1.0000
  H   H631      1.0  0.61310  0.33569  0.64559  1.0000
  H   H632      1.0  0.61320  0.05301  0.71928  1.0000
  H   H633      1.0  0.75052  0.47803  0.59979  1.0000
  C   C636      1.0  0.85166  0.22094  0.64444  1.0000
  H   H634      1.0  0.88572  0.26099  0.67068  1.0000
  H   H635      1.0  0.54912  0.31650  0.65868  1.0000
  H   H636      1.0  0.90535  0.25730  0.70478  1.0000
  C   C637      1.0  0.62650  0.29463  0.50507  1.0000
  H   H637      1.0  0.77974  0.05114  0.58835  1.0000
  H   H638      1.0  0.83287  0.21687  0.72515  1.0000
  C   C638      1.0  0.57315  0.01576  0.74083  1.0000
  H   H639      1.0  0.84126  0.17477  0.66304  1.0000
  H   H640      1.0  0.76279  0.08062  0.59915  1.0000
  N   N52       1.0  0.76389  0.08839  0.54521  1.0000
  C   C639      1.0  0.77251  0.07163  0.53908  1.0000
  C   C640      1.0  0.76517  0.07755  0.58226  1.0000
  C   C641      1.0  0.59876  0.34226  0.64643  1.0000
  C   C642      1.0  0.75975  0.09108  0.56644  1.0000
  C   C643      1.0  0.75809  0.10275  0.52891  1.0000
  H   H641      1.0  0.77518  0.06888  0.52223  1.0000
  C   C644      1.0  0.53149  0.28842  0.60834  1.0000
  S   S202      1.0  0.78444  0.02610  0.50293  1.0000
  C   C645      1.0  0.66468  0.05042  0.74360  1.0000
  H   H642      1.0  0.75304  0.10446  0.57136  1.0000
  H   H643      1.0  0.51450  0.27377  0.59880  1.0000
  H   H644      1.0  0.78586  0.04535  0.54940  1.0000
  Fe  Fe99      1.0  0.87794  0.11363  0.49963  1.0000
  N   N53       1.0  0.57538  0.32370  0.63343  1.0000
  C   C646      1.0  0.55126  0.31234  0.64203  1.0000
  C   C647      1.0  0.57795  0.31808  0.61250  1.0000
  C   C648      1.0  0.52896  0.29460  0.62960  1.0000
  C   C649      1.0  0.55612  0.30023  0.59969  1.0000
  H   H645      1.0  0.50208  0.21033  0.59951  1.0000
  S   S203      1.0  0.91815  0.11909  0.50541  1.0000
  H   H646      1.0  0.65969  0.04304  0.70923  1.0000
  C   C650      1.0  0.67095  0.05769  0.72202  1.0000
  H   H647      1.0  0.90593  0.31151  0.74027  1.0000
  C   C651      1.0  0.86562  0.24358  0.74635  1.0000
  H   H648      1.0  0.78997  0.24404  0.73259  1.0000
  H   H649      1.0  0.50992  0.28483  0.63667  1.0000
  C   C652      1.0  0.89023  0.29083  0.73691  1.0000
  C   C653      1.0  0.61364  0.05897  0.73599  1.0000
  H   H650      1.0  0.65013  0.09691  0.73318  1.0000
  H   H651      1.0  0.56290  0.01904  0.72732  1.0000
  C   C654      1.0  0.95010  0.14641  0.49988  1.0000
  H   H652      1.0  0.49439  0.19132  0.71677  1.0000
  C   C655      1.0  0.79434  0.23439  0.74548  1.0000
  H   H653      1.0  0.83130  0.28543  0.74127  1.0000
  C   C656      1.0  0.77935  0.20611  0.74693  1.0000
  C   C657      1.0  0.92155  0.26207  0.98379  1.0000
  C   C658      1.0  0.91277  0.49578  0.76635  1.0000
  H   H654      1.0  0.82033  0.28824  0.76758  1.0000
  Fe  Fe100     1.0  0.97819  0.37744  0.79330  1.0000
  C   C659      1.0  0.59574  0.04879  0.77077  1.0000
  H   H655      1.0  0.89190  0.10529  0.96698  1.0000
  Fe  Fe101     1.0  0.94301  0.31577  0.78571  1.0000
  S   S204      1.0  0.90423  0.27738  0.77557  1.0000
  S   S205      1.0  0.94821  0.34390  0.81381  1.0000
  H   H656      1.0  0.78593  0.02518  0.90953  1.0000
  H   H657      1.0  0.72540  0.05996  0.95738  1.0000
  C   C660      1.0  0.96558  0.28702  0.97162  1.0000
  Fe  Fe102     1.0  0.97239  0.22798  0.96237  1.0000
  S   S206      1.0  0.96797  0.18659  0.96438  1.0000
  N   N54       1.0  0.77083  0.03737  0.93509  1.0000
  C   C661      1.0  0.83220  0.05824  0.98649  1.0000
  C   C662      1.0  0.95647  0.46017  0.81946  1.0000
  C   C663      1.0  0.80580  0.20899  0.77758  1.0000
  H   H658      1.0  0.80805  0.04151  0.93219  1.0000
  H   H659      1.0  0.67491  0.06441  0.77659  1.0000
  H   H660      1.0  0.90093  0.24823  0.98055  1.0000
  C   C664      1.0  0.78524  0.19334  0.76295  1.0000
  H   H661      1.0  0.97902  0.29233  0.95862  1.0000
  C   C665      1.0  0.97391  0.12542  0.97399  1.0000
  S   S207      1.0  0.94714  0.22042  0.99106  1.0000
  C   C666      1.0  0.85366  0.07041  0.97285  1.0000
  S   S208      1.0  0.97350  0.30795  0.79883  1.0000
  H   H662      1.0  0.77081  0.08106  0.97197  1.0000
  H   H663      1.0  0.95901  0.12721  0.96466  1.0000
  H   H664      1.0  0.94693  0.45796  0.83453  1.0000
  S   S209      1.0  0.60378  0.00703  0.80783  1.0000
  H   H665      1.0  0.83647  0.24933  0.78708  1.0000
  C   C667      1.0  0.76371  0.06575  0.95910  1.0000
  C   C668      1.0  0.49428  0.45497  0.81189  1.0000
  H   H666      1.0  0.85321  0.05957  0.95834  1.0000
  C   C669      1.0  0.95559  0.26101  0.89191  1.0000
  C   C670      1.0  0.96174  0.28108  0.87634  1.0000
  H   H667      1.0  0.93850  0.24098  0.88936  1.0000
  H   H668      1.0  0.94948  0.27631  0.86204  1.0000
  H   H669      1.0  0.99137  0.46792  0.76610  1.0000
  S   S210      1.0  0.97105  0.34923  0.76458  1.0000
  C   C671      1.0  0.89438  0.49589  0.80126  1.0000
  H   H670      1.0  0.71144  0.11034  0.76743  1.0000
  H   H671      1.0  0.58072  0.03518  0.78151  1.0000
  C   C672      1.0  0.96398  0.48337  0.80717  1.0000
  C   C673      1.0  0.93898  0.26989  0.96707  1.0000
  C   C674      1.0  0.67947  0.06962  0.75993  1.0000
  H   H672      1.0  0.61775  0.07832  0.79620  1.0000
  C   C675      1.0  0.74593  0.02564  0.92704  1.0000
  S   S211      1.0  0.98440  0.41960  0.78521  1.0000
  N   N55       1.0  0.97279  0.13021  0.99707  1.0000
  S   S212      1.0  0.96206  0.24026  0.92995  1.0000
  Fe  Fe103     1.0  0.94462  0.18016  0.99404  1.0000
  H   H673      1.0  0.70945  0.02398  0.92856  1.0000
  C   C676      1.0  0.82021  0.23730  0.77588  1.0000
  H   H674      1.0  0.86239  0.22757  0.75709  1.0000
  C   C677      1.0  0.72933  0.03378  0.93476  1.0000
  H   H675      1.0  0.84993  0.28786  0.76475  1.0000
  Fe  Fe104     1.0  0.98059  0.33772  0.82553  1.0000
  H   H676      1.0  0.78103  0.00745  0.93449  1.0000
  C   C678      1.0  0.97123  0.26654  0.91070  1.0000
  C   C679      1.0  0.87579  0.09643  0.97775  1.0000
  C   C680      1.0  0.63617  0.09085  0.76555  1.0000
  C   C681      1.0  0.73829  0.05391  0.95094  1.0000
  H   H677      1.0  0.97075  0.10487  0.97115  1.0000
  C   C682      1.0  0.97616  0.48570  0.78767  1.0000
  C   C683      1.0  0.97473  0.44279  0.79362  1.0000
  C   C684      1.0  0.50632  0.48167  0.80427  1.0000
  C   C685      1.0  0.96180  0.44005  0.81278  1.0000
  H   H678      1.0  0.81070  0.19928  0.79002  1.0000
  C   C686      1.0  0.98356  0.30728  0.87941  1.0000
  H   H679      1.0  0.50510  0.01781  0.79535  1.0000
  N   N56       1.0  0.97455  0.29644  0.99220  1.0000
  H   H680      1.0  0.50607  0.44837  0.81983  1.0000
  S   S213      1.0  0.80465  0.02522  0.97910  1.0000
  N   N57       1.0  0.81459  0.24957  0.75978  1.0000
  C   C687      1.0  0.61662  0.07328  0.77917  1.0000
  C   C688      1.0  0.77982  0.05720  0.95092  1.0000
  H   H681      1.0  0.79940  0.06621  0.95762  1.0000
  H   H682      1.0  0.95636  0.42268  0.82267  1.0000
  H   H683      1.0  0.90135  0.47506  0.75891  1.0000
  C   C689      1.0  0.82971  0.27924  0.75833  1.0000
  C   C690      1.0  0.78730  0.02746  0.92736  1.0000
  H   H684      1.0  0.73860  0.00950  0.91482  1.0000
  H   H685      1.0  0.98652  0.23604  0.84073  1.0000
  C   C691      1.0  0.70015  0.09570  0.75466  1.0000
  S   S214      1.0  0.72891  0.00054  0.98621  1.0000
  S   S215      1.0  0.63731  0.01774  0.74892  1.0000
  H   H686      1.0  0.90553  0.48806  0.80861  1.0000
  C   C692      1.0  0.88609  0.27035  0.75102  1.0000
  C   C693      1.0  0.98152  0.46560  0.78102  1.0000
  H   H687      1.0  0.65281  0.10962  0.77189  1.0000
  C   C694      1.0  0.87709  0.11077  0.99662  1.0000
  H   H688      1.0  0.77385  0.17132  0.76388  1.0000
  H   H689      1.0  0.93210  0.26209  0.95075  1.0000
  H   H690      1.0  0.93202  0.11482  0.99577  1.0000
  H   H691      1.0  0.55862  0.00411  0.75325  1.0000
  N   N58       1.0  0.59456  0.04186  0.74945  1.0000
  H   H692      1.0  0.92925  0.49743  0.77604  1.0000
  H   H693      1.0  0.67638  0.60133  0.22567  1.0000
  Fe  Fe105     1.0  0.94472  0.58996  0.19707  1.0000
  S   S216      1.0  0.93483  0.55987  0.16973  1.0000
  S   S217      1.0  0.91442  0.59811  0.21124  1.0000
  Fe  Fe106     1.0  0.96589  0.55329  0.18382  1.0000
  H   H694      1.0  0.53374  0.84007  0.16763  1.0000
  Fe  Fe107     1.0  0.96673  0.59482  0.15158  1.0000
  S   S218      1.0  0.95617  0.59946  0.11648  1.0000
  S   S219      1.0  0.97392  0.58165  0.21256  1.0000
  C   C695      1.0  0.98515  0.62347  0.02381  1.0000
  Fe  Fe108     1.0  0.59888  0.61477  0.20160  1.0000
  S   S220      1.0  0.57279  0.59865  0.17196  1.0000
  S   S221      1.0  0.60950  0.65288  0.22200  1.0000
  Fe  Fe109     1.0  0.61383  0.57146  0.19762  1.0000
  S   S222      1.0  0.58860  0.55254  0.16739  1.0000
  S   S223      1.0  0.63053  0.54783  0.21355  1.0000
  Fe  Fe110     1.0  0.60518  0.59588  0.15657  1.0000
  S   S224      1.0  0.61360  0.60933  0.12100  1.0000
  Fe  Fe111     1.0  0.55820  0.55655  0.18463  1.0000
  S   S225      1.0  0.51442  0.52539  0.18892  1.0000
  S   S226      1.0  0.63219  0.61428  0.18572  1.0000
  S   S227      1.0  0.58257  0.57336  0.21530  1.0000
  Fe  Fe112     1.0  0.60324  0.95943  0.14899  1.0000
  S   S228      1.0  0.63074  0.96502  0.17614  1.0000
  S   S229      1.0  0.60840  0.94971  0.11361  1.0000
  Fe  Fe113     1.0  0.56553  0.96430  0.18053  1.0000
  S   S230      1.0  0.59161  0.97013  0.20956  1.0000
  H   H695      1.0  0.87906  0.58440  0.14585  1.0000
  H   H696      1.0  0.54242  0.52403  0.24404  1.0000
  Fe  Fe114     1.0  0.59528  0.93632  0.19488  1.0000
  S   S231      1.0  0.59852  0.90213  0.21040  1.0000
  S   S232      1.0  0.56755  0.92874  0.16700  1.0000
  Fe  Fe115     1.0  0.97965  0.70697  0.01756  1.0000
  S   S233      1.0  0.97407  0.74260  0.01265  1.0000
  C   C696      1.0  0.59124  0.85955  0.23518  1.0000
  Fe  Fe116     1.0  0.71630  0.70036  0.01976  1.0000
  S   S234      1.0  0.75428  0.74083  0.02076  1.0000
  S   S235      1.0  0.70303  0.68267  0.05383  1.0000
  Fe  Fe117     1.0  0.71167  0.97033  0.01328  1.0000
  S   S236      1.0  0.74605  0.96455  0.01520  1.0000
  S   S237      1.0  0.69994  0.97928  0.04650  1.0000
  C   C697      1.0  0.61599  0.67595  0.17064  1.0000
  H   H697      1.0  0.66581  0.98632  0.11665  1.0000
  H   H698      1.0  0.61273  0.90636  0.13013  1.0000
  H   H699      1.0  0.89568  0.73890  0.01663  1.0000
  C   C698      1.0  0.57563  0.86227  0.16751  1.0000
  H   H700      1.0  0.63605  0.88897  0.15459  1.0000
  C   C699      1.0  0.56298  0.64980  0.23170  1.0000
  C   C700      1.0  0.87873  0.73072  0.00599  1.0000
  C   C701      1.0  0.63435  0.95825  0.09534  1.0000
  C   C702      1.0  0.66058  0.97658  0.10083  1.0000
  H   H701      1.0  0.67414  0.91971  0.04028  1.0000
  C   C703      1.0  0.67404  0.97073  0.06482  1.0000
  C   C704      1.0  0.64784  0.95211  0.05943  1.0000
  C   C705      1.0  0.62827  0.94601  0.07452  1.0000
  H   H702      1.0  0.70112  0.79416  0.00404  1.0000
  H   H703      1.0  0.65356  0.68109  0.13006  1.0000
  H   H704      1.0  0.60815  0.93190  0.06989  1.0000
  C   C706      1.0  0.63901  0.62950  0.10260  1.0000
  C   C707      1.0  0.63217  0.63231  0.08137  1.0000
  C   C708      1.0  0.65129  0.64833  0.06630  1.0000
  C   C709      1.0  0.67776  0.66202  0.07217  1.0000
  C   C710      1.0  0.68461  0.65924  0.09342  1.0000
  C   C711      1.0  0.66549  0.64312  0.10846  1.0000
  H   H705      1.0  0.61186  0.62190  0.07646  1.0000
  H   H706      1.0  0.64549  0.65005  0.05012  1.0000
  H   H707      1.0  0.70492  0.66956  0.09829  1.0000
  H   H708      1.0  0.67132  0.64113  0.12456  1.0000
  C   C712      1.0  0.96588  0.62710  0.09865  1.0000
  C   C713      1.0  0.68015  0.98276  0.08571  1.0000
  C   C714      1.0  0.75403  0.92900  0.05948  1.0000
  H   H709      1.0  0.57898  0.52227  0.22847  1.0000
  H   H710      1.0  0.66185  0.88795  0.05384  1.0000
  C   C715      1.0  0.97918  0.66996  0.06936  1.0000
  H   H711      1.0  0.87481  0.60797  0.22506  1.0000
  H   H712      1.0  0.90188  0.58755  0.16638  1.0000
  C   C716      1.0  0.94762  0.67497  0.13480  1.0000
  N   N59       1.0  0.70273  0.91611  0.05741  1.0000
  H   H713      1.0  0.64257  0.94267  0.04351  1.0000
  S   S238      1.0  0.95889  0.51120  0.19264  1.0000
  H   H714      1.0  0.89882  0.55162  0.23943  1.0000
  C   C717      1.0  0.65960  0.55835  0.22910  1.0000
  H   H715      1.0  0.60519  0.85906  0.22480  1.0000
  C   C718      1.0  0.60338  0.65965  0.13452  1.0000
  C   C719      1.0  0.62336  0.89032  0.16660  1.0000
  H   H716      1.0  0.64811  0.65686  0.15042  1.0000
  H   H717      1.0  0.60793  0.65490  0.11886  1.0000
  H   H718      1.0  0.66290  0.69246  0.15759  1.0000
  H   H719      1.0  0.69496  0.88144  0.03841  1.0000
  H   H720      1.0  0.55220  0.65373  0.16149  1.0000
  C   C720      1.0  0.57805  0.65344  0.13809  1.0000
  C   C721      1.0  0.88936  0.58132  0.23029  1.0000
  C   C722      1.0  0.59542  0.89124  0.13812  1.0000
  C   C723      1.0  0.93435  0.65555  0.11836  1.0000
  H   H721      1.0  0.63043  0.68394  0.18373  1.0000
  C   C724      1.0  0.95198  0.62235  0.07894  1.0000
  C   C725      1.0  0.91869  0.62817  0.12351  1.0000
  H   H722      1.0  0.58630  0.67424  0.19060  1.0000
  S   S239      1.0  0.98919  0.69757  0.05144  1.0000
  C   C726      1.0  0.58417  0.87900  0.23185  1.0000
  C   C727      1.0  0.95840  0.64360  0.06449  1.0000
  H   H723      1.0  0.95489  0.68178  0.16913  1.0000
  H   H724      1.0  0.70023  0.99723  0.09022  1.0000
  H   H725      1.0  0.55326  0.63164  0.22151  1.0000
  H   H726      1.0  0.72136  0.61753  0.02699  1.0000
  C   C728      1.0  0.55093  0.85407  0.15897  1.0000
  H   H727      1.0  0.96886  0.60324  0.02664  1.0000
  H   H728      1.0  0.72970  0.65567  0.05118  1.0000
  H   H729      1.0  0.49709  0.94617  0.14988  1.0000
  H   H730      1.0  0.77413  0.93429  0.05983  1.0000
  H   H731      1.0  0.94745  0.63952  0.04950  1.0000
  H   H732      1.0  0.92638  0.63339  0.17739  1.0000
  C   C729      1.0  0.66341  0.53838  0.23816  1.0000
  N   N60       1.0  0.77032  0.67896  0.04534  1.0000
  C   C730      1.0  0.79071  0.67961  0.03549  1.0000
  C   C731      1.0  0.74580  0.65660  0.04292  1.0000
  N   N61       1.0  0.91618  0.62041  0.14445  1.0000
  H   H733      1.0  0.93688  0.66152  0.10166  1.0000
  H   H734      1.0  0.86029  0.74731  0.02505  1.0000
  C   C732      1.0  0.77512  0.70223  0.05888  1.0000
  C   C733      1.0  0.53877  0.50605  0.23508  1.0000
  S   S240      1.0  0.97520  0.62514  0.17827  1.0000
  H   H735      1.0  0.56325  0.64389  0.12536  1.0000
  C   C734      1.0  0.58995  0.66344  0.23501  1.0000
  C   C735      1.0  0.59096  0.67038  0.17467  1.0000
  H   H736      1.0  0.75691  0.70209  0.06169  1.0000
  C   C736      1.0  0.85847  0.73540  0.01079  1.0000
  H   H737      1.0  0.78842  0.72157  0.05075  1.0000
  C   C737      1.0  0.74709  0.94603  0.06946  1.0000
  C   C738      1.0  0.70940  0.89935  0.04756  1.0000
  H   H738      1.0  0.98399  0.53834  0.23292  1.0000
  C   C739      1.0  0.73509  0.90548  0.04847  1.0000
  S   S241      1.0  0.81085  0.73145  0.00469  1.0000
  C   C740      1.0  0.50046  0.96565  0.18055  1.0000
  C   C741      1.0  0.78661  0.65836  0.02161  1.0000
  H   H739      1.0  0.74030  0.89246  0.04002  1.0000
  H   H740      1.0  0.75799  0.61946  0.00745  1.0000
  H   H741      1.0  0.64869  0.51716  0.23564  1.0000
  H   H742      1.0  0.68846  0.82880  0.00670  1.0000
  H   H743      1.0  0.71677  0.61409  0.24675  1.0000
  H   H744      1.0  0.71609  0.95302  0.07547  1.0000
  H   H745      1.0  0.63226  0.91180  0.17232  1.0000
  H   H746      1.0  0.81023  0.69713  0.03773  1.0000
  C   C742      1.0  0.74099  0.63483  0.02932  1.0000
  S   S242      1.0  0.59907  0.99428  0.16063  1.0000
  S   S243      1.0  0.53087  0.96946  0.18920  1.0000
  H   H747      1.0  0.67085  0.91843  0.06906  1.0000
  C   C743      1.0  0.56618  0.87938  0.24551  1.0000
  H   H748      1.0  0.96039  0.69615  0.13094  1.0000
  N   N62       1.0  0.59748  0.88071  0.15710  1.0000
  C   C744      1.0  0.76152  0.63591  0.01842  1.0000
  C   C745      1.0  0.72120  0.93928  0.06819  1.0000
  C   C746      1.0  0.54867  0.86468  0.13957  1.0000
  H   H749      1.0  0.62248  0.87837  0.18079  1.0000
  C   C747      1.0  0.89979  0.59153  0.14923  1.0000
  H   H750      1.0  0.93598  0.60207  0.07488  1.0000
  H   H751      1.0  0.90549  0.57936  0.13931  1.0000
  C   C748      1.0  0.92853  0.63942  0.16074  1.0000
  H   H752      1.0  0.76173  0.96473  0.07762  1.0000
  C   C749      1.0  0.67892  0.58571  0.23251  1.0000
  C   C750      1.0  0.70185  0.59288  0.24452  1.0000
  C   C751      1.0  0.94462  0.66692  0.15616  1.0000
  H   H753      1.0  0.78386  0.70197  0.07466  1.0000
  N   N63       1.0  0.62198  0.67082  0.15070  1.0000
  C   C752      1.0  0.57186  0.65889  0.15832  1.0000
  H   H754      1.0  0.57719  0.85441  0.18287  1.0000
  C   C753      1.0  0.98643  0.65352  0.10362  1.0000
  C   C754      1.0  0.67604  0.91017  0.05507  1.0000
  C   C755      1.0  0.57103  0.88327  0.12900  1.0000
  C   C756      1.0  0.64796  0.67564  0.14704  1.0000
  H   H755      1.0  0.56959  0.89221  0.11416  1.0000
  H   H756      1.0  0.90925  0.61304  0.11059  1.0000
  H   H757      1.0  0.52968  0.85894  0.13295  1.0000
  C   C757      1.0  0.87246  0.59087  0.23394  1.0000
  C   C758      1.0  0.70708  0.83438  0.00024  1.0000
  H   H758      1.0  0.98592  0.50700  0.15484  1.0000
  H   H759      1.0  0.56052  0.89416  0.24323  1.0000
  C   C759      1.0  0.55932  0.50508  0.22599  1.0000
  H   H760      1.0  0.58440  0.49903  0.19081  1.0000
  H   H761      1.0  0.80277  0.65967  0.01310  1.0000
  H   H762      1.0  0.52774  0.64925  0.23854  1.0000
  N   N64       1.0  0.98832  0.63477  0.00401  1.0000
  C   C760      1.0  0.54854  0.65987  0.24140  1.0000
  H   H763      1.0  0.49739  0.98450  0.20963  1.0000
  C   C761      1.0  0.88603  0.55922  0.24199  1.0000
  C   C762      1.0  0.71420  0.81456  0.99871  1.0000
  Fe  Fe118     1.0  0.58097  0.76613  0.33047  1.0000
  S   S244      1.0  0.55066  0.72159  0.32671  1.0000
  S   S245      1.0  0.61930  0.78376  0.34997  1.0000
  Fe  Fe119     1.0  0.55165  0.78255  0.29937  1.0000
  S   S246      1.0  0.51900  0.73908  0.29380  1.0000
  S   S247      1.0  0.54898  0.81859  0.28749  1.0000
  Fe  Fe120     1.0  0.52120  0.73430  0.32940  1.0000
  Fe  Fe121     1.0  0.55048  0.72903  0.29126  1.0000
  C   C763      1.0  0.77949  0.99350  0.49634  1.0000
  S   S248      1.0  0.55172  0.77842  0.33556  1.0000
  S   S249      1.0  0.58299  0.77300  0.29448  1.0000
  Fe  Fe122     1.0  0.76894  0.55695  0.33234  1.0000
  S   S250      1.0  0.72881  0.53690  0.31700  1.0000
  S   S251      1.0  0.77191  0.56810  0.36829  1.0000
  Fe  Fe123     1.0  0.79113  0.54463  0.29206  1.0000
  S   S252      1.0  0.82528  0.54086  0.28084  1.0000
  Fe  Fe124     1.0  0.74840  0.55821  0.28686  1.0000
  S   S253      1.0  0.72609  0.77196  0.48362  1.0000
  S   S254      1.0  0.78866  0.58078  0.30293  1.0000
  S   S255      1.0  0.77419  0.52232  0.32282  1.0000
  C   C764      1.0  0.80012  0.98969  0.49230  1.0000
  H   H764      1.0  0.80844  0.49815  0.31430  1.0000
  C   C765      1.0  0.71093  0.59044  0.31455  1.0000
  H   H765      1.0  0.97567  0.75704  0.44582  1.0000
  H   H766      1.0  0.77342  0.72354  0.48126  1.0000
  H   H767      1.0  0.89828  0.66801  0.43805  1.0000
  Fe  Fe125     1.0  0.67637  0.81890  0.47383  1.0000
  S   S256      1.0  0.64017  0.80404  0.45188  1.0000
  S   S257      1.0  0.71685  0.83163  0.46419  1.0000
  Fe  Fe126     1.0  0.83041  0.68372  0.46398  1.0000
  S   S258      1.0  0.85990  0.72743  0.47326  1.0000
  S   S259      1.0  0.82850  0.67655  0.42745  1.0000
  C   C766      1.0  0.56264  0.84121  0.26564  1.0000
  C   C767      1.0  0.86629  0.54713  0.25726  1.0000
  H   H768      1.0  0.89467  0.67789  0.46500  1.0000
  C   C768      1.0  0.69622  0.56267  0.34594  1.0000
  C   C769      1.0  0.75655  0.62722  0.31161  1.0000
  H   H769      1.0  0.50278  0.66636  0.29661  1.0000
  H   H770      1.0  0.68113  0.54558  0.35446  1.0000
  C   C770      1.0  0.69099  0.56883  0.32553  1.0000
  H   H771      1.0  0.50030  0.66272  0.33633  1.0000
  C   C771      1.0  0.60215  0.68707  0.24831  1.0000
  Fe  Fe127     1.0  0.73013  0.86458  0.49014  1.0000
  C   C772      1.0  0.91920  0.75290  0.43112  1.0000
  H   H772      1.0  0.81165  0.96058  0.48610  1.0000
  C   C773      1.0  0.72122  0.57809  0.35506  1.0000
  C   C774      1.0  0.75414  0.97050  0.49657  1.0000
  C   C775      1.0  0.95505  0.74819  0.44245  1.0000
  H   H773      1.0  0.59017  0.84683  0.38942  1.0000
  C   C776      1.0  0.84945  0.55675  0.26096  1.0000
  C   C777      1.0  0.97735  0.79396  0.48635  1.0000
  H   H774      1.0  0.54179  0.86128  0.27282  1.0000
  C   C778      1.0  0.58768  0.69696  0.25823  1.0000
  C   C779      1.0  0.55560  0.86067  0.26232  1.0000
  H   H775      1.0  0.76865  0.64544  0.32218  1.0000
  H   H776      1.0  0.76029  0.61070  0.35047  1.0000
  C   C780      1.0  0.95199  0.77259  0.49084  1.0000
  C   C781      1.0  0.58341  0.85010  0.35566  1.0000
  C   C782      1.0  0.78870  0.59853  0.38440  1.0000
  C   C783      1.0  0.78486  0.59699  0.40675  1.0000
  C   C784      1.0  0.79705  0.62054  0.42021  1.0000
  C   C785      1.0  0.81311  0.64603  0.41142  1.0000
  C   C786      1.0  0.81704  0.64758  0.38908  1.0000
  C   C787      1.0  0.80504  0.62400  0.37563  1.0000
  H   H777      1.0  0.77232  0.57741  0.41372  1.0000
  H   H778      1.0  0.79382  0.61898  0.43734  1.0000
  H   H779      1.0  0.82949  0.66719  0.38211  1.0000
  H   H780      1.0  0.80843  0.62553  0.35854  1.0000
  C   C788      1.0  0.75300  0.74523  0.48267  1.0000
  H   H781      1.0  0.72990  0.92658  0.49356  1.0000
  C   C789      1.0  0.62021  0.84591  0.30939  1.0000
  H   H782      1.0  0.86416  0.53027  0.26634  1.0000
  H   H783      1.0  0.63515  0.86677  0.30475  1.0000
  C   C790      1.0  0.62474  0.78971  0.37831  1.0000
  C   C791      1.0  0.60441  0.78224  0.39241  1.0000
  C   C792      1.0  0.60963  0.78731  0.41477  1.0000
  C   C793      1.0  0.63517  0.79980  0.42340  1.0000
  C   C794      1.0  0.65556  0.80759  0.40927  1.0000
  C   C795      1.0  0.65034  0.80259  0.38687  1.0000
  H   H784      1.0  0.58463  0.77242  0.38610  1.0000
  H   H785      1.0  0.59370  0.78120  0.42554  1.0000
  H   H786      1.0  0.67530  0.81726  0.41562  1.0000
  H   H787      1.0  0.66626  0.80861  0.37612  1.0000
  C   C796      1.0  0.62547  0.84431  0.34846  1.0000
  C   C797      1.0  0.74074  0.59940  0.34354  1.0000
  C   C798      1.0  0.94582  0.76434  0.43487  1.0000
  H   H788      1.0  0.88150  0.71670  0.43212  1.0000
  S   S260      1.0  0.80036  0.68136  0.48654  1.0000
  N   N65       1.0  0.91133  0.70978  0.44283  1.0000
  H   H789      1.0  0.72222  0.78869  0.43836  1.0000
  C   C799      1.0  0.93740  0.72084  0.44655  1.0000
  H   H790      1.0  0.95928  0.78576  0.43223  1.0000
  S   S261      1.0  0.54147  0.69554  0.26602  1.0000
  C   C800      1.0  0.75352  0.76885  0.48970  1.0000
  H   H791      1.0  0.87288  0.67448  0.44338  1.0000
  H   H792      1.0  0.62818  0.84212  0.38301  1.0000
  H   H793      1.0  0.94459  0.70863  0.45321  1.0000
  C   C801      1.0  0.74946  0.94403  0.49314  1.0000
  C   C802      1.0  0.68625  0.54557  0.25028  1.0000
  H   H794      1.0  0.72581  0.57306  0.37065  1.0000
  C   C803      1.0  0.90214  0.72538  0.43508  1.0000
  C   C804      1.0  0.59165  0.84996  0.33478  1.0000
  H   H795      1.0  0.63381  0.74549  0.45909  1.0000
  N   N66       1.0  0.68391  0.75973  0.42707  1.0000
  C   C805      1.0  0.67150  0.75436  0.40733  1.0000
  C   C806      1.0  0.67052  0.75612  0.44548  1.0000
  C   C807      1.0  0.64498  0.74512  0.40572  1.0000
  C   C808      1.0  0.64407  0.74718  0.44446  1.0000
  C   C809      1.0  0.63125  0.74160  0.42444  1.0000
  C   C810      1.0  0.71167  0.76928  0.42878  1.0000
  H   H796      1.0  0.68209  0.75750  0.39267  1.0000
  H   H797      1.0  0.68036  0.76048  0.46110  1.0000
  H   H798      1.0  0.63531  0.74163  0.39005  1.0000
  C   C811      1.0  0.89341  0.68113  0.44752  1.0000
  C   C812      1.0  0.58054  0.84074  0.25190  1.0000
  H   H799      1.0  0.71452  0.75410  0.43721  1.0000
  H   H800      1.0  0.72074  0.77291  0.41282  1.0000
  H   H801      1.0  0.91170  0.76525  0.42539  1.0000
  H   H802      1.0  0.62824  0.83244  0.30802  1.0000
  H   H803      1.0  0.56677  0.85217  0.35818  1.0000
  C   C813      1.0  0.59652  0.84716  0.37314  1.0000
  C   C814      1.0  0.61786  0.84452  0.36956  1.0000
  H   H804      1.0  0.70681  0.59471  0.29850  1.0000
  S   S262      1.0  0.73524  0.58329  0.26824  1.0000
  H   H805      1.0  0.60349  0.83775  0.29768  1.0000
  S   S263      1.0  0.75224  0.52363  0.27432  1.0000
  S   S264      1.0  0.84645  0.66716  0.48805  1.0000
  H   H806      1.0  0.67182  0.55659  0.31799  1.0000
  N   N67       1.0  0.73542  0.60545  0.32362  1.0000
  H   H807      1.0  0.76895  0.61997  0.30503  1.0000
  H   H808      1.0  0.64180  0.84173  0.34582  1.0000
  H   H809      1.0  0.74903  0.63335  0.29773  1.0000
  Fe  Fe128     1.0  0.73546  0.50388  0.30588  1.0000
  H   H810      1.0  0.61094  0.73552  0.42343  1.0000
  H   H811      1.0  0.58137  0.85228  0.32128  1.0000
  H   H812      1.0  0.98051  0.81357  0.48210  1.0000
  N   N68       1.0  0.61202  0.84636  0.33138  1.0000
  C   C815      1.0  0.77417  0.74175  0.48694  1.0000
  C   C816      1.0  0.70576  0.57290  0.25339  1.0000
  H   H813      1.0  0.58618  0.82594  0.25417  1.0000
  C   C817      1.0  0.56075  0.68349  0.25474  1.0000
  H   H814      1.0  0.73610  0.72950  0.47378  1.0000
  H   H815      1.0  0.59741  0.71517  0.26835  1.0000
  Fe  Fe129     1.0  0.71627  0.80488  0.49068  1.0000
  H   H816      1.0  0.93588  0.77584  0.49002  1.0000
  C   C818      1.0  0.79547  0.96323  0.48897  1.0000
  H   H817      1.0  0.62300  0.69787  0.25095  1.0000
  H   H818      1.0  0.68891  0.52993  0.25696  1.0000
  C   C819      1.0  0.77019  0.94020  0.48955  1.0000
  S   S265      1.0  0.76594  0.90731  0.48690  1.0000
  C   C820      1.0  0.94762  0.74722  0.49660  1.0000
  Fe  Fe130     1.0  0.83075  0.72384  0.49734  1.0000
  C   C821      1.0  0.96889  0.74347  0.49755  1.0000
  H   H819      1.0  0.83988  0.58635  0.25173  1.0000
  C   C822      1.0  0.85257  0.57864  0.24909  1.0000
  Fe  Fe131     1.0  0.56891  0.75954  0.64660  1.0000
  S   S266      1.0  0.54496  0.71993  0.66373  1.0000
  S   S267      1.0  0.58020  0.75569  0.61224  1.0000
  Fe  Fe132     1.0  0.56648  0.79283  0.68487  1.0000
  S   S268      1.0  0.54296  0.75585  0.70455  1.0000
  S   S269      1.0  0.57932  0.83678  0.69385  1.0000
  Fe  Fe133     1.0  0.56973  0.74208  0.69317  1.0000
  S   S270      1.0  0.59250  0.72866  0.71426  1.0000
  Fe  Fe134     1.0  0.51987  0.73640  0.67355  1.0000
  S   S271      1.0  0.59516  0.78085  0.67542  1.0000
  S   S272      1.0  0.54188  0.77425  0.65446  1.0000
  Fe  Fe135     1.0  0.77947  0.57536  0.65537  1.0000
  S   S273      1.0  0.73888  0.53865  0.65175  1.0000
  S   S274      1.0  0.80208  0.61061  0.63237  1.0000
  Fe  Fe136     1.0  0.79005  0.55734  0.69916  1.0000
  S   S275      1.0  0.81574  0.56759  0.72979  1.0000
  Fe  Fe137     1.0  0.73525  0.54601  0.68719  1.0000
  S   S276      1.0  0.69654  0.53691  0.70110  1.0000
  S   S277      1.0  0.79754  0.55109  0.66495  1.0000
  S   S278      1.0  0.77464  0.58426  0.69007  1.0000
  Fe  Fe138     1.0  0.69077  0.82565  0.52241  1.0000
  S   S279      1.0  0.68191  0.82894  0.55777  1.0000
  S   S280      1.0  0.73232  0.83848  0.51583  1.0000
  Fe  Fe139     1.0  0.81901  0.66814  0.51167  1.0000
  S   S281      1.0  0.84796  0.71058  0.52372  1.0000
  S   S282      1.0  0.79237  0.63205  0.53263  1.0000
  H   H820      1.0  0.77567  0.89340  0.53207  1.0000
  C   C823      1.0  0.69827  0.59354  0.74282  1.0000
  C   C824      1.0  0.75996  0.65739  0.55342  1.0000
  H   H821      1.0  0.78633  0.96149  0.53945  1.0000
  H   H822      1.0  0.70631  0.93213  0.55175  1.0000
  H   H823      1.0  0.78027  0.71403  0.52450  1.0000
  H   H824      1.0  0.68777  0.50964  0.74636  1.0000
  Fe  Fe140     1.0  0.75648  0.51486  0.66358  1.0000
  H   H825      1.0  0.71312  0.50916  0.73282  1.0000
  C   C825      1.0  0.79187  0.54596  0.60156  1.0000
  C   C826      1.0  0.84544  0.56815  0.73358  1.0000
  H   H826      1.0  0.51764  0.83831  0.72508  1.0000
  C   C827      1.0  0.68804  0.55447  0.71981  1.0000
  H   H827      1.0  0.75113  0.97058  0.54508  1.0000
  C   C828      1.0  0.82296  0.52992  0.62154  1.0000
  C   C829      1.0  0.77572  0.66937  0.57183  1.0000
  H   H828      1.0  0.75869  0.54301  0.74184  1.0000
  S   S283      1.0  0.67466  0.79011  0.49898  1.0000
  C   C830      1.0  0.87949  0.56089  0.72106  1.0000
  C   C831      1.0  0.85606  0.56033  0.71723  1.0000
  H   H829      1.0  0.88742  0.55475  0.70825  1.0000
  H   H830      1.0  0.84620  0.55382  0.70164  1.0000
  C   C832      1.0  0.79855  0.61633  0.60471  1.0000
  C   C833      1.0  0.77647  0.59856  0.59209  1.0000
  C   C834      1.0  0.77509  0.60355  0.57006  1.0000
  C   C835      1.0  0.79559  0.62649  0.56037  1.0000
  C   C836      1.0  0.81746  0.64452  0.57308  1.0000
  C   C837      1.0  0.81891  0.63942  0.59507  1.0000
  H   H831      1.0  0.76041  0.58102  0.59932  1.0000
  H   H832      1.0  0.75796  0.58959  0.56044  1.0000
  H   H833      1.0  0.83334  0.66231  0.56593  1.0000
  H   H834      1.0  0.83606  0.65339  0.60467  1.0000
  H   H835      1.0  0.65744  0.66826  0.74496  1.0000
  C   C838      1.0  0.58637  0.87900  0.72015  1.0000
  C   C839      1.0  0.57678  0.85094  0.71866  1.0000
  H   H836      1.0  0.69775  0.88510  0.55325  1.0000
  H   H837      1.0  0.59635  0.89164  0.70668  1.0000
  C   C840      1.0  0.58360  0.69733  0.72660  1.0000
  H   H838      1.0  0.83465  0.52341  0.62987  1.0000
  C   C841      1.0  0.89272  0.56934  0.74121  1.0000
  S   S284      1.0  0.82342  0.75843  0.50469  1.0000
  H   H839      1.0  0.72545  0.59146  0.72168  1.0000
  C   C842      1.0  0.60796  0.77746  0.59697  1.0000
  C   C843      1.0  0.62909  0.80161  0.60562  1.0000
  C   C844      1.0  0.65142  0.81713  0.59334  1.0000
  C   C845      1.0  0.65287  0.80894  0.57220  1.0000
  C   C846      1.0  0.63163  0.78493  0.56349  1.0000
  C   C847      1.0  0.60941  0.76929  0.57584  1.0000
  H   H840      1.0  0.62833  0.80818  0.62184  1.0000
  H   H841      1.0  0.66768  0.83567  0.60027  1.0000
  H   H842      1.0  0.63239  0.77831  0.54729  1.0000
  H   H843      1.0  0.59322  0.75065  0.56895  1.0000
  S   S285      1.0  0.75022  0.51955  0.69843  1.0000
  H   H844      1.0  0.77522  0.65677  0.58487  1.0000
  C   C848      1.0  0.99084  0.61745  0.72696  1.0000
  C   C849      1.0  0.55962  0.67348  0.72237  1.0000
  N   N69       1.0  0.64282  0.62846  0.73120  1.0000
  C   C850      1.0  0.57176  0.64804  0.74630  1.0000
  H   H845      1.0  0.96576  0.72392  0.50193  1.0000
  H   H846      1.0  0.97436  0.59935  0.71856  1.0000
  C   C851      1.0  0.76167  0.67356  0.53629  1.0000
  C   C852      1.0  0.60384  0.58034  0.71150  1.0000
  H   H847      1.0  0.85278  0.57248  0.62305  1.0000
  H   H848      1.0  0.79769  0.92863  0.52896  1.0000
  H   H849      1.0  0.81370  0.80125  0.51427  1.0000
  C   C853      1.0  0.81754  0.56549  0.60759  1.0000
  H   H850      1.0  0.64860  0.52075  0.72161  1.0000
  H   H851      1.0  0.54554  0.67384  0.71158  1.0000
  C   C854      1.0  0.62956  0.58671  0.71176  1.0000
  H   H852      1.0  0.82508  0.58686  0.60488  1.0000
  C   C855      1.0  0.53359  0.85867  0.68592  1.0000
  N   N70       1.0  0.51838  0.82998  0.69159  1.0000
  C   C856      1.0  0.59784  0.59834  0.72107  1.0000
  N   N71       1.0  0.76198  0.91870  0.54323  1.0000
  C   C857      1.0  0.76704  0.94473  0.54296  1.0000
  C   C858      1.0  0.73756  0.89756  0.54737  1.0000
  C   C859      1.0  0.74717  0.95001  0.54615  1.0000
  C   C860      1.0  0.71720  0.90207  0.55046  1.0000
  C   C861      1.0  0.72205  0.92846  0.54972  1.0000
  C   C862      1.0  0.83309  0.55740  0.61775  1.0000
  C   C863      1.0  0.55382  0.64902  0.73210  1.0000
  H   H853      1.0  0.83087  0.74749  0.54968  1.0000
  H   H854      1.0  0.74212  0.50082  0.61166  1.0000
  C   C864      1.0  0.61766  0.62232  0.73107  1.0000
  C   C865      1.0  0.66317  0.65295  0.74275  1.0000
  C   C866      1.0  0.49630  0.78287  0.68057  1.0000
  H   H855      1.0  0.57785  0.59345  0.72140  1.0000
  C   C867      1.0  0.49738  0.79545  0.71791  1.0000
  C   C868      1.0  0.64892  0.61107  0.72167  1.0000
  C   C869      1.0  0.70583  0.58088  0.72747  1.0000
  N   N72       1.0  0.61372  0.73037  0.63789  1.0000
  C   C870      1.0  0.63330  0.74935  0.62571  1.0000
  C   C871      1.0  0.61501  0.73342  0.65984  1.0000
  C   C872      1.0  0.65435  0.77269  0.63540  1.0000
  C   C873      1.0  0.63591  0.75639  0.67008  1.0000
  C   C874      1.0  0.65553  0.77626  0.65774  1.0000
  C   C875      1.0  0.59163  0.70613  0.62752  1.0000
  H   H856      1.0  0.63228  0.74703  0.60829  1.0000
  H   H857      1.0  0.59959  0.71832  0.66956  1.0000
  H   H858      1.0  0.66925  0.78816  0.62554  1.0000
  H   H859      1.0  0.63647  0.75902  0.68747  1.0000
  H   H860      1.0  0.67143  0.79452  0.66547  1.0000
  H   H861      1.0  0.57324  0.70124  0.63519  1.0000
  H   H862      1.0  0.58923  0.70957  0.61027  1.0000
  H   H863      1.0  0.59433  0.68860  0.62874  1.0000
  H   H864      1.0  0.74953  0.50287  0.58334  1.0000
  C   C876      1.0  0.66257  0.54115  0.72748  1.0000
  H   H865      1.0  0.77974  0.55249  0.59411  1.0000
  H   H866      1.0  0.79268  0.91457  0.55567  1.0000
  H   H867      1.0  0.63446  0.57265  0.70480  1.0000
  H   H868      1.0  0.98349  0.73787  0.55162  1.0000
  H   H869      1.0  0.81690  0.75065  0.57429  1.0000
  H   H870      1.0  0.58853  0.56131  0.70424  1.0000
  H   H871      1.0  0.80571  0.70653  0.58697  1.0000
  S   S286      1.0  0.92195  0.56902  0.74511  1.0000
  C   C877      1.0  0.78310  0.91362  0.54001  1.0000
  H   H872      1.0  0.75024  0.66430  0.52156  1.0000
  H   H873      1.0  0.73798  0.97315  0.49959  1.0000
  C   C878      1.0  0.51100  0.81042  0.67575  1.0000
  H   H874      1.0  0.73358  0.87697  0.54812  1.0000
  C   C879      1.0  0.81252  0.74271  0.55740  1.0000
  N   N73       1.0  0.79401  0.71331  0.55623  1.0000
  C   C880      1.0  0.79298  0.69750  0.57287  1.0000
  C   C881      1.0  0.77888  0.70166  0.53798  1.0000
  C   C882      1.0  0.51152  0.82283  0.71243  1.0000
  N   N74       1.0  0.78208  0.51906  0.60527  1.0000
  C   C883      1.0  0.79627  0.76190  0.49835  1.0000
  H   H875      1.0  0.55672  0.81335  0.73544  1.0000
  H   H876      1.0  0.51681  0.81608  0.65930  1.0000
  S   S287      1.0  0.91635  0.71967  0.50319  1.0000
  C   C884      1.0  0.58284  0.89087  0.73876  1.0000
  C   C885      1.0  0.56412  0.83493  0.73629  1.0000
  H   H877      1.0  0.52207  0.86360  0.67486  1.0000
  H   H878      1.0  0.66877  0.61562  0.72225  1.0000
  H   H879      1.0  0.74734  0.63546  0.55201  1.0000
  H   H880      1.0  0.77641  0.80727  0.50666  1.0000
  H   H881      1.0  0.80461  0.75374  0.54873  1.0000
  H   H882      1.0  0.55167  0.86294  0.67796  1.0000
  H   H883      1.0  0.53965  0.87244  0.70038  1.0000
  H   H884      1.0  0.96469  0.76648  0.54571  1.0000
  C   C886      1.0  0.65502  0.55380  0.74284  1.0000
  C   C887      1.0  0.60159  0.69634  0.74074  1.0000
  H   H885      1.0  0.62014  0.71469  0.74425  1.0000
  Fe  Fe141     1.0  0.87465  0.71079  0.49840  1.0000
  C   C888      1.0  0.77559  0.78897  0.50117  1.0000
  H   H886      1.0  0.53522  0.63071  0.72866  1.0000
  H   H887      1.0  0.98355  0.63020  0.73352  1.0000
  C   C889      1.0  0.79675  0.78547  0.50546  1.0000
  H   H888      1.0  0.59011  0.91244  0.73953  1.0000
  C   C890      1.0  0.75476  0.49925  0.59965  1.0000
  C   C891      1.0  0.79728  0.51091  0.61511  1.0000
  H   H889      1.0  0.61270  0.63576  0.73901  1.0000
  H   H890      1.0  0.49271  0.78988  0.73454  1.0000
  C   C892      1.0  0.98555  0.77531  0.54505  1.0000
  H   H891      1.0  0.68152  0.66258  0.73380  1.0000
  S   S288      1.0  0.68970  0.85371  0.49805  1.0000
  Fe  Fe142     1.0  0.94858  0.57897  0.77498  1.0000
  S   S289      1.0  0.93883  0.56416  0.80884  1.0000
  H   H892      1.0  0.65604  0.98125  0.93379  1.0000
  C   C893      1.0  0.61871  0.90270  0.86413  1.0000
  Fe  Fe143     1.0  0.96805  0.55098  0.80555  1.0000
  C   C894      1.0  0.87706  0.71560  0.98751  1.0000
  S   S290      1.0  0.54084  0.50382  0.80805  1.0000
  Fe  Fe144     1.0  0.97298  0.60535  0.81954  1.0000
  S   S291      1.0  0.97538  0.56298  0.77120  1.0000
  C   C895      1.0  0.98776  0.79470  0.94304  1.0000
  Fe  Fe145     1.0  0.57104  0.54901  0.80194  1.0000
  S   S292      1.0  0.58628  0.56603  0.76932  1.0000
  H   H893      1.0  0.63493  0.89362  0.83682  1.0000
  Fe  Fe146     1.0  0.60867  0.60453  0.82558  1.0000
  S   S293      1.0  0.62521  0.62511  0.79418  1.0000
  S   S294      1.0  0.61748  0.62736  0.85861  1.0000
  Fe  Fe147     1.0  0.58432  0.60238  0.78049  1.0000
  H   H894      1.0  0.57777  0.53455  0.87475  1.0000
  Fe  Fe148     1.0  0.62623  0.58752  0.78506  1.0000
  Fe  Fe149     1.0  0.94330  0.71574  0.98749  1.0000
  S   S295      1.0  0.56718  0.58417  0.81237  1.0000
  S   S296      1.0  0.61158  0.56808  0.81723  1.0000
  Fe  Fe150     1.0  0.56223  0.97492  0.79850  1.0000
  S   S297      1.0  0.57383  0.96252  0.76823  1.0000
  H   H895      1.0  0.92140  0.51096  0.75345  1.0000
  Fe  Fe151     1.0  0.60639  0.97427  0.82551  1.0000
  S   S298      1.0  0.62099  0.96271  0.79644  1.0000
  C   C896      1.0  0.70770  0.51337  0.74876  1.0000
  Fe  Fe152     1.0  0.57876  0.93319  0.78801  1.0000
  S   S299      1.0  0.56322  0.88836  0.77951  1.0000
  S   S300      1.0  0.56407  0.94322  0.81794  1.0000
  Fe  Fe153     1.0  0.97807  0.69583  0.96842  1.0000
  S   S301      1.0  0.97245  0.73047  0.96077  1.0000
  S   S302      1.0  0.90262  0.70989  0.97996  1.0000
  H   H896      1.0  0.88233  0.51389  0.75327  1.0000
  C   C897      1.0  0.58026  0.90339  0.85714  1.0000
  H   H897      1.0  0.51307  0.55705  0.85015  1.0000
  Fe  Fe154     1.0  0.71716  0.69697  0.96997  1.0000
  S   S303      1.0  0.75536  0.73706  0.96888  1.0000
  S   S304      1.0  0.70183  0.67221  0.93769  1.0000
  Fe  Fe155     1.0  0.61539  0.99326  0.77831  1.0000
  C   C898      1.0  0.73471  0.58151  0.77601  1.0000
  S   S305      1.0  0.74837  0.79704  0.98770  1.0000
  H   H898      1.0  0.93101  0.74968  0.91677  1.0000
  C   C899      1.0  0.75168  0.55373  0.75126  1.0000
  C   C900      1.0  0.88212  0.57715  0.75758  1.0000
  Fe  Fe156     1.0  0.70797  0.96403  0.96327  1.0000
  S   S306      1.0  0.74175  0.95746  0.96312  1.0000
  S   S307      1.0  0.69254  0.96204  0.92829  1.0000
  C   C901      1.0  0.73821  0.82124  0.99042  1.0000
  N   N75       1.0  0.59946  0.90657  0.87113  1.0000
  S   S308      1.0  0.66474  0.59720  0.77012  1.0000
  Fe  Fe157     1.0  0.76196  0.99285  0.98715  1.0000
  C   C902      1.0  0.52694  0.55197  0.85620  1.0000
  H   H899      1.0  0.59993  0.88762  0.81124  1.0000
  C   C903      1.0  0.97873  0.65735  0.91780  1.0000
  C   C904      1.0  0.75480  0.84806  0.98363  1.0000
  S   S309      1.0  0.56349  0.61628  0.75755  1.0000
  S   S310      1.0  0.98110  0.62086  0.78534  1.0000
  C   C905      1.0  0.61937  0.89609  0.84246  1.0000
  H   H900      1.0  0.56513  0.90671  0.86261  1.0000
  C   C906      1.0  0.96764  0.66141  0.88053  1.0000
  C   C907      1.0  0.59979  0.89274  0.82812  1.0000
  H   H901      1.0  0.65883  0.96372  0.85556  1.0000
  H   H902      1.0  0.85068  0.58265  0.76656  1.0000
  C   C908      1.0  0.64163  0.97631  0.87944  1.0000
  H   H903      1.0  0.95677  0.59788  0.98964  1.0000
  H   H904      1.0  0.85279  0.51640  0.81495  1.0000
  C   C909      1.0  0.67301  0.96829  0.90994  1.0000
  H   H905      1.0  0.98203  0.50327  0.77793  1.0000
  H   H906      1.0  0.56883  0.60980  0.88365  1.0000
  C   C910      1.0  0.72370  0.86123  0.99350  1.0000
  S   S311      1.0  0.53380  0.99061  0.79731  1.0000
  C   C911      1.0  0.86566  0.51589  0.78292  1.0000
  H   H907      1.0  0.55031  0.83414  0.76828  1.0000
  C   C912      1.0  0.64131  0.63962  0.88035  1.0000
  C   C913      1.0  0.66275  0.63638  0.88043  1.0000
  C   C914      1.0  0.68083  0.64634  0.89808  1.0000
  C   C915      1.0  0.67789  0.65968  0.91601  1.0000
  C   C916      1.0  0.65638  0.66284  0.91596  1.0000
  C   C917      1.0  0.63833  0.65293  0.89829  1.0000
  H   H908      1.0  0.66546  0.62622  0.86688  1.0000
  H   H909      1.0  0.69727  0.64364  0.89783  1.0000
  H   H910      1.0  0.65346  0.67266  0.92961  1.0000
  H   H911      1.0  0.62187  0.65558  0.89857  1.0000
  H   H912      1.0  0.72766  0.59223  0.78543  1.0000
  C   C918      1.0  0.76941  0.58045  0.75826  1.0000
  C   C919      1.0  0.97302  0.64166  0.87310  1.0000
  N   N76       1.0  0.72599  0.54145  0.75611  1.0000
  C   C920      1.0  0.94424  0.76324  0.92943  1.0000
  H   H913      1.0  0.97872  0.77628  0.91119  1.0000
  C   C921      1.0  0.49952  0.97788  0.79785  1.0000
  H   H914      1.0  0.78968  0.59017  0.75401  1.0000
  H   H915      1.0  0.85272  0.69321  0.95985  1.0000
  C   C922      1.0  0.67364  0.96361  0.88767  1.0000
  C   C923      1.0  0.88144  0.51028  0.77042  1.0000
  C   C924      1.0  0.97047  0.66921  0.90263  1.0000
  Fe  Fe158     1.0  0.73807  0.75268  0.99292  1.0000
  H   H916      1.0  0.96122  0.67078  0.86906  1.0000
  C   C925      1.0  0.65687  0.97751  0.91680  1.0000
  C   C926      1.0  0.96947  0.61981  0.98634  1.0000
  H   H917      1.0  0.56451  0.89323  0.82458  1.0000
  C   C927      1.0  0.87883  0.50133  0.81427  1.0000
  H   H918      1.0  0.49936  0.51018  0.78823  1.0000
  C   C928      1.0  0.83408  0.70944  0.97910  1.0000
  C   C929      1.0  0.97756  0.79604  0.96274  1.0000
  H   H919      1.0  0.89203  0.58380  0.77315  1.0000
  H   H920      1.0  0.50491  0.51088  0.84302  1.0000
  C   C930      1.0  0.56964  0.87478  0.75619  1.0000
  H   H921      1.0  0.68614  0.95669  0.88204  1.0000
  S   S312      1.0  0.96895  0.63274  0.84481  1.0000
  H   H922      1.0  0.91393  0.75314  0.95173  1.0000
  C   C931      1.0  0.52218  0.52584  0.85214  1.0000
  H   H923      1.0  0.85465  0.52387  0.77549  1.0000
  N   N77       1.0  0.95131  0.78163  0.96557  1.0000
  N   N78       1.0  0.71796  0.76252  0.93640  1.0000
  C   C932      1.0  0.71191  0.73815  0.92722  1.0000
  C   C933      1.0  0.74234  0.78492  0.93464  1.0000
  C   C934      1.0  0.73029  0.73592  0.91545  1.0000
  C   C935      1.0  0.76132  0.78331  0.92329  1.0000
  C   C936      1.0  0.75518  0.75862  0.91360  1.0000
  C   C937      1.0  0.69862  0.76415  0.94922  1.0000
  H   H924      1.0  0.69293  0.72012  0.92923  1.0000
  H   H925      1.0  0.74743  0.80408  0.94248  1.0000
  H   H926      1.0  0.72542  0.71645  0.90836  1.0000
  H   H927      1.0  0.78077  0.80098  0.92242  1.0000
  H   H928      1.0  0.76978  0.75691  0.90502  1.0000
  H   H929      1.0  0.69857  0.75683  0.96567  1.0000
  H   H930      1.0  0.70312  0.78541  0.95089  1.0000
  H   H931      1.0  0.67889  0.75167  0.94166  1.0000
  C   C938      1.0  0.59848  0.91282  0.89391  1.0000
  H   H932      1.0  0.63396  0.90521  0.87521  1.0000
  H   H933      1.0  0.77345  0.85366  0.97721  1.0000
  C   C939      1.0  0.56312  0.53911  0.86989  1.0000
  H   H934      1.0  0.61754  0.92066  0.90243  1.0000
  S   S313      1.0  0.61964  0.97929  0.86149  1.0000
  C   C940      1.0  0.56047  0.84679  0.75488  1.0000
  H   H935      1.0  0.69711  0.54514  0.77247  1.0000
  C   C941      1.0  0.85861  0.57647  0.75378  1.0000
  C   C942      1.0  0.64140  0.98150  0.90168  1.0000
  S   S314      1.0  0.69903  0.71311  0.99281  1.0000
  C   C943      1.0  0.71748  0.55481  0.76864  1.0000
  S   S315      1.0  0.73203  0.68183  0.99688  1.0000
  S   S316      1.0  0.94743  0.67948  0.99385  1.0000
  H   H936      1.0  0.81701  0.70108  0.96857  1.0000
  C   C944      1.0  0.98129  0.62981  0.88829  1.0000
  H   H937      1.0  0.76080  0.88830  0.97990  1.0000
  C   C945      1.0  0.57996  0.89609  0.83555  1.0000
  S   S317      1.0  0.95905  0.50939  0.81761  1.0000
  H   H938      1.0  0.58357  0.89433  0.90200  1.0000
  H   H939      1.0  0.96621  0.68438  0.90788  1.0000
  S   S318      1.0  0.68869  0.93444  0.99024  1.0000
  N   N79       1.0  0.54907  0.57104  0.86718  1.0000
  C   C946      1.0  0.85448  0.70500  0.97418  1.0000
  C   C947      1.0  0.65817  0.96763  0.87254  1.0000
  C   C948      1.0  0.94109  0.78228  0.98665  1.0000
  H   H940      1.0  0.59368  0.92895  0.89548  1.0000
  C   C949      1.0  0.93469  0.76526  0.94927  1.0000
  H   H941      1.0  0.53597  0.59796  0.87503  1.0000
  C   C950      1.0  0.97097  0.77812  0.92632  1.0000
  C   C951      1.0  0.55398  0.59855  0.87057  1.0000
  H   H942      1.0  0.60961  0.67171  0.76170  1.0000
  N   N80       1.0  0.89604  0.50108  0.77973  1.0000
  C   C952      1.0  0.56717  0.56497  0.87385  1.0000
  S   S319      1.0  0.98264  0.66617  0.94610  1.0000
  C   C953      1.0  0.74769  0.86787  0.98517  1.0000
  Fe  Fe159     1.0  0.76922  0.72275  0.99675  1.0000
  C   C954      1.0  0.76080  0.59443  0.77064  1.0000
  H   H943      1.0  0.77434  0.61524  0.77602  1.0000
  H   H944      1.0  0.58509  0.58027  0.88200  1.0000
  H   H945      1.0  0.95709  0.62860  0.98360  1.0000
  H   H946      1.0  0.56151  0.61018  0.85559  1.0000
  H   H947      1.0  0.62877  0.98826  0.90732  1.0000
  C   C955      1.0  0.86457  0.51163  0.80502  1.0000
  H   H948      1.0  0.97967  0.62151  0.97115  1.0000
  Fe  Fe160     1.0  0.72375  0.92979  0.99104  1.0000
  C   C956      1.0  0.83594  0.72490  0.99741  1.0000
  H   H949      1.0  0.92117  0.77875  0.98499  1.0000
  H   H950      1.0  0.98554  0.61464  0.88301  1.0000
  C   C957      1.0  0.98409  0.63759  0.91039  1.0000
  C   C958      1.0  0.54039  0.51941  0.85909  1.0000
  C   C959      1.0  0.59570  0.67194  0.75063  1.0000
  H   H951      1.0  0.99052  0.62821  0.92182  1.0000
  H   H952      1.0  0.63542  0.54317  0.74866  1.0000
  H   H953      1.0  0.70739  0.49900  0.76060  1.0000
  H   H954      1.0  0.71225  0.61394  0.74867  1.0000
  C   C960      1.0  0.67291  0.58005  0.75073  1.0000
  H   H955      1.0  0.66692  0.64741  0.75890  1.0000
  H   H956      1.0  0.99086  0.80823  0.97590  1.0000
  H   H957      1.0  0.53725  0.49945  0.85538  1.0000
  H   H958      1.0  0.87825  0.49802  0.83145  1.0000
  H   H959      1.0  0.95354  0.80222  0.99514  1.0000
  H   H960      1.0  0.94018  0.76606  0.99672  1.0000
  S   S320      1.0  0.71351  0.88540  0.99616  1.0000
