data_image0
_chemical_formula_structural       SH3FeCH2CH3CSH5CSH2CHCHFeHSCHC2H2SH2CHFeSH2CHNHCH2SFeCH4SHC2H5CHC2HC4H5CHC4HCH3CH2CH5SHSH7C2H2CH2CH2CHC2H2C3H2NC3HCHC3H5CH2C2H3Fe2HC2FeHCSH3SHSH3CHCHC3H3C3H3SHSCFeSHSCHS2H2C2HCHSHCHCH3NH4CH4CH4CH3SCHCH2CH2C2HSH2CH2FeCHC2NHCHSHFeHFeH2FeH3SH2SHCHCFeH3C2HFeC2HCH4CHSC3NHCH3CSH2CH3C3H2SH5CHFeHC4HCHCH2CSCH2S2HCHCH2CSC6HCSH3FeCH3SHCHSH2CHCHSCH4C2HCHCHC2H2FeCH3SC2H3FeHNCHCHCH3C2SCH8CH2CH3SH2SH3CH6C2HFeHC2HCH3CHC2H2FeHSHC2HCHCH4C2SCHSHCH5C3FeC2SH2FeH3FeH2CHCH6CHCHNHCH3CHCH3C2SH6SHCH2SC2HC4HNHCH3FeC2FeH4CHCH7Fe2SHC2SH2CHNHS2H2C2H5C3SHC2HCH7CH5C2HCH5CH3FeH5SC2H2SCHCH2CHCNC2HC2HCSCH2CH10CHFeHC2H2S2H2CHCHFeHNH4FeH2CH7CH4CHCHCH3CH2CH2C2HC2SHC2HC3H3CHCHC2SH2CHCHFeH4CH7CH2C2H3CNH2C2HCHSCH4CHCH3FeHCH3CNH4CH2SHCHCHFeCH2CH3CSC2HNHFeCH2SC3HC2H4CHC2FeHC4H2C3HCH2CS2H2CHCH3FeH4CHC3H4SH2SHCSC2H3CSHCSCH3C2H3C2H3SHCSH2SCHC2H4FeCHSCHC2H5C2HCFeCH8SH2NCHFeH2C3H3CH7CH4CH3C2SCHCH2C2HC2HSH2C2HCHSNHCHFeC2H4FeH2CHCHCH3CH2SHC2NHSCH3SCHFeH3SFeHCHCH2CHCFeCHCHCH7SH4NSH3CHCHCFeSHCH2C4NC3HFeHFeH2C2FeSH2CH3SFeHC2H2CFeC2H3CSH3CHCH7CH2SHC3HCH2FeH4CH2CH5C2HNH2FeHC2HSH3CH4C4SCS2CHSCH4CSHCSCH2SH7SHC4HCSHCH2CHCFe2CHC2SH3C2SH3CH3CSHCH3FeNH2C3SH2CH2CH6C3H2CHCH3CH2CH3SCH3SC4HCHCH3CSFeHCSCHC2H3CSH2C2HCHSCFeCH6FeCHFeCSH2CHCSFeHCHC2H2C3NC2HCH2SH4CH3SC3HCHC2SH2SH2CHCH5C4HNH2CHSCHCH2C2SH2SHFeSH3CHNCFeH2CHCHFeC4HC2HFeCH2SCHSH2C2H3SCH2CH4CH7C3H2C2SHC3HSH2SCHFeC2HCHCH4C2FeH8FeCH2C4H2SH4CHCSH2C4H6Fe2C4H6FeHCH2CHSH8SNH5CHFeH3CHNSCHCH2C3HCH2CSCS2H2SC2H6C2H2CH2CH4NH3CSH6C2SC2H4SHFeH2CH2C2HSCHFe2H2CSHC2HCHFeHSH2CNH4SH3CSFeCH3CFeH4CH2CH4CHCH2C2H2CH2CH2CH6C4HC4H2CFeH8C3NHC2H9CHCHCH2CHCHCSH2SH2SHCH5C2HFeHCNHCHSCHFeSFeHCS2H2CNHSHCHCH4SHCNHSH2CHCSHFeCHCHCHCH2CH2S2H5C2HC2H2C5FeCHCHC5H5CH5S2CHSCSCH3C2H3CFeH2CHCHFeHC2HSH7C5H4CHFeSCH2SC2H2CSHFeHCNCHSC2H4SHCHCH5C3H3CH5SCHSH4CSH6SHCH2CH6SFeH2CH2FeH2C2SC2H2CH7CH2C4SH2C6H5C3H3SH4CHSH2C2SH2C3HC2H3CH4S2HNHC2SH2CNH3CH2C2HC2HNC4HCHCH2CNH4CSH2C3NH7SCH2CH6FeCH5CH5CNCHC2H3C2H3CHCHCH2C2H2CFeCH2C3HSH4FeHFeC3HCH2CHC2H4C2H2CNCH3CH2C2H3FeCH2C3H3NH2CH3CHSH2C5H4CH4CH3SHCFeH2CSCH2FeC3H10C3H2CH2SH3CFeSHCH2CH2C2FeSCH2CH2CHCH4NCH3CH4SH2CH2CSCH5S2HC2H6CHNHCH4CHCHCHC3H2FeSHCH5C2HFeH3C2H2CHCHSHSHFeHCH4CH4C2HC6HC3H4FeC3HC2HSCHSC2HC2H4C2H2NH3FeHCH3CHC2HC2HCHCH7SCNFeH2CH4CHCH2CH7CH2CSH8NC2H2CH2CH2C2H2C2HCHSH3CHC3HSHSHCHSCHFeH2CH2C2HCH4CHCHCH2C2HCHFeH2CHCH6NCHSCH4C3H6CH5C2H5CHNC4H5C2FeCFeH3C3HCH3CH3CH4CHSHSHC3S2H3CHCH7C3HSHSHNHCH5C6HFeSHC2H2CHC2HC2S2H2CHC2H2SH3SH3CH5C2H7C2H2SHCHCSCSHCH2C2SH5C2HCFeH4CSFeHC2H2C2H2CHFeCHC2H2SHC2HFeHCH6SHC3HCFeHSCH2C3H3CH2NS2HC2H4CHCH2CHFeH4C2HCH2S3FeC2H2C2H2C2H3FeHSH3CH2CH2FeCHCHSHCH7CHCH4CHC2NHC2H2CHSH3CH3CH2FeH4CHC2H4C2H2C2H3SH2CHFeHC2H3NH4CH4CHCH5CSH2CNH3CSC2HS2CHCHCH3SHC3HCH2CHCH3CHSCH2FeCH2C3HC2NH4CH3SH5C3H3SH3CHFeCHCH2CSH2CH2SCH3CHCSC2SHC2H3CH3CH3FeH3C4H3C3NCH2SH3CH3SCHCH2CHCHCNSH2CHFe2H2CHCH3CSH3C2NH2C2H2C2H3CHFeHCH3CH2CH2C2H5SHC2HCHCH2CNC2H2CHC2H2C2HC2NCH4C2H6SH2C3H3CHCH5CH2CH2C2H7CH4C2HSC2HSCFeC2H3CHCNH2CHCHCH3CH2C2H5CH5CH8SH8C2HCH3CH2CHSCHC3H2C2H2SH4C4SHCHCHSH6CH5FeSCHNC2HC3NCHCH3CH6SH2CHCHC2H3C3HC2HCHCHCH3CH4FeHCH3CSCHCH3CHCH4CHCHCH2CH2CH3C2H2CSH2CH8CH3FeC2SFeH4CH5S2HCNCHFeH2CH2SHSC4H3C5H2C2FeHNHCHCHC2HC3H3SH2NSCHC2HCH4FeH2CSH2CHSC2HFeC3H5CHC2H13CH6CH3SCHC2H2FeHCH5C2HCH2SCHCHCH3CHC2SH4CH2C2H2C2H2C2SH2CH2CH3CHC2HC5H2C2H3C2HCSHCHNH3C2H2FeHSHC3HCHSCH2CSCSH3CH2C2H5NH5CHC2HCFeCH3CH3C2H2CH4C3HC3H4SHCH2CH4CNHCH2CHC4FeHCFeCSH6CHC2H9CH2CHC2HCSCFeCHCHCH2CHSH2SHNHNH3CH7SCSHCSH5NH2C2H2CNCH9C4HCH9C2H2C3H3C3SC3HFeH4C2HCH2FeH7CH2CH6SH2C
_chemical_formula_sum              "S288 H2304 Fe144 C1296 N72"
_cell_length_a       35.8551
_cell_length_b       38.9093
_cell_length_c       39.0944
_cell_angle_alpha    88.8619
_cell_angle_beta     94.7956
_cell_angle_gamma    119.201

_space_group_name_H-M_alt    "P 1"
_space_group_IT_number       1

loop_
  _space_group_symop_operation_xyz
  'x, y, z'

loop_
  _atom_site_type_symbol
  _atom_site_label
  _atom_site_symmetry_multiplicity
  _atom_site_fract_x
  _atom_site_fract_y
  _atom_site_fract_z
  _atom_site_occupancy
  S   S1        1.0  0.81423  0.47175  0.31160  1.0000
  H   H1        1.0  0.41898  0.57550  0.20640  1.0000
  H   H2        1.0  0.83408  0.33243  0.16309  1.0000
  H   H3        1.0  0.63393  0.61192  0.20615  1.0000
  Fe  Fe1       1.0  0.76429  0.46105  0.04976  1.0000
  C   C1        1.0  0.86339  0.31219  0.34948  1.0000
  H   H4        1.0  0.63474  0.36934  0.06774  1.0000
  H   H5        1.0  0.83685  0.53060  0.24706  1.0000
  C   C2        1.0  0.86649  0.30408  0.31556  1.0000
  H   H6        1.0  0.63647  0.54015  0.10395  1.0000
  H   H7        1.0  0.70391  0.44699  0.22711  1.0000
  H   H8        1.0  0.58878  0.50551  0.37214  1.0000
  C   C3        1.0  0.68799  0.55299  0.44770  1.0000
  S   S2        1.0  0.89793  0.44145  0.28004  1.0000
  H   H9        1.0  0.68158  0.51687  0.49177  1.0000
  H   H10       1.0  0.67771  0.44178  0.07926  1.0000
  H   H11       1.0  0.86340  0.48293  0.23707  1.0000
  H   H12       1.0  0.57145  0.48984  0.07059  1.0000
  H   H13       1.0  0.75134  0.51194  0.33052  1.0000
  C   C4        1.0  0.90915  0.42897  0.21438  1.0000
  S   S3        1.0  0.88665  0.46069  0.11931  1.0000
  H   H14       1.0  0.80225  0.38523  0.23313  1.0000
  H   H15       1.0  0.65409  0.38526  0.40115  1.0000
  C   C5        1.0  0.62347  0.51901  0.47744  1.0000
  H   H16       1.0  0.54577  0.58897  0.44629  1.0000
  C   C6        1.0  0.45853  0.33625  0.16657  1.0000
  H   H17       1.0  0.89357  0.36663  0.06306  1.0000
  Fe  Fe2       1.0  0.82490  0.47151  0.36886  1.0000
  H   H18       1.0  0.84125  0.46945  0.44329  1.0000
  S   S4        1.0  0.87042  0.60883  0.04608  1.0000
  C   C7        1.0  0.76720  0.56670  0.24293  1.0000
  H   H19       1.0  0.48660  0.29730  0.12906  1.0000
  C   C8        1.0  0.90648  0.43295  0.17870  1.0000
  C   C9        1.0  0.89682  0.36644  0.03506  1.0000
  H   H20       1.0  0.73561  0.32274  0.48483  1.0000
  H   H21       1.0  0.90007  0.33580  0.16725  1.0000
  S   S5        1.0  0.72974  0.50840  0.15201  1.0000
  H   H22       1.0  0.80880  0.57937  0.36676  1.0000
  H   H23       1.0  0.41618  0.49896  0.26577  1.0000
  C   C10       1.0  0.60681  0.46794  0.12720  1.0000
  H   H24       1.0  0.84983  0.46560  0.50673  1.0000
  Fe  Fe3       1.0  0.84078  0.48236  0.10093  1.0000
  S   S6        1.0  0.88803  0.47232  0.36855  1.0000
  H   H25       1.0  0.80458  0.37654  0.14571  1.0000
  H   H26       1.0  0.72055  0.53109  0.39439  1.0000
  C   C11       1.0  0.72728  0.51807  0.34104  1.0000
  H   H27       1.0  0.65205  0.48661  0.38105  1.0000
  N   N1        1.0  0.60872  0.46223  0.08929  1.0000
  H   H28       1.0  0.46143  0.55670  0.32723  1.0000
  C   C12       1.0  0.73760  0.40615  0.45788  1.0000
  H   H29       1.0  0.65002  0.42457  0.24015  1.0000
  H   H30       1.0  0.89586  0.36357  0.46889  1.0000
  S   S7        1.0  0.76074  0.51537  0.06159  1.0000
  Fe  Fe4       1.0  0.77183  0.50240  0.11630  1.0000
  C   C13       1.0  0.57654  0.44098  0.18418  1.0000
  H   H31       1.0  0.64762  0.32064  0.26887  1.0000
  H   H32       1.0  0.43921  0.30204  0.31193  1.0000
  H   H33       1.0  0.81386  0.33818  0.29596  1.0000
  H   H34       1.0  0.75869  0.51471  0.39071  1.0000
  S   S8        1.0  0.55115  0.60788  0.01909  1.0000
  H   H35       1.0  0.52187  0.39983  0.07699  1.0000
  C   C14       1.0  0.78318  0.31820  0.12295  1.0000
  C   C15       1.0  0.89405  0.44728  0.23551  1.0000
  H   H36       1.0  0.71462  0.38672  0.50762  1.0000
  H   H37       1.0  0.63780  0.44881  0.29383  1.0000
  H   H38       1.0  0.89890  0.60482  0.24950  1.0000
  H   H39       1.0  0.76954  0.59530  0.36780  1.0000
  H   H40       1.0  0.78542  0.30501  0.46439  1.0000
  C   C16       1.0  0.57561  0.47501  0.36212  1.0000
  H   H41       1.0  0.74745  0.58153  0.01111  1.0000
  C   C17       1.0  0.74545  0.53300  0.37854  1.0000
  C   C18       1.0  0.58392  0.43044  0.14880  1.0000
  H   H42       1.0  0.48851  0.50879  0.32001  1.0000
  C   C19       1.0  0.81073  0.37453  0.39757  1.0000
  C   C20       1.0  0.65238  0.49266  0.35305  1.0000
  C   C21       1.0  0.43913  0.52955  0.27515  1.0000
  C   C22       1.0  0.79412  0.36129  0.12019  1.0000
  H   H43       1.0  0.75776  0.58381  0.25791  1.0000
  H   H44       1.0  0.61712  0.41248  0.36557  1.0000
  H   H45       1.0  0.69944  0.60006  0.08682  1.0000
  H   H46       1.0  0.63079  0.39858  0.32648  1.0000
  H   H47       1.0  0.74089  0.31260  0.36788  1.0000
  C   C23       1.0  0.49168  0.31040  0.44172  1.0000
  H   H48       1.0  0.76536  0.36288  0.10939  1.0000
  C   C24       1.0  0.64388  0.38169  0.09443  1.0000
  C   C25       1.0  0.74569  0.55104  0.21080  1.0000
  C   C26       1.0  0.51657  0.49075  0.22517  1.0000
  C   C27       1.0  0.82197  0.31434  0.13885  1.0000
  H   H49       1.0  0.54835  0.34992  0.47482  1.0000
  C   C28       1.0  0.81162  0.53648  0.23684  1.0000
  H   H50       1.0  0.49440  0.42357  0.02638  1.0000
  H   H51       1.0  0.73220  0.48972  0.27802  1.0000
  H   H52       1.0  0.78177  0.36504  0.41163  1.0000
  C   C29       1.0  0.46075  0.45210  0.18060  1.0000
  H   H53       1.0  0.56247  0.29767  0.27611  1.0000
  H   H54       1.0  0.69428  0.45636  0.38315  1.0000
  C   C30       1.0  0.89332  0.30532  0.17271  1.0000
  H   H55       1.0  0.57739  0.61938  0.39233  1.0000
  H   H56       1.0  0.52507  0.32072  0.16426  1.0000
  H   H57       1.0  0.82797  0.35879  0.40743  1.0000
  H   H58       1.0  0.43377  0.46896  0.31834  1.0000
  H   H59       1.0  0.52381  0.54531  0.15420  1.0000
  S   S9        1.0  0.85527  0.53660  0.37616  1.0000
  H   H60       1.0  0.43484  0.60067  0.41523  1.0000
  S   S10       1.0  0.69504  0.59658  0.39079  1.0000
  H   H61       1.0  0.86946  0.60273  0.41986  1.0000
  H   H62       1.0  0.45498  0.46682  0.41359  1.0000
  H   H63       1.0  0.61848  0.36265  0.11123  1.0000
  H   H64       1.0  0.60720  0.46352  0.19761  1.0000
  H   H65       1.0  0.52038  0.43651  0.10390  1.0000
  H   H66       1.0  0.66985  0.49961  0.28641  1.0000
  H   H67       1.0  0.63782  0.31809  0.31380  1.0000
  C   C31       1.0  0.48842  0.59324  0.43453  1.0000
  C   C32       1.0  0.43999  0.52751  0.31474  1.0000
  H   H68       1.0  0.60987  0.57091  0.41122  1.0000
  H   H69       1.0  0.41917  0.49704  0.20782  1.0000
  C   C33       1.0  0.53210  0.52325  0.20372  1.0000
  H   H70       1.0  0.57213  0.45551  0.38417  1.0000
  H   H71       1.0  0.79981  0.50412  0.18941  1.0000
  C   C34       1.0  0.65201  0.53804  0.08136  1.0000
  H   H72       1.0  0.54478  0.36869  0.43259  1.0000
  H   H73       1.0  0.84743  0.32972  0.12082  1.0000
  C   C35       1.0  0.60513  0.47286  0.33726  1.0000
  H   H74       1.0  0.45785  0.49963  0.35662  1.0000
  C   C36       1.0  0.42338  0.44648  0.42314  1.0000
  C   C37       1.0  0.65089  0.42370  0.09528  1.0000
  H   H75       1.0  0.63595  0.54376  0.05812  1.0000
  H   H76       1.0  0.84554  0.59112  0.46960  1.0000
  C   C38       1.0  0.81367  0.45143  0.45732  1.0000
  C   C39       1.0  0.76921  0.32500  0.25112  1.0000
  C   C40       1.0  0.80097  0.35652  0.22879  1.0000
  H   H77       1.0  0.76950  0.29742  0.24549  1.0000
  H   H78       1.0  0.43073  0.48878  0.46106  1.0000
  N   N2        1.0  0.75070  0.30910  0.31420  1.0000
  C   C41       1.0  0.68145  0.45206  0.24140  1.0000
  C   C42       1.0  0.61001  0.42511  0.08096  1.0000
  C   C43       1.0  0.78208  0.33636  0.28976  1.0000
  H   H79       1.0  0.54343  0.46553  0.34866  1.0000
  C   C44       1.0  0.90039  0.40550  0.50601  1.0000
  H   H80       1.0  0.56280  0.41440  0.20018  1.0000
  C   C45       1.0  0.74232  0.40452  0.49366  1.0000
  C   C46       1.0  0.70690  0.30536  0.30673  1.0000
  C   C47       1.0  0.45604  0.49947  0.32814  1.0000
  H   H81       1.0  0.45183  0.33775  0.13846  1.0000
  H   H82       1.0  0.46962  0.31366  0.42213  1.0000
  H   H83       1.0  0.65230  0.49269  0.05004  1.0000
  H   H84       1.0  0.67733  0.47589  0.22864  1.0000
  H   H85       1.0  0.60756  0.42072  0.05256  1.0000
  C   C48       1.0  0.64209  0.40921  0.35344  1.0000
  H   H86       1.0  0.82001  0.37696  0.10276  1.0000
  H   H87       1.0  0.57074  0.52768  0.45777  1.0000
  C   C49       1.0  0.64736  0.37744  0.37333  1.0000
  C   C50       1.0  0.46602  0.60486  0.41029  1.0000
  H   H88       1.0  0.51084  0.36772  0.46440  1.0000
  H   H89       1.0  0.65916  0.36458  0.29230  1.0000
  H   H90       1.0  0.56013  0.55050  0.21225  1.0000
  Fe  Fe5       1.0  0.58631  0.55481  0.28673  1.0000
  Fe  Fe6       1.0  0.84942  0.53741  0.31891  1.0000
  H   H91       1.0  0.49276  0.45950  0.05403  1.0000
  C   C51       1.0  0.52847  0.59820  0.42790  1.0000
  C   C52       1.0  0.52397  0.62719  0.37316  1.0000
  Fe  Fe7       1.0  0.58905  0.62540  0.32037  1.0000
  H   H92       1.0  0.74829  0.29945  0.42843  1.0000
  C   C53       1.0  0.42936  0.55589  0.22025  1.0000
  S   S11       1.0  0.77004  0.44562  0.10467  1.0000
  H   H93       1.0  0.46312  0.56642  0.21450  1.0000
  H   H94       1.0  0.73693  0.32111  0.24315  1.0000
  H   H95       1.0  0.42248  0.62623  0.24536  1.0000
  S   S12       1.0  0.45012  0.47989  0.11826  1.0000
  H   H96       1.0  0.66375  0.52486  0.35163  1.0000
  S   S13       1.0  0.54130  0.49338  0.26640  1.0000
  H   H97       1.0  0.46410  0.29736  0.20364  1.0000
  H   H98       1.0  0.78828  0.36704  0.29297  1.0000
  H   H99       1.0  0.67403  0.38180  0.10382  1.0000
  C   C54       1.0  0.69856  0.57117  0.08549  1.0000
  H   H100      1.0  0.78378  0.38496  0.34959  1.0000
  C   C55       1.0  0.64875  0.49685  0.07750  1.0000
  H   H101      1.0  0.59180  0.44146  0.33009  1.0000
  C   C56       1.0  0.52615  0.35166  0.45414  1.0000
  C   C57       1.0  0.69980  0.46391  0.27867  1.0000
  C   C58       1.0  0.79850  0.36694  0.35889  1.0000
  H   H102      1.0  0.75563  0.30312  0.13854  1.0000
  H   H103      1.0  0.48980  0.36206  0.17524  1.0000
  H   H104      1.0  0.71624  0.36032  0.32940  1.0000
  C   C59       1.0  0.81847  0.44944  0.49322  1.0000
  C   C60       1.0  0.79985  0.55909  0.25603  1.0000
  C   C61       1.0  0.54621  0.61514  0.39717  1.0000
  H   H105      1.0  0.72773  0.54288  0.32585  1.0000
  H   H106      1.0  0.83406  0.35825  0.50115  1.0000
  H   H107      1.0  0.83214  0.40626  0.40325  1.0000
  S   S14       1.0  0.58836  0.60961  0.26556  1.0000
  H   H108      1.0  0.70634  0.38917  0.44435  1.0000
  S   S15       1.0  0.71310  0.41081  0.01711  1.0000
  C   C62       1.0  0.57095  0.46132  0.06835  1.0000
  Fe  Fe8       1.0  0.54043  0.54638  0.02528  1.0000
  S   S16       1.0  0.55790  0.55313  0.08191  1.0000
  H   H109      1.0  0.63969  0.48531  0.14024  1.0000
  S   S17       1.0  0.65767  0.57995  0.29384  1.0000
  C   C63       1.0  0.66744  0.56747  0.42441  1.0000
  H   H110      1.0  0.53385  0.31071  0.22196  1.0000
  S   S18       1.0  0.82464  0.57651  0.29696  1.0000
  S   S19       1.0  0.84346  0.53805  0.11867  1.0000
  H   H111      1.0  0.55939  0.62072  0.19107  1.0000
  H   H112      1.0  0.77352  0.30551  0.09640  1.0000
  C   C64       1.0  0.65960  0.33629  0.29425  1.0000
  C   C65       1.0  0.67063  0.47387  0.29887  1.0000
  H   H113      1.0  0.89825  0.42207  0.02941  1.0000
  C   C66       1.0  0.49095  0.43022  0.05307  1.0000
  H   H114      1.0  0.42774  0.42648  0.44172  1.0000
  S   S20       1.0  0.47005  0.52010  0.02911  1.0000
  H   H115      1.0  0.84611  0.37959  0.02132  1.0000
  C   C67       1.0  0.75768  0.52873  0.19148  1.0000
  H   H116      1.0  0.87772  0.33553  0.02513  1.0000
  C   C68       1.0  0.52595  0.42991  0.07789  1.0000
  H   H117      1.0  0.58177  0.39872  0.08972  1.0000
  H   H118      1.0  0.53868  0.30654  0.41254  1.0000
  H   H119      1.0  0.60390  0.41593  0.15288  1.0000
  N   N3        1.0  0.42700  0.55851  0.25846  1.0000
  H   H120      1.0  0.71005  0.44385  0.34606  1.0000
  H   H121      1.0  0.48160  0.31357  0.36831  1.0000
  H   H122      1.0  0.55376  0.45274  0.18158  1.0000
  H   H123      1.0  0.60356  0.48850  0.31360  1.0000
  C   C69       1.0  0.47611  0.48455  0.15921  1.0000
  H   H124      1.0  0.88330  0.29840  0.19914  1.0000
  H   H125      1.0  0.59125  0.48627  0.13071  1.0000
  H   H126      1.0  0.78001  0.54046  0.49749  1.0000
  H   H127      1.0  0.47289  0.29536  0.46378  1.0000
  C   C70       1.0  0.45865  0.29781  0.17534  1.0000
  H   H128      1.0  0.78659  0.30826  0.36145  1.0000
  H   H129      1.0  0.66841  0.62162  0.49063  1.0000
  H   H130      1.0  0.82875  0.37721  0.34636  1.0000
  H   H131      1.0  0.83346  0.35987  0.23463  1.0000
  C   C71       1.0  0.48100  0.45516  0.21350  1.0000
  H   H132      1.0  0.42533  0.53394  0.15273  1.0000
  H   H133      1.0  0.67753  0.49853  0.09200  1.0000
  H   H134      1.0  0.66099  0.43540  0.12201  1.0000
  S   S21       1.0  0.83521  0.49354  0.04469  1.0000
  C   C72       1.0  0.78119  0.57593  0.38008  1.0000
  H   H135      1.0  0.89358  0.42270  0.48587  1.0000
  C   C73       1.0  0.45988  0.59975  0.27052  1.0000
  H   H136      1.0  0.86912  0.34116  0.35674  1.0000
  H   H137      1.0  0.50670  0.61347  0.17787  1.0000
  C   C74       1.0  0.60340  0.53455  0.45490  1.0000
  H   H138      1.0  0.70300  0.43911  0.29010  1.0000
  H   H139      1.0  0.43321  0.42457  0.17165  1.0000
  C   C75       1.0  0.66575  0.52817  0.47385  1.0000
  C   C76       1.0  0.79090  0.52174  0.20425  1.0000
  H   H140      1.0  0.61737  0.34875  0.36960  1.0000
  S   S22       1.0  0.46581  0.57355  0.47310  1.0000
  H   H141      1.0  0.47122  0.53580  0.26771  1.0000
  H   H142      1.0  0.45886  0.60412  0.29827  1.0000
  C   C77       1.0  0.62539  0.55874  0.42834  1.0000
  H   H143      1.0  0.57319  0.45754  0.04052  1.0000
  H   H144      1.0  0.46896  0.42998  0.22999  1.0000
  Fe  Fe9       1.0  0.87974  0.47782  0.31154  1.0000
  C   C78       1.0  0.51184  0.52016  0.17070  1.0000
  H   H145      1.0  0.87397  0.32650  0.29650  1.0000
  C   C79       1.0  0.76777  0.32248  0.35114  1.0000
  C   C80       1.0  0.70535  0.34436  0.30429  1.0000
  N   N4        1.0  0.68294  0.48249  0.33693  1.0000
  H   H146      1.0  0.71506  0.56788  0.10965  1.0000
  C   C81       1.0  0.68455  0.44879  0.35533  1.0000
  H   H147      1.0  0.73974  0.61727  0.16330  1.0000
  S   S23       1.0  0.49371  0.59127  0.08582  1.0000
  H   H148      1.0  0.67412  0.37427  0.36446  1.0000
  Fe  Fe10      1.0  0.83230  0.54659  0.06271  1.0000
  H   H149      1.0  0.69752  0.61580  0.02431  1.0000
  Fe  Fe11      1.0  0.48200  0.58212  0.02859  1.0000
  H   H150      1.0  0.43307  0.33777  0.17975  1.0000
  H   H151      1.0  0.79222  0.58571  0.40728  1.0000
  Fe  Fe12      1.0  0.65267  0.59907  0.34619  1.0000
  H   H152      1.0  0.79066  0.34773  0.20137  1.0000
  H   H153      1.0  0.48728  0.29869  0.30919  1.0000
  H   H154      1.0  0.45893  0.40780  0.06057  1.0000
  S   S24       1.0  0.58086  0.56834  0.34083  1.0000
  H   H155      1.0  0.55247  0.40855  0.13634  1.0000
  H   H156      1.0  0.59930  0.60789  0.14746  1.0000
  S   S25       1.0  0.76560  0.43188  0.39502  1.0000
  H   H157      1.0  0.71599  0.57079  0.06354  1.0000
  C   C82       1.0  0.77308  0.42997  0.43972  1.0000
  H   H158      1.0  0.72105  0.56084  0.44551  1.0000
  C   C83       1.0  0.88805  0.45479  0.16395  1.0000
  Fe  Fe13      1.0  0.48797  0.53112  0.08553  1.0000
  H   H159      1.0  0.72555  0.36370  0.28448  1.0000
  H   H160      1.0  0.71976  0.55619  0.20096  1.0000
  H   H161      1.0  0.86850  0.56100  0.48296  1.0000
  C   C84       1.0  0.87548  0.46905  0.22084  1.0000
  C   C85       1.0  0.87214  0.47253  0.18499  1.0000
  H   H162      1.0  0.85785  0.48940  0.17373  1.0000
  Fe  Fe14      1.0  0.56251  0.61229  0.07638  1.0000
  C   C86       1.0  0.48398  0.62227  0.37983  1.0000
  C   C87       1.0  0.86733  0.58816  0.48985  1.0000
  H   H163      1.0  0.49290  0.60460  0.26821  1.0000
  C   C88       1.0  0.88047  0.39236  0.01692  1.0000
  H   H164      1.0  0.51199  0.50753  0.90325  1.0000
  H   H165      1.0  0.86146  0.44881  0.99693  1.0000
  H   H166      1.0  0.81040  0.38554  0.70800  1.0000
  H   H167      1.0  0.59942  0.42848  0.67159  1.0000
  C   C89       1.0  0.47101  0.59113  0.94001  1.0000
  H   H168      1.0  0.64784  0.34832  0.54705  1.0000
  S   S26       1.0  0.90533  0.45301  0.59262  1.0000
  C   C90       1.0  0.66105  0.56505  0.69660  1.0000
  C   C91       1.0  0.75852  0.35433  0.65115  1.0000
  C   C92       1.0  0.45891  0.35769  0.80936  1.0000
  N   N5        1.0  0.63123  0.48960  0.68934  1.0000
  H   H169      1.0  0.45268  0.29947  0.87845  1.0000
  C   C93       1.0  0.72096  0.53947  0.96978  1.0000
  H   H170      1.0  0.86336  0.36010  0.54176  1.0000
  H   H171      1.0  0.78485  0.53641  0.54351  1.0000
  H   H172      1.0  0.75220  0.54100  0.96705  1.0000
  C   C94       1.0  0.78262  0.42643  0.51142  1.0000
  S   S27       1.0  0.59692  0.49103  0.51184  1.0000
  H   H173      1.0  0.80604  0.38679  0.97914  1.0000
  H   H174      1.0  0.69589  0.57285  0.99120  1.0000
  C   C95       1.0  0.61985  0.50321  0.83648  1.0000
  H   H175      1.0  0.75396  0.41780  0.64450  1.0000
  H   H176      1.0  0.53708  0.39269  0.62918  1.0000
  H   H177      1.0  0.50328  0.42158  0.93525  1.0000
  C   C96       1.0  0.59835  0.34479  0.83078  1.0000
  C   C97       1.0  0.90500  0.34529  0.61371  1.0000
  C   C98       1.0  0.83768  0.58761  0.94461  1.0000
  H   H178      1.0  0.90045  0.54887  0.90214  1.0000
  H   H179      1.0  0.42871  0.43436  0.00671  1.0000
  S   S28       1.0  0.76773  0.48636  0.79339  1.0000
  H   H180      1.0  0.88734  0.36782  0.91332  1.0000
  H   H181      1.0  0.44718  0.35158  0.57868  1.0000
  H   H182      1.0  0.87520  0.41046  0.84994  1.0000
  H   H183      1.0  0.44809  0.50637  0.92532  1.0000
  H   H184      1.0  0.68113  0.35804  0.79521  1.0000
  C   C99       1.0  0.81870  0.38870  0.95372  1.0000
  H   H185      1.0  0.50513  0.39761  0.66011  1.0000
  Fe  Fe15      1.0  0.85260  0.46764  0.57994  1.0000
  H   H186      1.0  0.41083  0.54691  0.55404  1.0000
  C   C100      1.0  0.72798  0.57751  0.98650  1.0000
  C   C101      1.0  0.85096  0.31087  0.65347  1.0000
  C   C102      1.0  0.59174  0.47116  0.86055  1.0000
  C   C103      1.0  0.80362  0.37725  0.63753  1.0000
  H   H187      1.0  0.61277  0.52664  0.65810  1.0000
  C   C104      1.0  0.83509  0.60980  0.64861  1.0000
  H   H188      1.0  0.80418  0.49171  0.70136  1.0000
  C   C105      1.0  0.60579  0.31220  0.81598  1.0000
  H   H189      1.0  0.46337  0.34096  0.51844  1.0000
  H   H190      1.0  0.73342  0.37040  0.95362  1.0000
  C   C106      1.0  0.70376  0.42302  0.97518  1.0000
  S   S29       1.0  0.50098  0.56796  0.56616  1.0000
  C   C107      1.0  0.45244  0.43635  0.67028  1.0000
  H   H191      1.0  0.44889  0.41867  0.89022  1.0000
  H   H192      1.0  0.60381  0.49746  0.81003  1.0000
  S   S30       1.0  0.57480  0.58030  0.51506  1.0000
  S   S31       1.0  0.76977  0.57176  0.73313  1.0000
  H   H193      1.0  0.78324  0.35526  0.58449  1.0000
  C   C108      1.0  0.65179  0.44812  0.77659  1.0000
  H   H194      1.0  0.47072  0.32360  0.59559  1.0000
  C   C109      1.0  0.55387  0.41051  0.92549  1.0000
  H   H195      1.0  0.46290  0.41697  0.72047  1.0000
  H   H196      1.0  0.52924  0.31540  0.81904  1.0000
  C   C110      1.0  0.45123  0.32576  0.57275  1.0000
  S   S32       1.0  0.87538  0.48771  0.82976  1.0000
  C   C111      1.0  0.87710  0.45378  0.97248  1.0000
  C   C112      1.0  0.77626  0.37386  0.71313  1.0000
  C   C113      1.0  0.88480  0.34579  0.64260  1.0000
  C   C114      1.0  0.62142  0.54343  0.94358  1.0000
  C   C115      1.0  0.49943  0.40009  0.86282  1.0000
  C   C116      1.0  0.68320  0.59576  0.55467  1.0000
  H   H197      1.0  0.65340  0.33594  0.88166  1.0000
  C   C117      1.0  0.76521  0.39333  0.82579  1.0000
  S   S33       1.0  0.56287  0.52907  0.58582  1.0000
  H   H198      1.0  0.71490  0.31934  0.54867  1.0000
  H   H199      1.0  0.62068  0.59212  0.70023  1.0000
  H   H200      1.0  0.42874  0.34071  0.82211  1.0000
  Fe  Fe16      1.0  0.50370  0.55575  0.51095  1.0000
  C   C118      1.0  0.77065  0.48076  0.69042  1.0000
  H   H201      1.0  0.83299  0.62428  0.62519  1.0000
  H   H202      1.0  0.81086  0.40706  0.62933  1.0000
  H   H203      1.0  0.51594  0.39941  0.55452  1.0000
  S   S34       1.0  0.64597  0.62160  0.86782  1.0000
  H   H204      1.0  0.72664  0.61027  0.51568  1.0000
  C   C119      1.0  0.72568  0.46715  0.92733  1.0000
  H   H205      1.0  0.65091  0.50358  0.83576  1.0000
  S   S35       1.0  0.89531  0.52619  0.55806  1.0000
  H   H206      1.0  0.82554  0.34653  0.75228  1.0000
  H   H207      1.0  0.66893  0.56677  0.72479  1.0000
  C   C120      1.0  0.89017  0.39506  0.86482  1.0000
  H   H208      1.0  0.67322  0.30250  0.87877  1.0000
  C   C121      1.0  0.80847  0.58334  0.70367  1.0000
  H   H209      1.0  0.73745  0.34272  0.91895  1.0000
  S   S36       1.0  0.53159  0.54898  0.83420  1.0000
  C   C122      1.0  0.66745  0.39605  0.95481  1.0000
  H   H210      1.0  0.86301  0.46890  0.95601  1.0000
  H   H211      1.0  0.66057  0.52801  0.62618  1.0000
  H   H212      1.0  0.67196  0.61017  0.57230  1.0000
  H   H213      1.0  0.88232  0.36774  0.85036  1.0000
  C   C123      1.0  0.57494  0.41708  0.96220  1.0000
  C   C124      1.0  0.44629  0.57041  0.64316  1.0000
  H   H214      1.0  0.66390  0.30409  0.76453  1.0000
  C   C125      1.0  0.80606  0.60221  0.67340  1.0000
  H   H215      1.0  0.69884  0.58146  0.57034  1.0000
  C   C126      1.0  0.76339  0.41540  0.67203  1.0000
  H   H216      1.0  0.77089  0.48941  0.66316  1.0000
  C   C127      1.0  0.43404  0.58592  0.95424  1.0000
  C   C128      1.0  0.87289  0.38461  0.90015  1.0000
  H   H217      1.0  0.44554  0.59426  0.62755  1.0000
  H   H218      1.0  0.55596  0.30037  0.54916  1.0000
  Fe  Fe17      1.0  0.49241  0.50767  0.57494  1.0000
  C   C129      1.0  0.66055  0.40449  0.92061  1.0000
  H   H219      1.0  0.70626  0.51841  0.58870  1.0000
  H   H220      1.0  0.51277  0.41629  0.80928  1.0000
  H   H221      1.0  0.87491  0.48979  0.70450  1.0000
  S   S37       1.0  0.49195  0.57136  0.76447  1.0000
  C   C130      1.0  0.76154  0.33463  0.73182  1.0000
  C   C131      1.0  0.65005  0.29562  0.56420  1.0000
  H   H222      1.0  0.57893  0.41732  0.90778  1.0000
  H   H223      1.0  0.85338  0.50160  0.75993  1.0000
  H   H224      1.0  0.53712  0.47628  0.83884  1.0000
  Fe  Fe18      1.0  0.56015  0.51907  0.52932  1.0000
  H   H225      1.0  0.89199  0.56894  0.68769  1.0000
  N   N6        1.0  0.74974  0.37308  0.68064  1.0000
  C   C132      1.0  0.55004  0.47260  0.86473  1.0000
  H   H226      1.0  0.84255  0.55805  0.73267  1.0000
  C   C133      1.0  0.66867  0.49500  0.67040  1.0000
  H   H227      1.0  0.87420  0.36428  0.96838  1.0000
  C   C134      1.0  0.70201  0.35211  0.68482  1.0000
  H   H228      1.0  0.81000  0.35788  0.94704  1.0000
  H   H229      1.0  0.79719  0.43077  0.93513  1.0000
  H   H230      1.0  0.59454  0.34139  0.85866  1.0000
  C   C135      1.0  0.86566  0.59727  0.65342  1.0000
  C   C136      1.0  0.73267  0.45879  0.96159  1.0000
  S   S38       1.0  0.44317  0.46139  0.60611  1.0000
  C   C137      1.0  0.52432  0.41158  0.63797  1.0000
  H   H231      1.0  0.79903  0.43326  0.67536  1.0000
  H   H232      1.0  0.63474  0.33514  0.59063  1.0000
  H   H233      1.0  0.68980  0.35741  0.58053  1.0000
  H   H234      1.0  0.81595  0.56289  0.92818  1.0000
  H   H235      1.0  0.84560  0.39569  0.53287  1.0000
  H   H236      1.0  0.49860  0.58834  0.89381  1.0000
  H   H237      1.0  0.42907  0.40709  0.66074  1.0000
  H   H238      1.0  0.50059  0.60129  0.95601  1.0000
  C   C138      1.0  0.85827  0.37806  0.52136  1.0000
  H   H239      1.0  0.70213  0.51412  0.98612  1.0000
  H   H240      1.0  0.63249  0.38353  0.90507  1.0000
  C   C139      1.0  0.64987  0.59756  0.68797  1.0000
  H   H241      1.0  0.62059  0.44013  0.78673  1.0000
  H   H242      1.0  0.50457  0.53106  0.64410  1.0000
  H   H243      1.0  0.62535  0.37434  0.82647  1.0000
  S   S39       1.0  0.85052  0.57598  0.80869  1.0000
  H   H244      1.0  0.57647  0.61018  0.90634  1.0000
  H   H245      1.0  0.69921  0.51914  0.68271  1.0000
  S   S40       1.0  0.52370  0.48713  0.75864  1.0000
  H   H246      1.0  0.43515  0.53133  0.70454  1.0000
  H   H247      1.0  0.75723  0.31083  0.71420  1.0000
  H   H248      1.0  0.78224  0.31023  0.77514  1.0000
  C   C140      1.0  0.89154  0.30988  0.59592  1.0000
  H   H249      1.0  0.73132  0.33228  0.80963  1.0000
  H   H250      1.0  0.48711  0.31265  0.53671  1.0000
  H   H251      1.0  0.55230  0.46541  0.93046  1.0000
  H   H252      1.0  0.90207  0.30455  0.73687  1.0000
  H   H253      1.0  0.61405  0.30191  0.66192  1.0000
  H   H254      1.0  0.67230  0.51367  0.73664  1.0000
  C   C141      1.0  0.72835  0.35133  0.82874  1.0000
  C   C142      1.0  0.84241  0.58211  0.97988  1.0000
  H   H255      1.0  0.58521  0.44246  0.84975  1.0000
  Fe  Fe19      1.0  0.90334  0.54954  0.61160  1.0000
  H   H256      1.0  0.89621  0.37306  0.65703  1.0000
  C   C143      1.0  0.88696  0.39480  0.97800  1.0000
  C   C144      1.0  0.80607  0.35625  0.60587  1.0000
  H   H257      1.0  0.71142  0.42675  0.68426  1.0000
  C   C145      1.0  0.64653  0.30783  0.86900  1.0000
  H   H258      1.0  0.56034  0.50065  0.87897  1.0000
  H   H259      1.0  0.66030  0.42488  0.78361  1.0000
  H   H260      1.0  0.73525  0.35012  0.62873  1.0000
  C   C146      1.0  0.86838  0.57865  0.68383  1.0000
  H   H261      1.0  0.72800  0.60589  0.93934  1.0000
  C   C147      1.0  0.86783  0.61453  0.00178  1.0000
  C   C148      1.0  0.47955  0.33635  0.54209  1.0000
  H   H262      1.0  0.62651  0.53271  0.84554  1.0000
  H   H263      1.0  0.61651  0.48618  0.74232  1.0000
  Fe  Fe20      1.0  0.49349  0.57942  0.82112  1.0000
  H   H264      1.0  0.67690  0.47636  0.78891  1.0000
  S   S41       1.0  0.59542  0.60342  0.77523  1.0000
  H   H265      1.0  0.64115  0.47621  0.61749  1.0000
  C   C149      1.0  0.49512  0.50627  0.66086  1.0000
  C   C150      1.0  0.87459  0.48925  0.75959  1.0000
  H   H266      1.0  0.76331  0.41369  0.84425  1.0000
  C   C151      1.0  0.58838  0.54495  0.95886  1.0000
  H   H267      1.0  0.47591  0.58343  0.66088  1.0000
  C   C152      1.0  0.79404  0.33861  0.76165  1.0000
  H   H268      1.0  0.80160  0.40241  0.90144  1.0000
  H   H269      1.0  0.69010  0.57176  0.68358  1.0000
  H   H270      1.0  0.68645  0.37448  0.83789  1.0000
  H   H271      1.0  0.76047  0.47991  0.97743  1.0000
  C   C153      1.0  0.65611  0.33668  0.57097  1.0000
  C   C154      1.0  0.70863  0.51282  0.61657  1.0000
  S   S42       1.0  0.82974  0.31129  0.69178  1.0000
  C   C155      1.0  0.88398  0.42223  0.92145  1.0000
  H   H272      1.0  0.45052  0.35844  0.78145  1.0000
  S   S43       1.0  0.89945  0.60427  0.62086  1.0000
  H   H273      1.0  0.54146  0.38194  0.52736  1.0000
  C   C156      1.0  0.68432  0.34983  0.82229  1.0000
  H   H274      1.0  0.82909  0.38019  0.65728  1.0000
  H   H275      1.0  0.60653  0.31656  0.78777  1.0000
  H   H276      1.0  0.83776  0.36488  0.89602  1.0000
  H   H277      1.0  0.66527  0.56634  0.90391  1.0000
  H   H278      1.0  0.65513  0.57261  0.53910  1.0000
  C   C157      1.0  0.57628  0.62333  0.65199  1.0000
  C   C158      1.0  0.53090  0.43543  0.91903  1.0000
  C   C159      1.0  0.75036  0.61283  0.96274  1.0000
  Fe  Fe21      1.0  0.53512  0.54572  0.77783  1.0000
  C   C160      1.0  0.48443  0.39967  0.82426  1.0000
  C   C161      1.0  0.47003  0.58426  0.90473  1.0000
  S   S44       1.0  0.43526  0.59581  0.99809  1.0000
  H   H279      1.0  0.53578  0.54132  0.70458  1.0000
  H   H280      1.0  0.67822  0.29888  0.65146  1.0000
  Fe  Fe22      1.0  0.74434  0.49524  0.84228  1.0000
  H   H281      1.0  0.87318  0.44053  0.90581  1.0000
  H   H282      1.0  0.86277  0.57973  0.54587  1.0000
  H   H283      1.0  0.67546  0.31047  0.51490  1.0000
  Fe  Fe23      1.0  0.58926  0.60845  0.83115  1.0000
  H   H284      1.0  0.44701  0.54869  0.62563  1.0000
  H   H285      1.0  0.42912  0.45128  0.79573  1.0000
  C   C162      1.0  0.47160  0.44191  0.70392  1.0000
  H   H286      1.0  0.90950  0.30921  0.87302  1.0000
  C   C163      1.0  0.58962  0.59218  0.91709  1.0000
  H   H287      1.0  0.67932  0.45586  0.72862  1.0000
  H   H288      1.0  0.77765  0.39499  0.73252  1.0000
  H   H289      1.0  0.75376  0.32470  0.65811  1.0000
  H   H290      1.0  0.59559  0.51898  0.70001  1.0000
  H   H291      1.0  0.79640  0.39404  0.83181  1.0000
  H   H292      1.0  0.48831  0.47184  0.93574  1.0000
  C   C164      1.0  0.62427  0.59235  0.90299  1.0000
  H   H293      1.0  0.70336  0.53424  0.94398  1.0000
  C   C165      1.0  0.55800  0.34341  0.81332  1.0000
  H   H294      1.0  0.43866  0.49048  0.74386  1.0000
  N   N7        1.0  0.86676  0.41497  0.95634  1.0000
  H   H295      1.0  0.57013  0.43945  0.69994  1.0000
  C   C166      1.0  0.89029  0.48014  0.79043  1.0000
  H   H296      1.0  0.53005  0.37866  0.92209  1.0000
  H   H297      1.0  0.60129  0.44797  0.96612  1.0000
  H   H298      1.0  0.46957  0.45437  0.85771  1.0000
  C   C167      1.0  0.64883  0.45162  0.73764  1.0000
  H   H299      1.0  0.82515  0.55301  0.99028  1.0000
  C   C168      1.0  0.84044  0.57255  0.70932  1.0000
  H   H300      1.0  0.74717  0.49530  0.91737  1.0000
  H   H301      1.0  0.73249  0.34110  0.85468  1.0000
  H   H302      1.0  0.71534  0.48787  0.61966  1.0000
  C   C169      1.0  0.57215  0.56896  0.94538  1.0000
  C   C170      1.0  0.80163  0.54099  0.51981  1.0000
  S   S45       1.0  0.75403  0.55515  0.82899  1.0000
  H   H303      1.0  0.54522  0.56871  0.95606  1.0000
  H   H304      1.0  0.63282  0.52375  0.95334  1.0000
  H   H305      1.0  0.67672  0.62624  0.69783  1.0000
  H   H306      1.0  0.46350  0.41305  0.81989  1.0000
  H   H307      1.0  0.67249  0.46835  0.67259  1.0000
  H   H308      1.0  0.47264  0.37599  0.87582  1.0000
  S   S46       1.0  0.78700  0.42480  0.55632  1.0000
  H   H309      1.0  0.74020  0.61687  0.78456  1.0000
  C   C171      1.0  0.67626  0.30673  0.67811  1.0000
  H   H310      1.0  0.52429  0.39097  0.86321  1.0000
  H   H311      1.0  0.74597  0.42951  0.72122  1.0000
  S   S47       1.0  0.42924  0.56095  0.84001  1.0000
  C   C172      1.0  0.62299  0.52405  0.68515  1.0000
  C   C173      1.0  0.43184  0.57152  0.88379  1.0000
  H   H312      1.0  0.73086  0.32608  0.74284  1.0000
  C   C174      1.0  0.88671  0.48256  0.72825  1.0000
  C   C175      1.0  0.47795  0.44603  0.88340  1.0000
  C   C176      1.0  0.64205  0.48704  0.72719  1.0000
  C   C177      1.0  0.46483  0.46847  0.64863  1.0000
  H   H313      1.0  0.47785  0.34216  0.81276  1.0000
  N   N8        1.0  0.51553  0.43849  0.88241  1.0000
  H   H314      1.0  0.44173  0.49689  0.87967  1.0000
  C   C178      1.0  0.44466  0.48500  0.90523  1.0000
  H   H315      1.0  0.62230  0.42319  0.72695  1.0000
  H   H316      1.0  0.54584  0.60588  0.69940  1.0000
  H   H317      1.0  0.43093  0.31111  0.64054  1.0000
  Fe  Fe24      1.0  0.78387  0.54897  0.78300  1.0000
  C   C179      1.0  0.69034  0.43958  0.90648  1.0000
  C   C180      1.0  0.66655  0.50296  0.63151  1.0000
  Fe  Fe25      1.0  0.81958  0.57746  0.85565  1.0000
  H   H318      1.0  0.56827  0.59380  0.64441  1.0000
  H   H319      1.0  0.83449  0.60370  0.52634  1.0000
  H   H320      1.0  0.83879  0.37214  0.59717  1.0000
  H   H321      1.0  0.69611  0.35849  0.71087  1.0000
  C   C181      1.0  0.71505  0.62602  0.53141  1.0000
  H   H322      1.0  0.55496  0.36840  0.82310  1.0000
  C   C182      1.0  0.68177  0.29726  0.53872  1.0000
  H   H323      1.0  0.50281  0.41364  0.61684  1.0000
  H   H324      1.0  0.55391  0.32450  0.60688  1.0000
  H   H325      1.0  0.54070  0.37124  0.57223  1.0000
  H   H326      1.0  0.68583  0.36369  0.66612  1.0000
  H   H327      1.0  0.61062  0.47688  0.88582  1.0000
  H   H328      1.0  0.62381  0.29983  0.70773  1.0000
  H   H329      1.0  0.54621  0.47044  0.65578  1.0000
  Fe  Fe26      1.0  0.57123  0.58814  0.57082  1.0000
  Fe  Fe27      1.0  0.83214  0.51402  0.82331  1.0000
  S   S48       1.0  0.85636  0.49202  0.63227  1.0000
  H   H330      1.0  0.72663  0.38269  0.90966  1.0000
  C   C183      1.0  0.52189  0.37451  0.54966  1.0000
  C   C184      1.0  0.51267  0.51207  0.69497  1.0000
  S   S49       1.0  0.56723  0.51658  0.99461  1.0000
  H   H331      1.0  0.41443  0.49832  0.66917  1.0000
  H   H332      1.0  0.55962  0.34603  0.78507  1.0000
  C   C185      1.0  0.74457  0.37240  0.92761  1.0000
  H   H333      1.0  0.61557  0.30192  0.93385  1.0000
  N   N9        1.0  0.64565  0.31155  0.83051  1.0000
  H   H334      1.0  0.58867  0.39712  0.96694  1.0000
  S   S50       1.0  0.68387  0.44754  0.86250  1.0000
  S   S51       1.0  0.80772  0.51795  0.87265  1.0000
  H   H335      1.0  0.57791  0.46624  0.62498  1.0000
  H   H336      1.0  0.64481  0.36849  0.96546  1.0000
  C   C186      1.0  0.56091  0.45285  0.64803  1.0000
  C   C187      1.0  0.59104  0.45145  0.67825  1.0000
  H   H337      1.0  0.55105  0.41079  0.98111  1.0000
  H   H338      1.0  0.64452  0.59933  0.65971  1.0000
  H   H339      1.0  0.79915  0.36194  0.78019  1.0000
  H   H340      1.0  0.79872  0.32583  0.61183  1.0000
  H   H341      1.0  0.76446  0.40405  0.79934  1.0000
  C   C188      1.0  0.48392  0.47907  0.90861  1.0000
  C   C189      1.0  0.63984  0.56759  0.91591  1.0000
  C   C190      1.0  0.50144  0.47983  0.71627  1.0000
  S   S52       1.0  0.48913  0.49330  0.51934  1.0000
  H   H342      1.0  0.73575  0.53965  0.62936  1.0000
  C   C191      1.0  0.74523  0.43623  0.69357  1.0000
  C   C192      1.0  0.84331  0.58042  0.52268  1.0000
  H   H343      1.0  0.75615  0.49480  0.70496  1.0000
  C   C193      1.0  0.79249  0.40138  0.92800  1.0000
  H   H344      1.0  0.78150  0.61069  0.66897  1.0000
  H   H345      1.0  0.46273  0.62046  0.55821  1.0000
  H   H346      1.0  0.77909  0.61244  0.95446  1.0000
  H   H347      1.0  0.89483  0.30509  0.82787  1.0000
  H   H348      1.0  0.90378  0.59537  0.88968  1.0000
  H   H349      1.0  0.90666  0.37118  0.74206  1.0000
  H   H350      1.0  0.46497  0.62517  0.79219  1.0000
  C   C194      1.0  0.85858  0.62541  0.93127  1.0000
  H   H351      1.0  0.41486  0.45687  0.90850  1.0000
  H   H352      1.0  0.41204  0.62718  0.74915  1.0000
  H   H353      1.0  0.48465  0.29811  0.93685  1.0000
  H   H354      1.0  0.80846  0.51630  0.51693  1.0000
  H   H355      1.0  0.89687  0.34436  0.78113  1.0000
  C   C195      1.0  0.85246  0.74351  0.29947  1.0000
  C   C196      1.0  0.57268  0.85154  0.09100  1.0000
  H   H356      1.0  0.89770  0.70151  0.34865  1.0000
  C   C197      1.0  0.57355  0.86316  0.01986  1.0000
  H   H357      1.0  0.58781  0.81079  0.43094  1.0000
  H   H358      1.0  0.55765  0.80044  0.33517  1.0000
  H   H359      1.0  0.51494  0.68143  0.27578  1.0000
  H   H360      1.0  0.89258  0.82799  0.43354  1.0000
  H   H361      1.0  0.78601  0.91470  0.09506  1.0000
  C   C198      1.0  0.75452  0.88771  0.30851  1.0000
  H   H362      1.0  0.42054  0.69966  0.13134  1.0000
  H   H363      1.0  0.85508  0.85925  0.09968  1.0000
  H   H364      1.0  0.82508  0.79931  0.25599  1.0000
  Fe  Fe28      1.0  0.42939  0.83374  0.14860  1.0000
  H   H365      1.0  0.71499  0.71550  0.44680  1.0000
  H   H366      1.0  0.61117  0.74411  0.24610  1.0000
  H   H367      1.0  0.62488  0.78819  0.40186  1.0000
  H   H368      1.0  0.61592  0.91283  0.40422  1.0000
  H   H369      1.0  0.54386  0.77296  0.26187  1.0000
  S   S53       1.0  0.41231  0.71517  0.21591  1.0000
  C   C199      1.0  0.72237  0.80121  0.15900  1.0000
  C   C200      1.0  0.80893  0.65412  0.16827  1.0000
  H   H370      1.0  0.63696  0.86160  0.08903  1.0000
  H   H371      1.0  0.66246  0.79435  0.13611  1.0000
  S   S54       1.0  0.69629  0.87406  0.35526  1.0000
  C   C201      1.0  0.83365  0.70668  0.06096  1.0000
  H   H372      1.0  0.77919  0.67264  0.48767  1.0000
  C   C202      1.0  0.56833  0.81002  0.40702  1.0000
  H   H373      1.0  0.53306  0.89456  0.38094  1.0000
  H   H374      1.0  0.74440  0.72215  0.06795  1.0000
  C   C203      1.0  0.89599  0.68772  0.15029  1.0000
  H   H375      1.0  0.74209  0.67631  0.41426  1.0000
  C   C204      1.0  0.70763  0.69981  0.17666  1.0000
  N   N10       1.0  0.72302  0.67994  0.48717  1.0000
  C   C205      1.0  0.79181  0.76050  0.10695  1.0000
  C   C206      1.0  0.44657  0.92457  0.29347  1.0000
  H   H376      1.0  0.76039  0.64690  0.20222  1.0000
  C   C207      1.0  0.45732  0.89749  0.28061  1.0000
  C   C208      1.0  0.41291  0.91187  0.31484  1.0000
  H   H377      1.0  0.84069  0.66874  0.28821  1.0000
  C   C209      1.0  0.80897  0.82050  0.05992  1.0000
  S   S55       1.0  0.49904  0.91302  0.25379  1.0000
  C   C210      1.0  0.69537  0.68812  0.46062  1.0000
  H   H378      1.0  0.47383  0.76177  0.29645  1.0000
  H   H379      1.0  0.50354  0.81366  0.30853  1.0000
  C   C211      1.0  0.47533  0.93460  0.02135  1.0000
  H   H380      1.0  0.90248  0.78909  0.42180  1.0000
  H   H381      1.0  0.74493  0.86184  0.04917  1.0000
  H   H382      1.0  0.49814  0.93229  0.48990  1.0000
  H   H383      1.0  0.88593  0.69985  0.12747  1.0000
  H   H384      1.0  0.85039  0.89644  0.35691  1.0000
  H   H385      1.0  0.79344  0.71657  0.02240  1.0000
  H   H386      1.0  0.69995  0.84094  0.07554  1.0000
  H   H387      1.0  0.73773  0.72566  0.18473  1.0000
  H   H388      1.0  0.83246  0.69506  0.44403  1.0000
  H   H389      1.0  0.78065  0.72056  0.43578  1.0000
  C   C212      1.0  0.73532  0.85902  0.07583  1.0000
  H   H390      1.0  0.89083  0.81826  0.27750  1.0000
  Fe  Fe29      1.0  0.89519  0.95529  0.16012  1.0000
  H   H391      1.0  0.77318  0.81870  0.27653  1.0000
  C   C213      1.0  0.54066  0.86650  0.50111  1.0000
  C   C214      1.0  0.42582  0.67532  0.12339  1.0000
  H   H392      1.0  0.82408  0.81309  0.32016  1.0000
  H   H393      1.0  0.67519  0.94002  0.08669  1.0000
  S   S56       1.0  0.75608  0.90393  0.20619  1.0000
  S   S57       1.0  0.49573  0.88301  0.16117  1.0000
  H   H394      1.0  0.70113  0.90498  0.06135  1.0000
  H   H395      1.0  0.61580  0.84185  0.48558  1.0000
  C   C215      1.0  0.70508  0.64590  0.01732  1.0000
  H   H396      1.0  0.83830  0.71686  0.16820  1.0000
  C   C216      1.0  0.49684  0.84172  0.49269  1.0000
  H   H397      1.0  0.56544  0.89124  0.31074  1.0000
  Fe  Fe30      1.0  0.51494  0.83641  0.15910  1.0000
  H   H398      1.0  0.81988  0.69672  0.33616  1.0000
  N   N11       1.0  0.56006  0.77547  0.38453  1.0000
  H   H399      1.0  0.64764  0.72933  0.34006  1.0000
  H   H400      1.0  0.41484  0.91062  0.43409  1.0000
  H   H401      1.0  0.53837  0.80694  0.41574  1.0000
  H   H402      1.0  0.63222  0.66207  0.48128  1.0000
  Fe  Fe31      1.0  0.75132  0.84976  0.46627  1.0000
  H   H403      1.0  0.56393  0.86468  0.48656  1.0000
  H   H404      1.0  0.59224  0.78371  0.28881  1.0000
  C   C217      1.0  0.75053  0.89946  0.09234  1.0000
  H   H405      1.0  0.66185  0.80682  0.19524  1.0000
  H   H406      1.0  0.48742  0.85786  0.35509  1.0000
  H   H407      1.0  0.85603  0.69447  0.06309  1.0000
  H   H408      1.0  0.88601  0.76363  0.36175  1.0000
  H   H409      1.0  0.45655  0.72899  0.07168  1.0000
  H   H410      1.0  0.73509  0.78835  0.17922  1.0000
  H   H411      1.0  0.66801  0.71164  0.49649  1.0000
  C   C218      1.0  0.43509  0.94694  0.19786  1.0000
  H   H412      1.0  0.48014  0.91574  0.36204  1.0000
  H   H413      1.0  0.57615  0.78117  0.09417  1.0000
  H   H414      1.0  0.90605  0.93040  0.50849  1.0000
  H   H415      1.0  0.43594  0.81035  0.01584  1.0000
  C   C219      1.0  0.62971  0.63332  0.15542  1.0000
  H   H416      1.0  0.52898  0.68183  0.18404  1.0000
  C   C220      1.0  0.76911  0.75191  0.07448  1.0000
  H   H417      1.0  0.49478  0.67992  0.45045  1.0000
  C   C221      1.0  0.65756  0.69146  0.47387  1.0000
  H   H418      1.0  0.84806  0.77942  0.42480  1.0000
  H   H419      1.0  0.55923  0.73219  0.22715  1.0000
  H   H420      1.0  0.87591  0.91612  0.29874  1.0000
  C   C222      1.0  0.53648  0.85350  0.03617  1.0000
  H   H421      1.0  0.55014  0.66880  0.22213  1.0000
  H   H422      1.0  0.46255  0.94594  0.18775  1.0000
  C   C223      1.0  0.68647  0.88224  0.28689  1.0000
  H   H423      1.0  0.45565  0.68733  0.11011  1.0000
  H   H424      1.0  0.85016  0.74677  0.27114  1.0000
  C   C224      1.0  0.47918  0.78405  0.31640  1.0000
  C   C225      1.0  0.65424  0.77608  0.18966  1.0000
  H   H425      1.0  0.75079  0.78459  0.24041  1.0000
  C   C226      1.0  0.66668  0.94263  0.15657  1.0000
  C   C227      1.0  0.64847  0.66497  0.13342  1.0000
  S   S58       1.0  0.83241  0.90038  0.15038  1.0000
  H   H426      1.0  0.85316  0.63259  0.22516  1.0000
  C   C228      1.0  0.55160  0.75106  0.10043  1.0000
  C   C229      1.0  0.74039  0.89519  0.24784  1.0000
  H   H427      1.0  0.62612  0.68728  0.42261  1.0000
  C   C230      1.0  0.88680  0.64593  0.21855  1.0000
  C   C231      1.0  0.63697  0.70655  0.44602  1.0000
  C   C232      1.0  0.47435  0.89672  0.38454  1.0000
  H   H428      1.0  0.46803  0.74356  0.35736  1.0000
  H   H429      1.0  0.85439  0.82270  0.37550  1.0000
  H   H430      1.0  0.83710  0.69797  0.20994  1.0000
  C   C233      1.0  0.81450  0.70350  0.30910  1.0000
  H   H431      1.0  0.87990  0.76824  0.20975  1.0000
  C   C234      1.0  0.53669  0.77467  0.35037  1.0000
  H   H432      1.0  0.83230  0.75107  0.36531  1.0000
  C   C235      1.0  0.81763  0.78373  0.31063  1.0000
  C   C236      1.0  0.79998  0.77928  0.27241  1.0000
  S   S59       1.0  0.81724  0.89864  0.48183  1.0000
  H   H433      1.0  0.65190  0.82391  0.47721  1.0000
  H   H434      1.0  0.78356  0.70366  0.30597  1.0000
  C   C237      1.0  0.53603  0.84769  0.07182  1.0000
  H   H435      1.0  0.66986  0.77535  0.03882  1.0000
  C   C238      1.0  0.41353  0.82637  0.05904  1.0000
  H   H436      1.0  0.47033  0.63749  0.22588  1.0000
  Fe  Fe32      1.0  0.82125  0.91092  0.20329  1.0000
  H   H437      1.0  0.68064  0.66395  0.44066  1.0000
  H   H438      1.0  0.46660  0.67025  0.29581  1.0000
  H   H439      1.0  0.49206  0.71106  0.02766  1.0000
  H   H440      1.0  0.50770  0.84080  0.08457  1.0000
  C   C239      1.0  0.75145  0.66837  0.46960  1.0000
  H   H441      1.0  0.58994  0.80648  0.21309  1.0000
  H   H442      1.0  0.43961  0.87540  0.38362  1.0000
  H   H443      1.0  0.44238  0.83682  0.27890  1.0000
  H   H444      1.0  0.56923  0.85303  0.36926  1.0000
  H   H445      1.0  0.55883  0.73145  0.42011  1.0000
  H   H446      1.0  0.65485  0.87706  0.29130  1.0000
  H   H447      1.0  0.47753  0.69576  0.25582  1.0000
  C   C240      1.0  0.43287  0.65638  0.15617  1.0000
  H   H448      1.0  0.62215  0.93507  0.27546  1.0000
  H   H449      1.0  0.89733  0.84269  0.31673  1.0000
  C   C241      1.0  0.58090  0.75653  0.16280  1.0000
  C   C242      1.0  0.76411  0.64655  0.17434  1.0000
  H   H450      1.0  0.58406  0.82319  0.27176  1.0000
  H   H451      1.0  0.57204  0.87951  0.42817  1.0000
  H   H452      1.0  0.61964  0.80548  0.36028  1.0000
  C   C243      1.0  0.90541  0.69087  0.21469  1.0000
  N   N12       1.0  0.89042  0.70460  0.18269  1.0000
  H   H453      1.0  0.67581  0.95265  0.36763  1.0000
  H   H454      1.0  0.42285  0.65757  0.04265  1.0000
  C   C244      1.0  0.59051  0.85112  0.39062  1.0000
  C   C245      1.0  0.60160  0.79410  0.23455  1.0000
  H   H455      1.0  0.64577  0.92673  0.31480  1.0000
  C   C246      1.0  0.68716  0.66981  0.19974  1.0000
  H   H456      1.0  0.67092  0.76431  0.37561  1.0000
  S   S60       1.0  0.41458  0.81818  0.20295  1.0000
  C   C247      1.0  0.67335  0.77870  0.15504  1.0000
  H   H457      1.0  0.63008  0.77949  0.06095  1.0000
  H   H458      1.0  0.62080  0.85730  0.38047  1.0000
  H   H459      1.0  0.73584  0.76710  0.28274  1.0000
  H   H460      1.0  0.52303  0.93076  0.42652  1.0000
  C   C248      1.0  0.64851  0.75538  0.35201  1.0000
  H   H461      1.0  0.80014  0.67263  0.25989  1.0000
  C   C249      1.0  0.84412  0.69500  0.18332  1.0000
  H   H462      1.0  0.59736  0.78868  0.15788  1.0000
  H   H463      1.0  0.47192  0.89812  0.43896  1.0000
  H   H464      1.0  0.54863  0.63780  0.14985  1.0000
  Fe  Fe33      1.0  0.48282  0.86472  0.21539  1.0000
  H   H465      1.0  0.79256  0.64873  0.42347  1.0000
  C   C250      1.0  0.48842  0.92020  0.41915  1.0000
  H   H466      1.0  0.77435  0.64152  0.03039  1.0000
  H   H467      1.0  0.72785  0.66599  0.03801  1.0000
  H   H468      1.0  0.77565  0.88723  0.32971  1.0000
  C   C251      1.0  0.69989  0.88936  0.25375  1.0000
  N   N13       1.0  0.60683  0.74769  0.19059  1.0000
  H   H469      1.0  0.41733  0.92417  0.39098  1.0000
  H   H470      1.0  0.75250  0.92869  0.04560  1.0000
  H   H471      1.0  0.45964  0.67925  0.17304  1.0000
  H   H472      1.0  0.79075  0.76199  0.32510  1.0000
  C   C252      1.0  0.81009  0.66966  0.28691  1.0000
  H   H473      1.0  0.67282  0.76890  0.21013  1.0000
  H   H474      1.0  0.60753  0.70023  0.16298  1.0000
  S   S61       1.0  0.70858  0.67635  0.24254  1.0000
  H   H475      1.0  0.66339  0.74938  0.14422  1.0000
  C   C253      1.0  0.86282  0.77439  0.35601  1.0000
  H   H476      1.0  0.48013  0.74382  0.41427  1.0000
  C   C254      1.0  0.84500  0.94495  0.03979  1.0000
  H   H477      1.0  0.87467  0.65539  0.14803  1.0000
  Fe  Fe34      1.0  0.41297  0.78953  0.43694  1.0000
  C   C255      1.0  0.63486  0.76410  0.03959  1.0000
  H   H478      1.0  0.50874  0.85173  0.02147  1.0000
  H   H479      1.0  0.59949  0.73588  0.11776  1.0000
  C   C256      1.0  0.64900  0.63585  0.18877  1.0000
  H   H480      1.0  0.67057  0.67917  0.01392  1.0000
  H   H481      1.0  0.68879  0.90644  0.13472  1.0000
  H   H482      1.0  0.66018  0.73710  0.43927  1.0000
  C   C257      1.0  0.47445  0.69182  0.43823  1.0000
  S   S62       1.0  0.72614  0.89003  0.44851  1.0000
  C   C258      1.0  0.66388  0.64831  0.01737  1.0000
  C   C259      1.0  0.60914  0.85990  0.07439  1.0000
  H   H483      1.0  0.85142  0.73801  0.06987  1.0000
  N   N14       1.0  0.85707  0.77928  0.31790  1.0000
  H   H484      1.0  0.54707  0.70269  0.12995  1.0000
  Fe  Fe35      1.0  0.83097  0.89266  0.42811  1.0000
  C   C260      1.0  0.87736  0.81128  0.37922  1.0000
  H   H485      1.0  0.45446  0.67280  0.41581  1.0000
  H   H486      1.0  0.63623  0.81422  0.24090  1.0000
  S   S63       1.0  0.66059  0.65759  0.33004  1.0000
  C   C261      1.0  0.69361  0.64554  0.50805  1.0000
  C   C262      1.0  0.53603  0.73712  0.40297  1.0000
  C   C263      1.0  0.68853  0.69710  0.14341  1.0000
  H   H487      1.0  0.63787  0.87250  0.02612  1.0000
  C   C264      1.0  0.43429  0.85784  0.28891  1.0000
  C   C265      1.0  0.49315  0.77367  0.35130  1.0000
  H   H488      1.0  0.63574  0.93029  0.14049  1.0000
  H   H489      1.0  0.75025  0.84370  0.09076  1.0000
  H   H490      1.0  0.58231  0.73518  0.33645  1.0000
  H   H491      1.0  0.81566  0.84380  0.04201  1.0000
  C   C266      1.0  0.70016  0.93836  0.13799  1.0000
  H   H492      1.0  0.65003  0.63817  0.04236  1.0000
  C   C267      1.0  0.63451  0.82826  0.49737  1.0000
  C   C268      1.0  0.77827  0.78167  0.05058  1.0000
  Fe  Fe36      1.0  0.44131  0.77749  0.19752  1.0000
  H   H493      1.0  0.45141  0.94759  0.09545  1.0000
  C   C269      1.0  0.45633  0.63333  0.25090  1.0000
  C   C270      1.0  0.47574  0.72861  0.02110  1.0000
  C   C271      1.0  0.88017  0.80116  0.41707  1.0000
  C   C272      1.0  0.76776  0.89426  0.27511  1.0000
  H   H494      1.0  0.51832  0.75255  0.45035  1.0000
  H   H495      1.0  0.88120  0.65963  0.48730  1.0000
  C   C273      1.0  0.50198  0.73397  0.42681  1.0000
  C   C274      1.0  0.60340  0.74489  0.36066  1.0000
  C   C275      1.0  0.54147  0.63401  0.17719  1.0000
  H   H496      1.0  0.70368  0.72107  0.12601  1.0000
  C   C276      1.0  0.89971  0.63075  0.42505  1.0000
  H   H497      1.0  0.67875  0.88999  0.23259  1.0000
  H   H498      1.0  0.77103  0.76401  0.47537  1.0000
  C   C277      1.0  0.88422  0.90974  0.35343  1.0000
  S   S64       1.0  0.61989  0.66833  0.09606  1.0000
  S   S65       1.0  0.54548  0.64786  0.33451  1.0000
  H   H499      1.0  0.44529  0.84607  0.07069  1.0000
  H   H500      1.0  0.78480  0.73725  0.12515  1.0000
  C   C278      1.0  0.48043  0.67256  0.27091  1.0000
  H   H501      1.0  0.43466  0.96065  0.01699  1.0000
  C   C279      1.0  0.60337  0.78057  0.37763  1.0000
  H   H502      1.0  0.60873  0.70666  0.45560  1.0000
  H   H503      1.0  0.42613  0.73833  0.03779  1.0000
  H   H504      1.0  0.49189  0.85249  0.40087  1.0000
  Fe  Fe37      1.0  0.86562  0.86961  0.17575  1.0000
  H   H505      1.0  0.81001  0.65305  0.13999  1.0000
  H   H506      1.0  0.75809  0.66924  0.16148  1.0000
  H   H507      1.0  0.45264  0.69119  0.45711  1.0000
  H   H508      1.0  0.90964  0.83507  0.37370  1.0000
  C   C280      1.0  0.57074  0.73428  0.12769  1.0000
  H   H509      1.0  0.73013  0.95175  0.15518  1.0000
  C   C281      1.0  0.55309  0.67338  0.19411  1.0000
  C   C282      1.0  0.89860  0.92066  0.32052  1.0000
  C   C283      1.0  0.82264  0.79922  0.11621  1.0000
  H   H510      1.0  0.61907  0.73209  0.04489  1.0000
  H   H511      1.0  0.58918  0.92552  0.34687  1.0000
  H   H512      1.0  0.49995  0.76042  0.02303  1.0000
  H   H513      1.0  0.73502  0.79922  0.13461  1.0000
  S   S66       1.0  0.50882  0.82274  0.21508  1.0000
  H   H514      1.0  0.56620  0.93796  0.30905  1.0000
  H   H515      1.0  0.52039  0.71187  0.38412  1.0000
  S   S67       1.0  0.84917  0.87539  0.22859  1.0000
  H   H516      1.0  0.79925  0.89910  0.27054  1.0000
  C   C284      1.0  0.81537  0.70399  0.02374  1.0000
  S   S68       1.0  0.48013  0.80765  0.45867  1.0000
  C   C285      1.0  0.57895  0.79325  0.26623  1.0000
  C   C286      1.0  0.76269  0.78805  0.26794  1.0000
  H   H517      1.0  0.52988  0.74844  0.33463  1.0000
  H   H518      1.0  0.73895  0.89521  0.11827  1.0000
  H   H519      1.0  0.49434  0.79482  0.37041  1.0000
  C   C287      1.0  0.86870  0.95437  0.07184  1.0000
  S   S69       1.0  0.71324  0.79833  0.49870  1.0000
  H   H520      1.0  0.62168  0.70177  0.20706  1.0000
  C   C288      1.0  0.59936  0.70607  0.18807  1.0000
  S   S70       1.0  0.57415  0.84622  0.13571  1.0000
  C   C289      1.0  0.83100  0.82930  0.09277  1.0000
  H   H521      1.0  0.62500  0.88475  0.43761  1.0000
  H   H522      1.0  0.44884  0.78469  0.31820  1.0000
  H   H523      1.0  0.52365  0.75216  0.10947  1.0000
  C   C290      1.0  0.70584  0.95801  0.10255  1.0000
  C   C291      1.0  0.58849  0.96147  0.07685  1.0000
  H   H524      1.0  0.66125  0.92636  0.18095  1.0000
  H   H525      1.0  0.89764  0.70108  0.23809  1.0000
  H   H526      1.0  0.54927  0.74998  0.17142  1.0000
  C   C292      1.0  0.44099  0.71974  0.04541  1.0000
  C   C293      1.0  0.59402  0.75249  0.22531  1.0000
  H   H527      1.0  0.59243  0.71967  0.37821  1.0000
  H   H528      1.0  0.54136  0.73244  0.07674  1.0000
  H   H529      1.0  0.80906  0.74647  0.48616  1.0000
  S   S71       1.0  0.44943  0.78818  0.14121  1.0000
  H   H530      1.0  0.66071  0.77982  0.33354  1.0000
  C   C294      1.0  0.71387  0.88180  0.31423  1.0000
  S   S72       1.0  0.81207  0.93579  0.40572  1.0000
  H   H531      1.0  0.81385  0.69321  0.39946  1.0000
  H   H532      1.0  0.78497  0.64131  0.29635  1.0000
  S   S73       1.0  0.76685  0.83938  0.41440  1.0000
  C   C295      1.0  0.76839  0.68847  0.43515  1.0000
  H   H533      1.0  0.73428  0.83268  0.16552  1.0000
  C   C296      1.0  0.80405  0.68088  0.42503  1.0000
  C   C297      1.0  0.60966  0.86596  0.03896  1.0000
  H   H534      1.0  0.78778  0.74882  0.26259  1.0000
  H   H535      1.0  0.57017  0.92964  0.06995  1.0000
  H   H536      1.0  0.82655  0.91456  0.03112  1.0000
  H   H537      1.0  0.80737  0.69028  0.07791  1.0000
  Fe  Fe38      1.0  0.74635  0.88354  0.39757  1.0000
  C   C298      1.0  0.60141  0.88393  0.41689  1.0000
  H   H538      1.0  0.74455  0.95372  0.38533  1.0000
  S   S74       1.0  0.85019  0.80957  0.15719  1.0000
  C   C299      1.0  0.49822  0.87397  0.38024  1.0000
  H   H539      1.0  0.86946  0.93134  0.08722  1.0000
  C   C300      1.0  0.73560  0.92407  0.06943  1.0000
  C   C301      1.0  0.62789  0.94136  0.30359  1.0000
  H   H540      1.0  0.44831  0.93317  0.48552  1.0000
  H   H541      1.0  0.89175  0.65417  0.43036  1.0000
  H   H542      1.0  0.55899  0.95346  0.12398  1.0000
  H   H543      1.0  0.59053  0.76606  0.49174  1.0000
  H   H544      1.0  0.88181  0.74076  0.30505  1.0000
  C   C302      1.0  0.78472  0.75251  0.49608  1.0000
  C   C303      1.0  0.58443  0.92289  0.31849  1.0000
  H   H545      1.0  0.46422  0.95527  0.28688  1.0000
  C   C304      1.0  0.89512  0.81550  0.30572  1.0000
  Fe  Fe39      1.0  0.79371  0.93818  0.45851  1.0000
  C   C305      1.0  0.43046  0.93642  0.41735  1.0000
  H   H546      1.0  0.89673  0.71471  0.40999  1.0000
  H   H547      1.0  0.46659  0.63138  0.36127  1.0000
  H   H548      1.0  0.46340  0.91895  0.04547  1.0000
  H   H549      1.0  0.84077  0.95793  0.32401  1.0000
  H   H550      1.0  0.43307  0.82391  0.50587  1.0000
  H   H551      1.0  0.88805  0.63124  0.19506  1.0000
  H   H552      1.0  0.70234  0.94408  0.01532  1.0000
  H   H553      1.0  0.73364  0.63638  0.46265  1.0000
  S   S75       1.0  0.89685  0.90190  0.42290  1.0000
  H   H554      1.0  0.44555  0.96074  0.22398  1.0000
  H   H555      1.0  0.44094  0.63313  0.15001  1.0000
  N   N15       1.0  0.47854  0.95365  0.42046  1.0000
  C   C306      1.0  0.48361  0.95178  0.48671  1.0000
  H   H556      1.0  0.90853  0.64824  0.27270  1.0000
  Fe  Fe40      1.0  0.65956  0.63602  0.27705  1.0000
  H   H557      1.0  0.90128  0.64195  0.37042  1.0000
  H   H558      1.0  0.81283  0.62962  0.17937  1.0000
  C   C307      1.0  0.55652  0.93608  0.77792  1.0000
  C   C308      1.0  0.90187  0.69898  0.78142  1.0000
  C   C309      1.0  0.79224  0.71131  0.89140  1.0000
  H   H559      1.0  0.54195  0.75564  0.81465  1.0000
  H   H560      1.0  0.62600  0.78070  0.53016  1.0000
  H   H561      1.0  0.73921  0.82663  0.73579  1.0000
  C   C310      1.0  0.59720  0.69981  0.67159  1.0000
  H   H562      1.0  0.62009  0.88944  0.66136  1.0000
  H   H563      1.0  0.86899  0.69256  0.53540  1.0000
  H   H564      1.0  0.81100  0.66900  0.72224  1.0000
  H   H565      1.0  0.88978  0.67183  0.76522  1.0000
  H   H566      1.0  0.75351  0.63628  0.82834  1.0000
  H   H567      1.0  0.79050  0.70444  0.80615  1.0000
  H   H568      1.0  0.66117  0.77160  0.97276  1.0000
  C   C311      1.0  0.67095  0.72124  0.83018  1.0000
  H   H569      1.0  0.82659  0.77611  0.54316  1.0000
  H   H570      1.0  0.52882  0.67979  0.58169  1.0000
  H   H571      1.0  0.59265  0.85314  0.91162  1.0000
  H   H572      1.0  0.73441  0.68582  0.67254  1.0000
  C   C312      1.0  0.52463  0.74611  0.68300  1.0000
  H   H573      1.0  0.78699  0.79202  0.53618  1.0000
  H   H574      1.0  0.69555  0.70112  0.65937  1.0000
  H   H575      1.0  0.67627  0.65469  0.52499  1.0000
  C   C313      1.0  0.60070  0.65499  0.63148  1.0000
  C   C314      1.0  0.82689  0.67513  0.79235  1.0000
  S   S76       1.0  0.84983  0.63317  0.88782  1.0000
  C   C315      1.0  0.61566  0.77147  0.00566  1.0000
  H   H576      1.0  0.67157  0.79417  0.69915  1.0000
  C   C316      1.0  0.90365  0.70429  0.54308  1.0000
  H   H577      1.0  0.81737  0.65306  0.00551  1.0000
  H   H578      1.0  0.81970  0.68270  0.94867  1.0000
  C   C317      1.0  0.76257  0.91454  0.80420  1.0000
  C   C318      1.0  0.87150  0.88855  0.58260  1.0000
  H   H579      1.0  0.44158  0.76053  0.74174  1.0000
  C   C319      1.0  0.62593  0.75379  0.97491  1.0000
  C   C320      1.0  0.55445  0.89379  0.52842  1.0000
  H   H580      1.0  0.87916  0.85783  0.62761  1.0000
  S   S77       1.0  0.83941  0.87400  0.97623  1.0000
  H   H581      1.0  0.89188  0.74918  0.73984  1.0000
  H   H582      1.0  0.75214  0.73662  0.66247  1.0000
  C   C321      1.0  0.70845  0.78117  0.56640  1.0000
  C   C322      1.0  0.85717  0.85153  0.60396  1.0000
  H   H583      1.0  0.89265  0.66650  0.82928  1.0000
  C   C323      1.0  0.71887  0.79047  0.60146  1.0000
  H   H584      1.0  0.65444  0.76090  0.91183  1.0000
  S   S78       1.0  0.80698  0.90031  0.90452  1.0000
  N   N16       1.0  0.60147  0.75126  0.94076  1.0000
  H   H585      1.0  0.83279  0.81234  0.51134  1.0000
  C   C324      1.0  0.87692  0.90217  0.84005  1.0000
  H   H586      1.0  0.45886  0.79489  0.57160  1.0000
  Fe  Fe41      1.0  0.45313  0.86054  0.89591  1.0000
  C   C325      1.0  0.72462  0.71872  0.71185  1.0000
  C   C326      1.0  0.72419  0.65745  0.98205  1.0000
  H   H587      1.0  0.69798  0.64006  0.96187  1.0000
  H   H588      1.0  0.80431  0.94851  0.53624  1.0000
  H   H589      1.0  0.60774  0.68044  0.89580  1.0000
  H   H590      1.0  0.83125  0.66719  0.81934  1.0000
  Fe  Fe42      1.0  0.46142  0.90104  0.68912  1.0000
  H   H591      1.0  0.60182  0.74974  0.57837  1.0000
  H   H592      1.0  0.43235  0.64106  0.81210  1.0000
  C   C327      1.0  0.60131  0.83984  0.89109  1.0000
  H   H593      1.0  0.50291  0.63945  0.52767  1.0000
  C   C328      1.0  0.43653  0.88909  0.81114  1.0000
  H   H594      1.0  0.58054  0.79732  0.76679  1.0000
  C   C329      1.0  0.44768  0.70910  0.69912  1.0000
  H   H595      1.0  0.70892  0.76706  0.61981  1.0000
  H   H596      1.0  0.63672  0.82119  0.58294  1.0000
  H   H597      1.0  0.71225  0.81658  0.77316  1.0000
  C   C330      1.0  0.41066  0.73567  0.73093  1.0000
  H   H598      1.0  0.49668  0.76843  0.71599  1.0000
  H   H599      1.0  0.66200  0.83343  0.64273  1.0000
  S   S79       1.0  0.50997  0.85301  0.88836  1.0000
  H   H600      1.0  0.76609  0.70708  0.53269  1.0000
  C   C331      1.0  0.66772  0.83759  0.72872  1.0000
  C   C332      1.0  0.61857  0.69754  0.92050  1.0000
  N   N17       1.0  0.86748  0.71060  0.78254  1.0000
  H   H601      1.0  0.58241  0.82017  0.54315  1.0000
  S   S80       1.0  0.47045  0.74973  0.84838  1.0000
  C   C333      1.0  0.74929  0.71485  0.51146  1.0000
  H   H602      1.0  0.75620  0.87387  0.53534  1.0000
  H   H603      1.0  0.67970  0.70654  0.76920  1.0000
  H   H604      1.0  0.45722  0.64759  0.52223  1.0000
  S   S81       1.0  0.80904  0.90698  0.73271  1.0000
  C   C334      1.0  0.69134  0.90732  0.79874  1.0000
  H   H605      1.0  0.46457  0.81218  0.81354  1.0000
  Fe  Fe43      1.0  0.80169  0.90470  0.96044  1.0000
  H   H606      1.0  0.73148  0.68858  0.97850  1.0000
  H   H607      1.0  0.83456  0.81115  0.81092  1.0000
  H   H608      1.0  0.82453  0.84151  0.61180  1.0000
  S   S82       1.0  0.49368  0.83594  0.63872  1.0000
  Fe  Fe44      1.0  0.77506  0.81928  0.97224  1.0000
  H   H609      1.0  0.77762  0.68492  0.76292  1.0000
  C   C335      1.0  0.86093  0.72489  0.74758  1.0000
  H   H610      1.0  0.65047  0.95149  0.62851  1.0000
  C   C336      1.0  0.55558  0.80090  0.77722  1.0000
  H   H611      1.0  0.85578  0.75297  0.80789  1.0000
  H   H612      1.0  0.54933  0.70056  0.96294  1.0000
  C   C337      1.0  0.52441  0.89517  0.54811  1.0000
  H   H613      1.0  0.86103  0.92597  0.79461  1.0000
  C   C338      1.0  0.66746  0.95523  0.87979  1.0000
  Fe  Fe45      1.0  0.51499  0.86007  0.69261  1.0000
  C   C339      1.0  0.44078  0.65530  0.75791  1.0000
  H   H614      1.0  0.42881  0.87140  0.75833  1.0000
  C   C340      1.0  0.76625  0.67675  0.91410  1.0000
  H   H615      1.0  0.74327  0.79574  0.81975  1.0000
  C   C341      1.0  0.61122  0.69321  0.64127  1.0000
  H   H616      1.0  0.90858  0.88087  0.54632  1.0000
  H   H617      1.0  0.50529  0.74844  0.59673  1.0000
  H   H618      1.0  0.43894  0.72089  0.67550  1.0000
  H   H619      1.0  0.79558  0.77079  0.83467  1.0000
  H   H620      1.0  0.65841  0.84861  0.51754  1.0000
  H   H621      1.0  0.64044  0.77556  0.73579  1.0000
  H   H622      1.0  0.75233  0.74564  0.78086  1.0000
  S   S83       1.0  0.55903  0.67705  0.73157  1.0000
  H   H623      1.0  0.84690  0.88214  0.56077  1.0000
  H   H624      1.0  0.82557  0.68897  0.66295  1.0000
  H   H625      1.0  0.43093  0.86086  0.82080  1.0000
  H   H626      1.0  0.50916  0.71717  0.51681  1.0000
  N   N18       1.0  0.54915  0.75893  0.55756  1.0000
  S   S84       1.0  0.43605  0.88197  0.63430  1.0000
  H   H627      1.0  0.52377  0.91495  0.82400  1.0000
  H   H628      1.0  0.53346  0.67592  0.90497  1.0000
  H   H629      1.0  0.66642  0.90937  0.56358  1.0000
  C   C342      1.0  0.60931  0.79222  0.93234  1.0000
  H   H630      1.0  0.58833  0.91314  0.53484  1.0000
  C   C343      1.0  0.63578  0.80341  0.63521  1.0000
  H   H631      1.0  0.74262  0.64779  0.54825  1.0000
  C   C344      1.0  0.73371  0.92624  0.78980  1.0000
  Fe  Fe46      1.0  0.55169  0.62968  0.76832  1.0000
  S   S85       1.0  0.69094  0.82650  0.86565  1.0000
  H   H632      1.0  0.77450  0.70647  0.86573  1.0000
  C   C345      1.0  0.65318  0.90321  0.65311  1.0000
  H   H633      1.0  0.48267  0.68667  0.57784  1.0000
  H   H634      1.0  0.82393  0.71365  0.88831  1.0000
  C   C346      1.0  0.84321  0.69366  0.71783  1.0000
  C   C347      1.0  0.67524  0.73274  0.76540  1.0000
  C   C348      1.0  0.72682  0.71015  0.67426  1.0000
  C   C349      1.0  0.53356  0.77713  0.80406  1.0000
  N   N19       1.0  0.41537  0.69977  0.72519  1.0000
  C   C350      1.0  0.55423  0.72349  0.94355  1.0000
  C   C351      1.0  0.47346  0.75280  0.54871  1.0000
  C   C352      1.0  0.51089  0.83166  0.77594  1.0000
  H   H635      1.0  0.81843  0.72536  0.68504  1.0000
  Fe  Fe47      1.0  0.41656  0.79210  0.94374  1.0000
  H   H636      1.0  0.64018  0.83502  0.71153  1.0000
  Fe  Fe48      1.0  0.79861  0.90206  0.67546  1.0000
  H   H637      1.0  0.63654  0.85671  0.88969  1.0000
  H   H638      1.0  0.65877  0.67190  0.93641  1.0000
  C   C353      1.0  0.74737  0.64255  0.80121  1.0000
  C   C354      1.0  0.76952  0.80254  0.80334  1.0000
  Fe  Fe49      1.0  0.87675  0.95193  0.72505  1.0000
  S   S86       1.0  0.44830  0.84114  0.70592  1.0000
  H   H639      1.0  0.56486  0.74323  0.60807  1.0000
  H   H640      1.0  0.65196  0.68872  0.82706  1.0000
  C   C355      1.0  0.58151  0.76204  0.58640  1.0000
  H   H641      1.0  0.69760  0.86329  0.72100  1.0000
  H   H642      1.0  0.62017  0.72404  0.98269  1.0000
  H   H643      1.0  0.84597  0.89154  0.84956  1.0000
  S   S87       1.0  0.44564  0.94079  0.71857  1.0000
  Fe  Fe50      1.0  0.83862  0.86428  0.91981  1.0000
  H   H644      1.0  0.53895  0.73979  0.95365  1.0000
  C   C356      1.0  0.72267  0.81115  0.54248  1.0000
  C   C357      1.0  0.67034  0.79972  0.72657  1.0000
  H   H645      1.0  0.87218  0.91174  0.59895  1.0000
  H   H646      1.0  0.66242  0.73013  0.85380  1.0000
  C   C358      1.0  0.67764  0.87578  0.82136  1.0000
  Fe  Fe51      1.0  0.50352  0.89628  0.62701  1.0000
  C   C359      1.0  0.74902  0.88347  0.82706  1.0000
  C   C360      1.0  0.78890  0.68273  0.95090  1.0000
  H   H647      1.0  0.68754  0.95727  0.70366  1.0000
  H   H648      1.0  0.70544  0.72991  0.83340  1.0000
  H   H649      1.0  0.69038  0.75063  0.55785  1.0000
  C   C361      1.0  0.75561  0.86001  0.58909  1.0000
  S   S88       1.0  0.75634  0.83955  0.65698  1.0000
  H   H650      1.0  0.55610  0.71485  0.53012  1.0000
  H   H651      1.0  0.77390  0.89044  0.59787  1.0000
  H   H652      1.0  0.51424  0.95003  0.94238  1.0000
  C   C362      1.0  0.60545  0.78865  0.51287  1.0000
  H   H653      1.0  0.78186  0.83328  0.79454  1.0000
  C   C363      1.0  0.44449  0.91952  0.83399  1.0000
  H   H654      1.0  0.81972  0.64868  0.77666  1.0000
  H   H655      1.0  0.64441  0.81276  0.93207  1.0000
  H   H656      1.0  0.50683  0.73047  0.73409  1.0000
  H   H657      1.0  0.53468  0.71915  0.88737  1.0000
  H   H658      1.0  0.46070  0.66307  0.89151  1.0000
  H   H659      1.0  0.41438  0.75539  0.54743  1.0000
  H   H660      1.0  0.61335  0.79248  0.65566  1.0000
  C   C364      1.0  0.44377  0.93186  0.76289  1.0000
  H   H661      1.0  0.52325  0.71798  0.67592  1.0000
  H   H662      1.0  0.60481  0.73607  0.88825  1.0000
  S   S89       1.0  0.77958  0.94894  0.67001  1.0000
  H   H663      1.0  0.84261  0.72260  0.00826  1.0000
  C   C365      1.0  0.62048  0.73801  0.91432  1.0000
  C   C366      1.0  0.61219  0.80425  0.60116  1.0000
  C   C367      1.0  0.50582  0.68338  0.56307  1.0000
  H   H664      1.0  0.76280  0.64993  0.90142  1.0000
  C   C368      1.0  0.88530  0.65766  0.95311  1.0000
  H   H665      1.0  0.46624  0.66187  0.74055  1.0000
  H   H666      1.0  0.62506  0.72786  0.79624  1.0000
  Fe  Fe52      1.0  0.74568  0.84327  0.90586  1.0000
  H   H667      1.0  0.86487  0.68130  0.71483  1.0000
  H   H668      1.0  0.43237  0.74621  0.58942  1.0000
  H   H669      1.0  0.66870  0.91587  0.78713  1.0000
  H   H670      1.0  0.79708  0.73933  0.90263  1.0000
  C   C369      1.0  0.57406  0.66833  0.69272  1.0000
  H   H671      1.0  0.63000  0.80389  0.00328  1.0000
  H   H672      1.0  0.58497  0.91656  0.84528  1.0000
  C   C370      1.0  0.80912  0.78515  0.52345  1.0000
  H   H673      1.0  0.67382  0.89729  0.67237  1.0000
  H   H674      1.0  0.60523  0.72933  0.67919  1.0000
  H   H675      1.0  0.48663  0.67642  0.80319  1.0000
  H   H676      1.0  0.51628  0.75890  0.65995  1.0000
  H   H677      1.0  0.45757  0.71519  0.77191  1.0000
  C   C371      1.0  0.67129  0.94745  0.64900  1.0000
  C   C372      1.0  0.54321  0.82723  0.76238  1.0000
  H   H678      1.0  0.79553  0.92975  0.79801  1.0000
  N   N20       1.0  0.76317  0.65322  0.97702  1.0000
  H   H679      1.0  0.66241  0.84252  0.75525  1.0000
  H   H680      1.0  0.85665  0.82739  0.58895  1.0000
  Fe  Fe53      1.0  0.46278  0.78850  0.88515  1.0000
  H   H681      1.0  0.58539  0.84214  0.86621  1.0000
  C   C373      1.0  0.66229  0.70160  0.93261  1.0000
  C   C374      1.0  0.89007  0.65220  0.98838  1.0000
  H   H682      1.0  0.48065  0.76822  0.52407  1.0000
  S   S90       1.0  0.73739  0.85082  0.96083  1.0000
  H   H683      1.0  0.75553  0.72496  0.72586  1.0000
  H   H684      1.0  0.45740  0.87115  0.55535  1.0000
  H   H685      1.0  0.52546  0.92685  0.76267  1.0000
  C   C375      1.0  0.68443  0.92880  0.54282  1.0000
  H   H686      1.0  0.67479  0.92277  0.92384  1.0000
  H   H687      1.0  0.47065  0.70650  0.91494  1.0000
  H   H688      1.0  0.55794  0.76710  0.69318  1.0000
  H   H689      1.0  0.59486  0.67933  0.93881  1.0000
  C   C376      1.0  0.45711  0.64925  0.79359  1.0000
  C   C377      1.0  0.56973  0.79025  0.53142  1.0000
  C   C378      1.0  0.88531  0.92137  0.80862  1.0000
  C   C379      1.0  0.48994  0.80898  0.80347  1.0000
  S   S91       1.0  0.55089  0.63997  0.82447  1.0000
  C   C380      1.0  0.42959  0.68896  0.75912  1.0000
  S   S92       1.0  0.61876  0.64716  0.59384  1.0000
  S   S93       1.0  0.56405  0.85050  0.72427  1.0000
  C   C381      1.0  0.48070  0.64549  0.54137  1.0000
  H   H690      1.0  0.78238  0.78717  0.75554  1.0000
  S   S94       1.0  0.44683  0.91303  0.87847  1.0000
  C   C382      1.0  0.83947  0.71201  0.68367  1.0000
  H   H691      1.0  0.47034  0.66559  0.93771  1.0000
  H   H692      1.0  0.52812  0.79627  0.58023  1.0000
  H   H693      1.0  0.79783  0.71313  0.95943  1.0000
  H   H694      1.0  0.72824  0.72312  0.52434  1.0000
  C   C383      1.0  0.71632  0.75408  0.71498  1.0000
  S   S95       1.0  0.77738  0.80652  0.91695  1.0000
  H   H695      1.0  0.67272  0.77211  0.80546  1.0000
  C   C384      1.0  0.44299  0.76290  0.56550  1.0000
  S   S96       1.0  0.45970  0.85669  0.95303  1.0000
  C   C385      1.0  0.47932  0.68282  0.91396  1.0000
  H   H696      1.0  0.59457  0.82031  0.60570  1.0000
  H   H697      1.0  0.44752  0.68190  0.69055  1.0000
  S   S97       1.0  0.57638  0.87325  0.97593  1.0000
  H   H698      1.0  0.64457  0.86031  0.82735  1.0000
  H   H699      1.0  0.81488  0.82071  0.84843  1.0000
  H   H700      1.0  0.45464  0.95623  0.97729  1.0000
  H   H701      1.0  0.87167  0.73503  0.67698  1.0000
  H   H702      1.0  0.70395  0.95976  0.64032  1.0000
  H   H703      1.0  0.54551  0.78831  0.51072  1.0000
  H   H704      1.0  0.88108  0.73244  0.83526  1.0000
  S   S98       1.0  0.86808  0.94230  0.66785  1.0000
  H   H705      1.0  0.69849  0.69167  0.72206  1.0000
  C   C386      1.0  0.88027  0.74327  0.80875  1.0000
  C   C387      1.0  0.46680  0.84364  0.51196  1.0000
  C   C388      1.0  0.70671  0.86420  0.83584  1.0000
  C   C389      1.0  0.74255  0.82978  0.61287  1.0000
  H   H706      1.0  0.64724  0.72192  0.74605  1.0000
  C   C390      1.0  0.48059  0.87000  0.54008  1.0000
  S   S99       1.0  0.54196  0.92758  0.58332  1.0000
  H   H707      1.0  0.73396  0.67390  0.91470  1.0000
  C   C391      1.0  0.50037  0.78089  0.81679  1.0000
  H   H708      1.0  0.63848  0.95500  0.68981  1.0000
  H   H709      1.0  0.63019  0.71753  0.62532  1.0000
  C   C392      1.0  0.74574  0.85064  0.55377  1.0000
  H   H710      1.0  0.68615  0.74608  0.69872  1.0000
  C   C393      1.0  0.78602  0.67967  0.78969  1.0000
  Fe  Fe54      1.0  0.42815  0.82342  0.65065  1.0000
  Fe  Fe55      1.0  0.51268  0.84412  0.94507  1.0000
  C   C394      1.0  0.80586  0.80105  0.82554  1.0000
  H   H711      1.0  0.68553  0.71651  0.91305  1.0000
  C   C395      1.0  0.53037  0.71911  0.54006  1.0000
  C   C396      1.0  0.51504  0.76479  0.57251  1.0000
  S   S100      1.0  0.47028  0.77879  0.94126  1.0000
  H   H712      1.0  0.56627  0.91338  0.77478  1.0000
  H   H713      1.0  0.55165  0.78149  0.89972  1.0000
  H   H714      1.0  0.89717  0.64777  0.55408  1.0000
  C   C397      1.0  0.52726  0.70052  0.91027  1.0000
  C   C398      1.0  0.90828  0.89619  0.85861  1.0000
  S   S101      1.0  0.75187  0.76929  0.00901  1.0000
  H   H715      1.0  0.59419  0.78458  0.87583  1.0000
  H   H716      1.0  0.65220  0.88969  0.62812  1.0000
  H   H717      1.0  0.77119  0.87394  0.83745  1.0000
  C   C399      1.0  0.49456  0.73973  0.71078  1.0000
  H   H718      1.0  0.65036  0.78426  0.63322  1.0000
  H   H719      1.0  0.83966  0.73817  0.74826  1.0000
  H   H720      1.0  0.67541  0.71844  0.95726  1.0000
  C   C400      1.0  0.43590  0.89523  0.77565  1.0000
  S   S102      1.0  0.52990  0.92138  0.68001  1.0000
  H   H721      1.0  0.71872  0.64670  0.79941  1.0000
  C   C401      1.0  0.71075  0.80353  0.74783  1.0000
  H   H722      1.0  0.59808  0.80396  0.95246  1.0000
  H   H723      1.0  0.45587  0.72068  0.54291  1.0000
  H   H724      1.0  0.50167  0.85236  0.76512  1.0000
  Fe  Fe56      1.0  0.79533  0.95707  0.72691  1.0000
  N   N21       1.0  0.71391  0.76623  0.75092  1.0000
  H   H725      1.0  0.66407  0.91817  0.51819  1.0000
  H   H726      1.0  0.74222  0.77932  0.70234  1.0000
  C   C402      1.0  0.58688  0.79658  0.89819  1.0000
  C   C403      1.0  0.75478  0.77395  0.77185  1.0000
  C   C404      1.0  0.66055  0.74076  0.79926  1.0000
  S   S103      1.0  0.89849  0.87212  0.89801  1.0000
  H   H727      1.0  0.54713  0.93422  0.89424  1.0000
  H   H728      1.0  0.48492  0.91706  0.00589  1.0000
  C   C405      1.0  0.55225  0.94170  0.81574  1.0000
  H   H729      1.0  0.90163  0.68695  0.94288  1.0000
  H   H730      1.0  0.46139  0.72115  0.99419  1.0000
  C   C406      1.0  0.59247  0.94722  0.83870  1.0000
  H   H731      1.0  0.65317  0.92964  0.86152  1.0000
  H   H732      1.0  0.61037  0.93146  0.90712  1.0000
  H   H733      1.0  0.63994  0.62913  0.99664  1.0000
  H   H734      1.0  0.71407  0.92670  0.54105  1.0000
  H   H735      1.0  0.58057  0.75852  0.00707  1.0000
  H   H736      1.0  0.88432  0.94639  0.53930  1.0000
  C   C407      1.0  0.44096  0.94108  0.00115  1.0000
  C   C408      1.0  0.56379  0.63014  0.68306  1.0000
  C   C409      1.0  0.45114  0.95585  0.82132  1.0000
  H   H737      1.0  0.71686  0.93970  0.89521  1.0000
  H   H738      1.0  0.48680  0.95903  0.54177  1.0000
  C   C410      1.0  0.69506  0.94756  0.90749  1.0000
  H   H739      1.0  0.62013  0.95811  0.82257  1.0000
  C   C411      1.0  0.79210  0.66092  0.00959  1.0000
  H   H740      1.0  0.90941  0.81912  0.83537  1.0000
  H   H741      1.0  0.91001  0.67728  0.00542  1.0000
  H   H742      1.0  0.90994  0.71356  0.57062  1.0000
  C   C412      1.0  0.63174  0.96023  0.89547  1.0000
  H   H743      1.0  0.86413  0.03981  0.13584  1.0000
  H   H744      1.0  0.69901  0.00302  0.38072  1.0000
  C   C413      1.0  0.77662  0.20206  0.11940  1.0000
  H   H745      1.0  0.83400  0.22196  0.38295  1.0000
  H   H746      1.0  0.71644  0.05976  0.36310  1.0000
  H   H747      1.0  0.88148  0.98321  0.48287  1.0000
  S   S104      1.0  0.89729  0.18293  0.01885  1.0000
  C   C414      1.0  0.87033  0.15414  0.40588  1.0000
  H   H748      1.0  0.85569  0.24612  0.15193  1.0000
  H   H749      1.0  0.59354  0.21769  0.39667  1.0000
  H   H750      1.0  0.42749  0.21823  0.16070  1.0000
  S   S105      1.0  0.85037  0.18243  0.20096  1.0000
  C   C415      1.0  0.46011  0.28295  0.35867  1.0000
  C   C416      1.0  0.76125  0.07878  0.43416  1.0000
  C   C417      1.0  0.84219  0.98494  0.31283  1.0000
  C   C418      1.0  0.42146  0.19663  0.01353  1.0000
  H   H751      1.0  0.43019  0.99292  0.41080  1.0000
  C   C419      1.0  0.41294  0.01343  0.32227  1.0000
  H   H752      1.0  0.57565  0.17510  0.17065  1.0000
  C   C420      1.0  0.41883  0.03442  0.14149  1.0000
  H   H753      1.0  0.67407  0.05669  0.48196  1.0000
  H   H754      1.0  0.41917  0.97262  0.45293  1.0000
  H   H755      1.0  0.68992  0.04237  0.11652  1.0000
  C   C421      1.0  0.49349  0.29435  0.15691  1.0000
  S   S106      1.0  0.51866  0.16237  0.22849  1.0000
  Fe  Fe57      1.0  0.86135  0.19073  0.48301  1.0000
  H   H756      1.0  0.58730  0.02523  0.34510  1.0000
  C   C422      1.0  0.43505  0.07574  0.09176  1.0000
  S   S107      1.0  0.56347  0.08017  0.48074  1.0000
  C   C423      1.0  0.85580  0.10183  0.36523  1.0000
  H   H757      1.0  0.71725  0.23896  0.50489  1.0000
  C   C424      1.0  0.53493  0.26096  0.14733  1.0000
  C   C425      1.0  0.79754  0.25858  0.17969  1.0000
  H   H758      1.0  0.59877  0.02779  0.49183  1.0000
  H   H759      1.0  0.57899  0.04448  0.19117  1.0000
  H   H760      1.0  0.75386  0.18144  0.06640  1.0000
  C   C426      1.0  0.79721  0.02317  0.12265  1.0000
  S   S108      1.0  0.62256  0.11447  0.33029  1.0000
  H   H761      1.0  0.62022  0.96794  0.08950  1.0000
  H   H762      1.0  0.43861  0.01398  0.30779  1.0000
  C   C427      1.0  0.89142  0.02333  0.06310  1.0000
  C   C428      1.0  0.74307  0.04742  0.46138  1.0000
  H   H763      1.0  0.50472  0.22390  0.20452  1.0000
  C   C429      1.0  0.58972  0.03052  0.17240  1.0000
  H   H764      1.0  0.43560  0.17033  0.23313  1.0000
  S   S109      1.0  0.80109  0.18512  0.45539  1.0000
  C   C430      1.0  0.57522  0.26789  0.09500  1.0000
  Fe  Fe58      1.0  0.57538  0.16984  0.02815  1.0000
  C   C431      1.0  0.72520  0.07270  0.07358  1.0000
  H   H765      1.0  0.67794  0.97412  0.16266  1.0000
  H   H766      1.0  0.70743  0.98700  0.10604  1.0000
  H   H767      1.0  0.86697  0.03695  0.01555  1.0000
  H   H768      1.0  0.43497  0.18337  0.45596  1.0000
  H   H769      1.0  0.59481  0.17360  0.49025  1.0000
  H   H770      1.0  0.89623  0.17498  0.15073  1.0000
  Fe  Fe59      1.0  0.51803  0.10477  0.23252  1.0000
  C   C432      1.0  0.70600  0.98121  0.36961  1.0000
  H   H771      1.0  0.52826  0.28068  0.45135  1.0000
  Fe  Fe60      1.0  0.89847  0.16536  0.22329  1.0000
  C   C433      1.0  0.78709  0.24560  0.11593  1.0000
  S   S110      1.0  0.58969  0.13172  0.23700  1.0000
  H   H772      1.0  0.75344  0.26293  0.03598  1.0000
  H   H773      1.0  0.72330  0.96630  0.42011  1.0000
  C   C434      1.0  0.45524  0.22287  0.14670  1.0000
  H   H774      1.0  0.80377  0.23416  0.18813  1.0000
  C   C435      1.0  0.43369  0.21137  0.45633  1.0000
  S   S111      1.0  0.79243  0.13564  0.26431  1.0000
  Fe  Fe61      1.0  0.58982  0.18950  0.23845  1.0000
  H   H775      1.0  0.62142  0.02432  0.11839  1.0000
  C   C436      1.0  0.89134  0.99350  0.08371  1.0000
  H   H776      1.0  0.75234  0.01830  0.06256  1.0000
  C   C437      1.0  0.73746  0.97620  0.39520  1.0000
  C   C438      1.0  0.75913  0.06593  0.49813  1.0000
  H   H777      1.0  0.74369  0.25663  0.44969  1.0000
  H   H778      1.0  0.41980  0.10188  0.24437  1.0000
  C   C439      1.0  0.56354  0.20842  0.40927  1.0000
  C   C440      1.0  0.72187  0.19966  0.33072  1.0000
  C   C441      1.0  0.75297  0.08831  0.13325  1.0000
  N   N22       1.0  0.57024  0.03103  0.13678  1.0000
  C   C442      1.0  0.47422  0.10297  0.10896  1.0000
  C   C443      1.0  0.60674  0.10742  0.37233  1.0000
  H   H779      1.0  0.41156  0.03828  0.25388  1.0000
  C   C444      1.0  0.60084  0.18365  0.12111  1.0000
  H   H780      1.0  0.51124  0.97596  0.14064  1.0000
  H   H781      1.0  0.52576  0.09736  0.41867  1.0000
  S   S112      1.0  0.88750  0.15002  0.47525  1.0000
  H   H782      1.0  0.51485  0.11732  0.15637  1.0000
  H   H783      1.0  0.82858  0.14699  0.07999  1.0000
  H   H784      1.0  0.68439  0.15120  0.15928  1.0000
  H   H785      1.0  0.87115  0.28276  0.12029  1.0000
  C   C445      1.0  0.58235  0.07350  0.12990  1.0000
  H   H786      1.0  0.70205  0.25321  0.01586  1.0000
  H   H787      1.0  0.72282  0.12472  0.35936  1.0000
  H   H788      1.0  0.74083  0.96748  0.22585  1.0000
  S   S113      1.0  0.59070  0.19268  0.29559  1.0000
  C   C446      1.0  0.66231  0.03575  0.50327  1.0000
  C   C447      1.0  0.63742  0.23324  0.50914  1.0000
  C   C448      1.0  0.55521  0.09835  0.41310  1.0000
  H   H789      1.0  0.90946  0.05361  0.07191  1.0000
  C   C449      1.0  0.87732  0.13282  0.43259  1.0000
  H   H790      1.0  0.79457  0.10132  0.44229  1.0000
  C   C450      1.0  0.53432  0.26423  0.10772  1.0000
  C   C451      1.0  0.45123  0.97580  0.09874  1.0000
  S   S114      1.0  0.85012  0.10214  0.22896  1.0000
  H   H791      1.0  0.45512  0.08679  0.39956  1.0000
  H   H792      1.0  0.70005  0.98712  0.49776  1.0000
  S   S115      1.0  0.85400  0.25547  0.26229  1.0000
  H   H793      1.0  0.42605  0.96537  0.18099  1.0000
  H   H794      1.0  0.65181  0.00552  0.49379  1.0000
  C   C452      1.0  0.65055  0.12914  0.16253  1.0000
  H   H795      1.0  0.56580  0.01656  0.40338  1.0000
  C   C453      1.0  0.58092  0.98999  0.18631  1.0000
  H   H796      1.0  0.63336  0.06546  0.02624  1.0000
  H   H797      1.0  0.60445  0.08604  0.04580  1.0000
  H   H798      1.0  0.70516  0.17892  0.35115  1.0000
  H   H799      1.0  0.66218  0.11128  0.05096  1.0000
  H   H800      1.0  0.67903  0.20003  0.45993  1.0000
  C   C454      1.0  0.50055  0.22097  0.41283  1.0000
  C   C455      1.0  0.71979  0.06547  0.10852  1.0000
  C   C456      1.0  0.49845  0.97633  0.45388  1.0000
  C   C457      1.0  0.74778  0.98944  0.05384  1.0000
  H   H801      1.0  0.63590  0.12378  0.10822  1.0000
  N   N23       1.0  0.48247  0.24883  0.40803  1.0000
  H   H802      1.0  0.49584  0.13067  0.35357  1.0000
  H   H803      1.0  0.55034  0.96966  0.38436  1.0000
  C   C458      1.0  0.53712  0.28380  0.22272  1.0000
  H   H804      1.0  0.63835  0.99992  0.29293  1.0000
  S   S116      1.0  0.47835  0.18136  0.30853  1.0000
  C   C459      1.0  0.49696  0.01040  0.10292  1.0000
  H   H805      1.0  0.78511  0.96347  0.12782  1.0000
  C   C460      1.0  0.74936  0.24455  0.18271  1.0000
  H   H806      1.0  0.89303  0.21313  0.10030  1.0000
  H   H807      1.0  0.53833  0.23037  0.36858  1.0000
  C   C461      1.0  0.86205  0.08039  0.39206  1.0000
  C   C462      1.0  0.76418  0.10261  0.06331  1.0000
  S   S117      1.0  0.84146  0.22804  0.03082  1.0000
  H   H808      1.0  0.75495  0.06489  0.31035  1.0000
  H   H809      1.0  0.90175  0.03253  0.36030  1.0000
  S   S118      1.0  0.74336  0.08148  0.17672  1.0000
  H   H810      1.0  0.54589  0.24789  0.26269  1.0000
  Fe  Fe62      1.0  0.51937  0.16102  0.28565  1.0000
  S   S119      1.0  0.47055  0.05159  0.20074  1.0000
  H   H811      1.0  0.77816  0.27081  0.31054  1.0000
  H   H812      1.0  0.89887  0.00116  0.28754  1.0000
  H   H813      1.0  0.43553  0.25437  0.30798  1.0000
  C   C463      1.0  0.86746  0.01391  0.03123  1.0000
  H   H814      1.0  0.53496  0.98793  0.32807  1.0000
  N   N24       1.0  0.70073  0.00578  0.30721  1.0000
  C   C464      1.0  0.45732  0.06185  0.15908  1.0000
  Fe  Fe63      1.0  0.78627  0.19493  0.50778  1.0000
  H   H815      1.0  0.77082  0.02176  0.13655  1.0000
  H   H816      1.0  0.49288  0.00200  0.45529  1.0000
  C   C465      1.0  0.44234  0.10296  0.38467  1.0000
  H   H817      1.0  0.49568  0.00949  0.39610  1.0000
  C   C466      1.0  0.59772  0.99374  0.22401  1.0000
  H   H818      1.0  0.62526  0.04834  0.17355  1.0000
  Fe  Fe64      1.0  0.80148  0.12061  0.21169  1.0000
  C   C467      1.0  0.74597  0.26867  0.30934  1.0000
  C   C468      1.0  0.73332  0.21816  0.21372  1.0000
  C   C469      1.0  0.56373  0.97167  0.10104  1.0000
  C   C470      1.0  0.53785  0.27209  0.26023  1.0000
  H   H819      1.0  0.57110  0.21164  0.43753  1.0000
  C   C471      1.0  0.52203  0.00755  0.13626  1.0000
  C   C472      1.0  0.79822  0.12426  0.08791  1.0000
  H   H820      1.0  0.70960  0.06009  0.28414  1.0000
  Fe  Fe65      1.0  0.84461  0.12131  0.28107  1.0000
  C   C473      1.0  0.54362  0.23381  0.39699  1.0000
  H   H821      1.0  0.77401  0.00778  0.28137  1.0000
  H   H822      1.0  0.90728  0.10686  0.09724  1.0000
  S   S120      1.0  0.84182  0.08104  0.32368  1.0000
  C   C474      1.0  0.64646  0.19672  0.45792  1.0000
  H   H823      1.0  0.74080  0.01000  0.20667  1.0000
  S   S121      1.0  0.44436  0.04589  0.49374  1.0000
  H   H824      1.0  0.80220  0.25646  0.09133  1.0000
  H   H825      1.0  0.42618  0.02346  0.34916  1.0000
  C   C475      1.0  0.85708  0.26628  0.30574  1.0000
  C   C476      1.0  0.45388  0.18237  0.14607  1.0000
  H   H826      1.0  0.43390  0.97377  0.12150  1.0000
  H   H827      1.0  0.65022  0.11184  0.18545  1.0000
  H   H828      1.0  0.58930  0.03159  0.08544  1.0000
  S   S122      1.0  0.81841  0.26038  0.50426  1.0000
  C   C477      1.0  0.61767  0.09206  0.43151  1.0000
  H   H829      1.0  0.84481  0.06649  0.15931  1.0000
  H   H830      1.0  0.68999  0.26558  0.09888  1.0000
  C   C478      1.0  0.66359  0.25754  0.14792  1.0000
  H   H831      1.0  0.85501  0.15538  0.35137  1.0000
  H   H832      1.0  0.47543  0.96950  0.36704  1.0000
  H   H833      1.0  0.46934  0.24166  0.21228  1.0000
  H   H834      1.0  0.51075  0.01711  0.15806  1.0000
  C   C479      1.0  0.87351  0.09613  0.42556  1.0000
  H   H835      1.0  0.54233  0.03418  0.34399  1.0000
  H   H836      1.0  0.68810  0.00191  0.25173  1.0000
  H   H837      1.0  0.75423  0.02588  0.45770  1.0000
  H   H838      1.0  0.51188  0.27074  0.36023  1.0000
  H   H839      1.0  0.72175  0.12319  0.31328  1.0000
  H   H840      1.0  0.73070  0.24735  0.36239  1.0000
  H   H841      1.0  0.75847  0.01575  0.33813  1.0000
  C   C480      1.0  0.44886  0.14881  0.33966  1.0000
  C   C481      1.0  0.56903  0.10701  0.37987  1.0000
  C   C482      1.0  0.85838  0.27531  0.14609  1.0000
  H   H842      1.0  0.88753  0.04064  0.29422  1.0000
  H   H843      1.0  0.76800  0.00440  0.39957  1.0000
  C   C483      1.0  0.41067  0.15047  0.12970  1.0000
  C   C484      1.0  0.55243  0.01151  0.34813  1.0000
  S   S123      1.0  0.42059  0.08301  0.04947  1.0000
  H   H844      1.0  0.64580  0.22076  0.44283  1.0000
  C   C485      1.0  0.60015  0.19496  0.15482  1.0000
  C   C486      1.0  0.63371  0.09326  0.03286  1.0000
  C   C487      1.0  0.86019  0.13888  0.37202  1.0000
  H   H845      1.0  0.67247  0.05804  0.33575  1.0000
  S   S124      1.0  0.81102  0.99802  0.47792  1.0000
  H   H846      1.0  0.53396  0.98971  0.45517  1.0000
  H   H847      1.0  0.46002  0.23219  0.47473  1.0000
  S   S125      1.0  0.53046  0.10555  0.01768  1.0000
  C   C488      1.0  0.84738  0.23706  0.33026  1.0000
  H   H848      1.0  0.75451  0.23244  0.23737  1.0000
  Fe  Fe66      1.0  0.51227  0.09377  0.49312  1.0000
  C   C489      1.0  0.63192  0.23157  0.16838  1.0000
  C   C490      1.0  0.46518  0.12750  0.35855  1.0000
  H   H849      1.0  0.82180  0.97686  0.28816  1.0000
  C   C491      1.0  0.74133  0.17578  0.09212  1.0000
  H   H850      1.0  0.81172  0.98664  0.09137  1.0000
  C   C492      1.0  0.54317  0.99425  0.38389  1.0000
  H   H851      1.0  0.70025  0.21185  0.21770  1.0000
  H   H852      1.0  0.82963  0.01627  0.16990  1.0000
  H   H853      1.0  0.70789  0.19228  0.02343  1.0000
  H   H854      1.0  0.62567  0.16918  0.44294  1.0000
  C   C493      1.0  0.41376  0.96524  0.42505  1.0000
  C   C494      1.0  0.47962  0.25636  0.37008  1.0000
  Fe  Fe67      1.0  0.82870  0.16954  0.01056  1.0000
  H   H855      1.0  0.73020  0.25591  0.28351  1.0000
  H   H856      1.0  0.54138  0.17696  0.40235  1.0000
  H   H857      1.0  0.57531  0.27257  0.06687  1.0000
  H   H858      1.0  0.76105  0.09544  0.49820  1.0000
  H   H859      1.0  0.81874  0.13376  0.14183  1.0000
  H   H860      1.0  0.42733  0.24538  0.04422  1.0000
  H   H861      1.0  0.74483  0.27038  0.18650  1.0000
  H   H862      1.0  0.76786  0.04692  0.26110  1.0000
  Fe  Fe68      1.0  0.83830  0.25093  0.45425  1.0000
  C   C495      1.0  0.84423  0.97471  0.01961  1.0000
  H   H863      1.0  0.51312  0.01125  0.07968  1.0000
  H   H864      1.0  0.42357  0.24778  0.41845  1.0000
  C   C496      1.0  0.73113  0.11281  0.33745  1.0000
  C   C497      1.0  0.72414  0.99275  0.33392  1.0000
  C   C498      1.0  0.45532  0.28451  0.31951  1.0000
  C   C499      1.0  0.48492  0.09636  0.14295  1.0000
  H   H865      1.0  0.79297  0.07180  0.50131  1.0000
  H   H866      1.0  0.76520  0.19036  0.14478  1.0000
  S   S126      1.0  0.90018  0.25567  0.47645  1.0000
  H   H867      1.0  0.41598  0.20300  0.40180  1.0000
  H   H868      1.0  0.76188  0.06522  0.40973  1.0000
  H   H869      1.0  0.42618  0.27334  0.16741  1.0000
  H   H870      1.0  0.63240  0.01568  0.22742  1.0000
  C   C500      1.0  0.49982  0.24973  0.20070  1.0000
  H   H871      1.0  0.47930  0.18322  0.13115  1.0000
  C   C501      1.0  0.88825  0.01493  0.30630  1.0000
  S   S127      1.0  0.63777  0.19382  0.06055  1.0000
  H   H872      1.0  0.69904  0.05555  0.05457  1.0000
  H   H873      1.0  0.80544  0.19919  0.11606  1.0000
  C   C502      1.0  0.63109  0.10007  0.39825  1.0000
  C   C503      1.0  0.70689  0.99483  0.27202  1.0000
  C   C504      1.0  0.85037  0.28229  0.37349  1.0000
  C   C505      1.0  0.58784  0.01644  0.11014  1.0000
  H   H874      1.0  0.76641  0.12450  0.34001  1.0000
  H   H875      1.0  0.50692  0.23775  0.09495  1.0000
  H   H876      1.0  0.57972  0.00280  0.24011  1.0000
  H   H877      1.0  0.80540  0.04585  0.10270  1.0000
  H   H878      1.0  0.56782  0.08439  0.14812  1.0000
  H   H879      1.0  0.63298  0.14510  0.16733  1.0000
  Fe  Fe69      1.0  0.58377  0.13225  0.29373  1.0000
  Fe  Fe70      1.0  0.42772  0.08967  0.47007  1.0000
  C   C506      1.0  0.84400  0.24511  0.36435  1.0000
  C   C507      1.0  0.70920  0.97298  0.02599  1.0000
  C   C508      1.0  0.63132  0.10339  0.12983  1.0000
  C   C509      1.0  0.75652  0.00002  0.22706  1.0000
  H   H880      1.0  0.79061  0.01194  0.22202  1.0000
  H   H881      1.0  0.42376  0.07101  0.30917  1.0000
  H   H882      1.0  0.87775  0.07911  0.44626  1.0000
  H   H883      1.0  0.64693  0.99231  0.33676  1.0000
  H   H884      1.0  0.72828  0.22730  0.16008  1.0000
  H   H885      1.0  0.49592  0.12930  0.09630  1.0000
  Fe  Fe71      1.0  0.84660  0.19579  0.25508  1.0000
  H   H886      1.0  0.69082  0.28805  0.28242  1.0000
  C   C510      1.0  0.73223  0.25302  0.01176  1.0000
  H   H887      1.0  0.70788  0.03136  0.45624  1.0000
  H   H888      1.0  0.77714  0.99624  0.04088  1.0000
  C   C511      1.0  0.78496  0.98257  0.10640  1.0000
  H   H889      1.0  0.82911  0.99749  0.33062  1.0000
  S   S128      1.0  0.63330  0.24411  0.21137  1.0000
  H   H890      1.0  0.87269  0.18230  0.41138  1.0000
  H   H891      1.0  0.55017  0.11262  0.35995  1.0000
  H   H892      1.0  0.75570  0.20599  0.33312  1.0000
  H   H893      1.0  0.70641  0.18542  0.30527  1.0000
  H   H894      1.0  0.68497  0.22943  0.33142  1.0000
  H   H895      1.0  0.65080  0.08925  0.12507  1.0000
  H   H896      1.0  0.50619  0.26206  0.27033  1.0000
  H   H897      1.0  0.72996  0.14447  0.09808  1.0000
  S   S129      1.0  0.76896  0.11353  0.01981  1.0000
  N   N25       1.0  0.49592  0.25701  0.16288  1.0000
  H   H898      1.0  0.57669  0.15503  0.11084  1.0000
  H   H899      1.0  0.49495  0.03793  0.10382  1.0000
  H   H900      1.0  0.74155  0.09362  0.42984  1.0000
  H   H901      1.0  0.47701  0.19125  0.40194  1.0000
  H   H902      1.0  0.63714  0.08731  0.45160  1.0000
  C   C512      1.0  0.57952  0.09077  0.43893  1.0000
  H   H903      1.0  0.54070  0.23601  0.15479  1.0000
  Fe  Fe72      1.0  0.47911  0.12169  0.02265  1.0000
  H   H904      1.0  0.50419  0.96351  0.02784  1.0000
  H   H905      1.0  0.66035  0.10053  0.39267  1.0000
  H   H906      1.0  0.56818  0.07589  0.10414  1.0000
  C   C513      1.0  0.66509  0.24585  0.11460  1.0000
  H   H907      1.0  0.42788  0.27204  0.36769  1.0000
  N   N26       1.0  0.81504  0.27316  0.14527  1.0000
  S   S130      1.0  0.52413  0.18445  0.03825  1.0000
  C   C514      1.0  0.63397  0.20879  0.10134  1.0000
  H   H908      1.0  0.73277  0.18978  0.20939  1.0000
  C   C515      1.0  0.79262  0.11694  0.12293  1.0000
  H   H909      1.0  0.75590  0.24517  0.11202  1.0000
  H   H910      1.0  0.71322  0.18064  0.09168  1.0000
  C   C516      1.0  0.49635  0.98168  0.39130  1.0000
  C   C517      1.0  0.70733  0.06784  0.33798  1.0000
  C   C518      1.0  0.75390  0.01454  0.26233  1.0000
  H   H911      1.0  0.45794  0.17300  0.17242  1.0000
  C   C519      1.0  0.65324  0.98646  0.31078  1.0000
  H   H912      1.0  0.57668  0.24045  0.10008  1.0000
  H   H913      1.0  0.56718  0.26495  0.40387  1.0000
  C   C520      1.0  0.71924  0.23722  0.33533  1.0000
  S   S131      1.0  0.88166  0.96859  0.21155  1.0000
  C   C521      1.0  0.71936  0.05004  0.30851  1.0000
  S   S132      1.0  0.51200  0.10057  0.28916  1.0000
  S   S133      1.0  0.49570  0.13538  0.46454  1.0000
  H   H914      1.0  0.59315  0.97829  0.05282  1.0000
  H   H915      1.0  0.85748  0.05129  0.38712  1.0000
  S   S134      1.0  0.89780  0.18291  0.27700  1.0000
  C   C522      1.0  0.83637  0.03719  0.14852  1.0000
  C   C523      1.0  0.43777  0.22813  0.41970  1.0000
  H   H916      1.0  0.50581  0.21646  0.44067  1.0000
  H   H917      1.0  0.46061  0.22779  0.35568  1.0000
  H   H918      1.0  0.63094  0.25011  0.48845  1.0000
  H   H919      1.0  0.84018  0.20775  0.32263  1.0000
  H   H920      1.0  0.44774  0.22949  0.11996  1.0000
  H   H921      1.0  0.43361  0.98015  0.07588  1.0000
  C   C524      1.0  0.63009  0.19362  0.49349  1.0000
  C   C525      1.0  0.44655  0.23928  0.02694  1.0000
  H   H922      1.0  0.47684  0.24441  0.04135  1.0000
  H   H923      1.0  0.81527  0.28183  0.20003  1.0000
  C   C526      1.0  0.51209  0.28660  0.42815  1.0000
  H   H924      1.0  0.68551  0.28784  0.32681  1.0000
  H   H925      1.0  0.56425  0.28777  0.15780  1.0000
  C   C527      1.0  0.75158  0.28767  0.45381  1.0000
  H   H926      1.0  0.69082  0.28201  0.46295  1.0000
  H   H927      1.0  0.68748  0.28625  0.15818  1.0000
  H   H928      1.0  0.67986  0.96942  0.03673  1.0000
  H   H929      1.0  0.60425  0.29300  0.10792  1.0000
  N   N27       1.0  0.74336  0.96305  0.08391  1.0000
  H   H930      1.0  0.59809  0.97841  0.17204  1.0000
  H   H931      1.0  0.59311  0.96474  0.23284  1.0000
  H   H932      1.0  0.54627  0.96838  0.18482  1.0000
  C   C528      1.0  0.72191  0.29106  0.47772  1.0000
  S   S135      1.0  0.83706  0.29090  0.41308  1.0000
  H   H933      1.0  0.53218  0.29061  0.09922  1.0000
  H   H934      1.0  0.56866  0.29118  0.21372  1.0000
  H   H935      1.0  0.72523  0.96641  0.32444  1.0000
  H   H936      1.0  0.41048  0.17743  0.03590  1.0000
  H   H937      1.0  0.69453  0.96253  0.26964  1.0000
  H   H938      1.0  0.53162  0.96254  0.08788  1.0000
  C   C529      1.0  0.73811  0.15268  0.62309  1.0000
  C   C530      1.0  0.59737  0.05625  0.73855  1.0000
  S   S136      1.0  0.75016  0.96305  0.75923  1.0000
  C   C531      1.0  0.61137  0.27423  0.92236  1.0000
  C   C532      1.0  0.86093  0.02855  0.59000  1.0000
  H   H939      1.0  0.64715  0.01296  0.71348  1.0000
  H   H940      1.0  0.61775  0.14155  0.93970  1.0000
  H   H941      1.0  0.75260  0.01169  0.70372  1.0000
  H   H942      1.0  0.69486  0.05852  0.71315  1.0000
  S   S137      1.0  0.42108  0.21701  0.72197  1.0000
  H   H943      1.0  0.45487  0.26010  0.00538  1.0000
  Fe  Fe73      1.0  0.41695  0.15763  0.72349  1.0000
  H   H944      1.0  0.58227  0.03094  0.85104  1.0000
  H   H945      1.0  0.71505  0.97436  0.92383  1.0000
  C   C533      1.0  0.67496  0.12716  0.98155  1.0000
  H   H946      1.0  0.73255  0.02698  0.75179  1.0000
  H   H947      1.0  0.60518  0.09742  0.98354  1.0000
  C   C534      1.0  0.51806  0.26648  0.62687  1.0000
  C   C535      1.0  0.41565  0.09592  0.87722  1.0000
  H   H948      1.0  0.61648  0.27656  0.55366  1.0000
  S   S138      1.0  0.75504  0.15497  0.76628  1.0000
  C   C536      1.0  0.74357  0.13674  0.88714  1.0000
  H   H949      1.0  0.46031  0.03338  0.72096  1.0000
  Fe  Fe74      1.0  0.52210  0.19576  0.98186  1.0000
  Fe  Fe75      1.0  0.45087  0.22397  0.77607  1.0000
  H   H950      1.0  0.44395  0.18939  0.00171  1.0000
  H   H951      1.0  0.79676  0.22087  0.84644  1.0000
  C   C537      1.0  0.63346  0.01547  0.86320  1.0000
  S   S139      1.0  0.84359  0.19519  0.53574  1.0000
  H   H952      1.0  0.78802  0.01398  0.82351  1.0000
  C   C538      1.0  0.83253  0.00890  0.52061  1.0000
  C   C539      1.0  0.53717  0.11060  0.64663  1.0000
  H   H953      1.0  0.41465  0.10826  0.90221  1.0000
  C   C540      1.0  0.52098  0.23912  0.56179  1.0000
  H   H954      1.0  0.54590  0.06669  0.85560  1.0000
  Fe  Fe76      1.0  0.82380  0.19583  0.75648  1.0000
  H   H955      1.0  0.59442  0.02177  0.91853  1.0000
  S   S140      1.0  0.88007  0.18595  0.76887  1.0000
  H   H956      1.0  0.75391  0.21277  0.99873  1.0000
  H   H957      1.0  0.64783  0.03340  0.88733  1.0000
  C   C541      1.0  0.56661  0.96589  0.88855  1.0000
  N   N28       1.0  0.60557  0.97262  0.87102  1.0000
  H   H958      1.0  0.77776  0.15929  0.89226  1.0000
  H   H959      1.0  0.49804  0.19969  0.90616  1.0000
  H   H960      1.0  0.87365  0.99437  0.88196  1.0000
  H   H961      1.0  0.80863  0.24907  0.64211  1.0000
  S   S141      1.0  0.55284  0.16842  0.77716  1.0000
  H   H962      1.0  0.76437  0.09029  0.67342  1.0000
  H   H963      1.0  0.81352  0.02594  0.86652  1.0000
  H   H964      1.0  0.54732  0.03805  0.63650  1.0000
  C   C542      1.0  0.65036  0.16401  0.89351  1.0000
  S   S142      1.0  0.51578  0.11897  0.54511  1.0000
  Fe  Fe77      1.0  0.75403  0.21076  0.77770  1.0000
  C   C543      1.0  0.53023  0.15815  0.84368  1.0000
  H   H965      1.0  0.69171  0.01875  0.62820  1.0000
  H   H966      1.0  0.65004  0.22522  0.57476  1.0000
  H   H967      1.0  0.70149  0.02874  0.80326  1.0000
  C   C544      1.0  0.71017  0.15176  0.56428  1.0000
  Fe  Fe78      1.0  0.44584  0.07435  0.54328  1.0000
  H   H968      1.0  0.85413  0.00830  0.82805  1.0000
  H   H969      1.0  0.88850  0.08877  0.57405  1.0000
  H   H970      1.0  0.62516  0.03215  0.66201  1.0000
  H   H971      1.0  0.90098  0.20482  0.67926  1.0000
  C   C545      1.0  0.72288  0.21159  0.00175  1.0000
  H   H972      1.0  0.43498  0.11169  0.59991  1.0000
  H   H973      1.0  0.78647  0.04277  0.56155  1.0000
  C   C546      1.0  0.41365  0.09234  0.61815  1.0000
  H   H974      1.0  0.62352  0.99793  0.59151  1.0000
  H   H975      1.0  0.88812  0.26247  0.85078  1.0000
  H   H976      1.0  0.50617  0.06884  0.74806  1.0000
  H   H977      1.0  0.79019  0.10477  0.61979  1.0000
  C   C547      1.0  0.78862  0.23734  0.86343  1.0000
  H   H978      1.0  0.41354  0.13933  0.64648  1.0000
  C   C548      1.0  0.62265  0.03583  0.51430  1.0000
  H   H979      1.0  0.55782  0.10042  0.79984  1.0000
  H   H980      1.0  0.61016  0.26389  0.76474  1.0000
  C   C549      1.0  0.86740  0.18534  0.83741  1.0000
  C   C550      1.0  0.90449  0.22090  0.65488  1.0000
  H   H981      1.0  0.66148  0.01954  0.85004  1.0000
  H   H982      1.0  0.48233  0.99703  0.51787  1.0000
  C   C551      1.0  0.58324  0.18034  0.62670  1.0000
  H   H983      1.0  0.43818  0.25628  0.59222  1.0000
  H   H984      1.0  0.60794  0.01381  0.53436  1.0000
  C   C552      1.0  0.47110  0.22283  0.86668  1.0000
  H   H985      1.0  0.83374  0.09698  0.60876  1.0000
  H   H986      1.0  0.70687  0.21942  0.94915  1.0000
  C   C553      1.0  0.69640  0.13326  0.63343  1.0000
  H   H987      1.0  0.69372  0.26019  0.76685  1.0000
  H   H988      1.0  0.41590  0.01606  0.90486  1.0000
  H   H989      1.0  0.61034  0.22466  0.52543  1.0000
  H   H990      1.0  0.52600  0.18374  0.84043  1.0000
  H   H991      1.0  0.72277  0.28922  0.59519  1.0000
  H   H992      1.0  0.42897  0.12056  0.85903  1.0000
  C   C554      1.0  0.81867  0.08450  0.69317  1.0000
  C   C555      1.0  0.63456  0.11621  0.00052  1.0000
  C   C556      1.0  0.68055  0.23660  0.56230  1.0000
  C   C557      1.0  0.54256  0.14420  0.81643  1.0000
  H   H993      1.0  0.45400  0.97528  0.61490  1.0000
  C   C558      1.0  0.81240  0.25197  0.89513  1.0000
  C   C559      1.0  0.49341  0.24877  0.92531  1.0000
  C   C560      1.0  0.79425  0.10102  0.56508  1.0000
  C   C561      1.0  0.57576  0.98963  0.92260  1.0000
  H   H994      1.0  0.82060  0.11163  0.54780  1.0000
  H   H995      1.0  0.83723  0.14462  0.60375  1.0000
  C   C562      1.0  0.89840  0.06945  0.84725  1.0000
  Fe  Fe79      1.0  0.49311  0.15687  0.51638  1.0000
  H   H996      1.0  0.74653  0.04519  0.58332  1.0000
  H   H997      1.0  0.83923  0.24718  0.90246  1.0000
  H   H998      1.0  0.51740  0.15155  0.89713  1.0000
  H   H999      1.0  0.69014  0.98837  0.97661  1.0000
  H   H1000     1.0  0.55680  0.10474  0.62950  1.0000
  H   H1001     1.0  0.64252  0.17799  0.51078  1.0000
  H   H1002     1.0  0.75127  0.02140  0.65971  1.0000
  H   H1003     1.0  0.68299  0.03499  0.55688  1.0000
  C   C563      1.0  0.90827  0.01190  0.89062  1.0000
  C   C564      1.0  0.65836  0.24671  0.76263  1.0000
  C   C565      1.0  0.87088  0.05816  0.56593  1.0000
  N   N29       1.0  0.68390  0.15711  0.95386  1.0000
  H   H1004     1.0  0.43293  0.25342  0.54708  1.0000
  C   C566      1.0  0.45079  0.96200  0.78583  1.0000
  C   C567      1.0  0.64388  0.27485  0.77530  1.0000
  H   H1005     1.0  0.67039  0.09901  0.97075  1.0000
  H   H1006     1.0  0.60002  0.07684  0.75906  1.0000
  H   H1007     1.0  0.52975  0.03171  0.72726  1.0000
  H   H1008     1.0  0.51540  0.99102  0.91875  1.0000
  H   H1009     1.0  0.47119  0.09248  0.68230  1.0000
  H   H1010     1.0  0.69830  0.05955  0.65139  1.0000
  H   H1011     1.0  0.68797  0.29080  0.69559  1.0000
  H   H1012     1.0  0.51853  0.12179  0.70960  1.0000
  H   H1013     1.0  0.57694  0.28320  0.81929  1.0000
  C   C568      1.0  0.62859  0.29084  0.68243  1.0000
  H   H1014     1.0  0.57580  0.10867  0.71518  1.0000
  C   C569      1.0  0.46273  0.27779  0.88435  1.0000
  H   H1015     1.0  0.74881  0.26339  0.58041  1.0000
  C   C570      1.0  0.63839  0.19673  0.89376  1.0000
  H   H1016     1.0  0.46834  0.10703  0.75556  1.0000
  H   H1017     1.0  0.64871  0.23995  0.73483  1.0000
  C   C571      1.0  0.45068  0.07575  0.74696  1.0000
  H   H1018     1.0  0.58104  0.96401  0.76755  1.0000
  C   C572      1.0  0.72067  0.12657  0.92020  1.0000
  H   H1019     1.0  0.74860  0.27415  0.99145  1.0000
  C   C573      1.0  0.87982  0.18608  0.87260  1.0000
  S   S143      1.0  0.73355  0.21870  0.72399  1.0000
  H   H1020     1.0  0.73582  0.11353  0.93820  1.0000
  H   H1021     1.0  0.51048  0.04384  0.60596  1.0000
  S   S144      1.0  0.71784  0.16152  0.52076  1.0000
  H   H1022     1.0  0.53259  0.99660  0.52229  1.0000
  H   H1023     1.0  0.76633  0.08076  0.71819  1.0000
  S   S145      1.0  0.52428  0.22280  0.52135  1.0000
  H   H1024     1.0  0.67184  0.08491  0.82677  1.0000
  C   C574      1.0  0.62091  0.01927  0.60816  1.0000
  H   H1025     1.0  0.58739  0.01378  0.60502  1.0000
  H   H1026     1.0  0.54453  0.97236  0.87170  1.0000
  H   H1027     1.0  0.54512  0.96616  0.81730  1.0000
  H   H1028     1.0  0.61227  0.98266  0.65146  1.0000
  H   H1029     1.0  0.68257  0.20998  0.55574  1.0000
  C   C575      1.0  0.83753  0.98891  0.57929  1.0000
  C   C576      1.0  0.72347  0.16335  0.93788  1.0000
  H   H1030     1.0  0.60348  0.02194  0.81409  1.0000
  Fe  Fe80      1.0  0.84998  0.98997  0.66759  1.0000
  H   H1031     1.0  0.62924  0.10841  0.61704  1.0000
  C   C577      1.0  0.74239  0.02759  0.68456  1.0000
  N   N30       1.0  0.67935  0.25848  0.53025  1.0000
  H   H1032     1.0  0.82589  0.07591  0.66872  1.0000
  C   C578      1.0  0.63287  0.01397  0.64545  1.0000
  H   H1033     1.0  0.60197  0.21178  0.63501  1.0000
  S   S146      1.0  0.87657  0.04192  0.63342  1.0000
  C   C579      1.0  0.89326  0.18453  0.81289  1.0000
  H   H1034     1.0  0.59366  0.98121  0.94242  1.0000
  Fe  Fe81      1.0  0.52778  0.12323  0.96295  1.0000
  S   S147      1.0  0.71883  0.21917  0.81823  1.0000
  Fe  Fe82      1.0  0.50542  0.18818  0.75971  1.0000
  H   H1035     1.0  0.90920  0.20457  0.63433  1.0000
  C   C580      1.0  0.75281  0.24213  0.85480  1.0000
  S   S148      1.0  0.57744  0.18643  0.97289  1.0000
  S   S149      1.0  0.44051  0.16244  0.77914  1.0000
  H   H1036     1.0  0.83810  0.11695  0.69679  1.0000
  H   H1037     1.0  0.55730  0.17703  0.60716  1.0000
  C   C581      1.0  0.64520  0.14202  0.92800  1.0000
  N   N31       1.0  0.73488  0.04215  0.52772  1.0000
  H   H1038     1.0  0.85766  0.04586  0.79905  1.0000
  S   S150      1.0  0.68736  0.12105  0.67644  1.0000
  H   H1039     1.0  0.68328  0.23591  0.63486  1.0000
  C   C582      1.0  0.67221  0.96762  0.68309  1.0000
  H   H1040     1.0  0.46749  0.20195  0.84717  1.0000
  C   C583      1.0  0.48075  0.27698  0.91736  1.0000
  H   H1041     1.0  0.61838  0.24854  0.82218  1.0000
  H   H1042     1.0  0.66215  0.19552  0.97367  1.0000
  H   H1043     1.0  0.65328  0.02273  0.77928  1.0000
  H   H1044     1.0  0.50218  0.97726  0.60200  1.0000
  S   S151      1.0  0.51629  0.24912  0.96686  1.0000
  H   H1045     1.0  0.74035  0.25510  0.64207  1.0000
  C   C584      1.0  0.71862  0.25983  0.58955  1.0000
  N   N32       1.0  0.52365  0.08146  0.67538  1.0000
  H   H1046     1.0  0.77603  0.11687  0.55916  1.0000
  S   S152      1.0  0.82401  0.25078  0.77294  1.0000
  H   H1047     1.0  0.64243  0.04938  0.59969  1.0000
  H   H1048     1.0  0.71523  0.97992  0.57590  1.0000
  C   C585      1.0  0.68829  0.03504  0.77873  1.0000
  H   H1049     1.0  0.67468  0.27448  0.82571  1.0000
  C   C586      1.0  0.85704  0.03801  0.82659  1.0000
  S   S153      1.0  0.47252  0.13389  0.96696  1.0000
  H   H1050     1.0  0.42247  0.07088  0.72944  1.0000
  Fe  Fe83      1.0  0.80348  0.25354  0.71778  1.0000
  C   C587      1.0  0.61168  0.03479  0.84041  1.0000
  H   H1051     1.0  0.50843  0.10694  0.63013  1.0000
  C   C588      1.0  0.51305  0.02920  0.63008  1.0000
  H   H1052     1.0  0.63277  0.11040  0.92150  1.0000
  C   C589      1.0  0.50005  0.21229  0.58713  1.0000
  H   H1053     1.0  0.82794  0.07038  0.71474  1.0000
  C   C590      1.0  0.56426  0.15478  0.65758  1.0000
  H   H1054     1.0  0.43959  0.05746  0.76993  1.0000
  H   H1055     1.0  0.74209  0.10998  0.87613  1.0000
  C   C591      1.0  0.72048  0.99904  0.52208  1.0000
  H   H1056     1.0  0.77731  0.17787  0.58095  1.0000
  H   H1057     1.0  0.59111  0.15987  0.67685  1.0000
  S   S154      1.0  0.86392  0.00282  0.72418  1.0000
  S   S155      1.0  0.51804  0.25040  0.76077  1.0000
  H   H1058     1.0  0.60492  0.17195  0.61496  1.0000
  H   H1059     1.0  0.58990  0.09366  0.67829  1.0000
  H   H1060     1.0  0.61126  0.25816  0.68062  1.0000
  H   H1061     1.0  0.83819  0.18602  0.82926  1.0000
  H   H1062     1.0  0.45670  0.99033  0.77622  1.0000
  C   C592      1.0  0.69759  0.01615  0.74928  1.0000
  C   C593      1.0  0.76487  0.05583  0.56023  1.0000
  H   H1063     1.0  0.75662  0.29293  0.92577  1.0000
  C   C594      1.0  0.69789  0.04908  0.53305  1.0000
  C   C595      1.0  0.54169  0.09224  0.85235  1.0000
  H   H1064     1.0  0.76509  0.15967  0.64141  1.0000
  H   H1065     1.0  0.66525  0.97148  0.55349  1.0000
  C   C596      1.0  0.83560  0.27587  0.63435  1.0000
  C   C597      1.0  0.48821  0.98489  0.62288  1.0000
  C   C598      1.0  0.56329  0.08459  0.69528  1.0000
  C   C599      1.0  0.68261  0.02618  0.71401  1.0000
  C   C600      1.0  0.49826  0.09177  0.69803  1.0000
  Fe  Fe84      1.0  0.85149  0.24666  0.97656  1.0000
  C   C601      1.0  0.41597  0.25374  0.56955  1.0000
  H   H1066     1.0  0.84494  0.24817  0.59125  1.0000
  C   C602      1.0  0.71725  0.26678  0.51073  1.0000
  H   H1067     1.0  0.64133  0.12432  0.55581  1.0000
  C   C603      1.0  0.66155  0.12340  0.60919  1.0000
  C   C604      1.0  0.77120  0.07242  0.69267  1.0000
  C   C605      1.0  0.82338  0.97905  0.54445  1.0000
  C   C606      1.0  0.76619  0.27832  0.90808  1.0000
  C   C607      1.0  0.54825  0.11123  0.82082  1.0000
  H   H1068     1.0  0.70772  0.20869  0.61969  1.0000
  H   H1069     1.0  0.46385  0.03889  0.64855  1.0000
  H   H1070     1.0  0.70940  0.08094  0.53760  1.0000
  H   H1071     1.0  0.49033  0.96900  0.64619  1.0000
  H   H1072     1.0  0.66226  0.22264  0.90939  1.0000
  C   C608      1.0  0.69247  0.19622  0.96839  1.0000
  H   H1073     1.0  0.62737  0.06974  0.72533  1.0000
  H   H1074     1.0  0.64356  0.21847  0.77637  1.0000
  H   H1075     1.0  0.89142  0.06880  0.87439  1.0000
  H   H1076     1.0  0.68744  0.10303  0.91392  1.0000
  H   H1077     1.0  0.87451  0.22198  0.64746  1.0000
  S   S156      1.0  0.51717  0.28462  0.66735  1.0000
  S   S157      1.0  0.81403  0.96326  0.98003  1.0000
  C   C609      1.0  0.55877  0.04679  0.71309  1.0000
  H   H1078     1.0  0.70376  0.06745  0.77599  1.0000
  S   S158      1.0  0.80941  0.20217  0.70063  1.0000
  C   C610      1.0  0.53141  0.10720  0.88010  1.0000
  S   S159      1.0  0.41438  0.03160  0.58444  1.0000
  C   C611      1.0  0.85582  0.27545  0.60536  1.0000
  H   H1079     1.0  0.90020  0.97243  0.93279  1.0000
  H   H1080     1.0  0.63310  0.14270  0.00806  1.0000
  H   H1081     1.0  0.60663  0.18597  0.90366  1.0000
  C   C612      1.0  0.53410  0.98182  0.93711  1.0000
  C   C613      1.0  0.64622  0.27658  0.81504  1.0000
  H   H1082     1.0  0.74775  0.28418  0.52699  1.0000
  H   H1083     1.0  0.62550  0.09161  0.81969  1.0000
  H   H1084     1.0  0.71447  0.26676  0.87024  1.0000
  C   C614      1.0  0.66841  0.13239  0.57460  1.0000
  Fe  Fe85      1.0  0.90176  0.20441  0.96469  1.0000
  H   H1085     1.0  0.64850  0.09392  0.86249  1.0000
  H   H1086     1.0  0.74685  0.00468  0.98368  1.0000
  C   C615      1.0  0.81511  0.11236  0.60169  1.0000
  H   H1087     1.0  0.63668  0.20639  0.86703  1.0000
  C   C616      1.0  0.81682  0.03570  0.83951  1.0000
  H   H1088     1.0  0.68066  0.98380  0.75283  1.0000
  Fe  Fe86      1.0  0.87733  0.25991  0.52667  1.0000
  H   H1089     1.0  0.65473  0.28391  0.58928  1.0000
  C   C617      1.0  0.69571  0.97123  0.55087  1.0000
  C   C618      1.0  0.45814  0.25095  0.85888  1.0000
  H   H1090     1.0  0.48490  0.01785  0.67881  1.0000
  S   S160      1.0  0.52855  0.08573  0.92042  1.0000
  H   H1091     1.0  0.68206  0.17526  0.88367  1.0000
  H   H1092     1.0  0.68906  0.98173  0.86587  1.0000
  H   H1093     1.0  0.48504  0.18099  0.58170  1.0000
  H   H1094     1.0  0.48135  0.20518  0.63871  1.0000
  H   H1095     1.0  0.81824  0.06486  0.83782  1.0000
  H   H1096     1.0  0.54151  0.99894  0.96149  1.0000
  H   H1097     1.0  0.86377  0.07148  0.51291  1.0000
  C   C619      1.0  0.71189  0.23848  0.62357  1.0000
  C   C620      1.0  0.74502  0.16244  0.58864  1.0000
  C   C621      1.0  0.60546  0.27459  0.88330  1.0000
  C   C622      1.0  0.48823  0.22143  0.90006  1.0000
  C   C623      1.0  0.71821  0.00083  0.99596  1.0000
  H   H1098     1.0  0.70329  0.13696  0.00061  1.0000
  H   H1099     1.0  0.57722  0.27869  0.87671  1.0000
  H   H1100     1.0  0.59325  0.02870  0.75049  1.0000
  H   H1101     1.0  0.64761  0.98170  0.91737  1.0000
  C   C624      1.0  0.52531  0.13997  0.87570  1.0000
  H   H1102     1.0  0.75051  0.17341  0.95797  1.0000
  Fe  Fe87      1.0  0.74055  0.16647  0.71163  1.0000
  S   S161      1.0  0.48129  0.17797  0.70430  1.0000
  C   C625      1.0  0.64141  0.07893  0.83719  1.0000
  H   H1103     1.0  0.90377  0.09884  0.83843  1.0000
  H   H1104     1.0  0.45732  0.97948  0.83896  1.0000
  S   S162      1.0  0.82626  0.28645  0.95846  1.0000
  C   C626      1.0  0.80065  0.27196  0.91750  1.0000
  C   C627      1.0  0.53991  0.27956  0.56880  1.0000
  H   H1105     1.0  0.54395  0.16518  0.66869  1.0000
  H   H1106     1.0  0.62773  0.14217  0.87366  1.0000
  C   C628      1.0  0.47971  0.06485  0.72886  1.0000
  S   S163      1.0  0.83253  0.18686  0.95564  1.0000
  H   H1107     1.0  0.73477  0.18844  0.92016  1.0000
  Fe  Fe88      1.0  0.48765  0.23805  0.70682  1.0000
  H   H1108     1.0  0.55675  0.02532  0.69372  1.0000
  C   C629      1.0  0.49728  0.97788  0.51902  1.0000
  N   N33       1.0  0.69457  0.01210  0.68328  1.0000
  C   C630      1.0  0.49463  0.04109  0.65936  1.0000
  H   H1109     1.0  0.43028  0.97838  0.89966  1.0000
  S   S164      1.0  0.43621  0.25347  0.81763  1.0000
  C   C631      1.0  0.85671  0.04836  0.53132  1.0000
  C   C632      1.0  0.49836  0.22600  0.61959  1.0000
  H   H1110     1.0  0.43723  0.08295  0.88079  1.0000
  H   H1111     1.0  0.86029  0.18766  0.89127  1.0000
  H   H1112     1.0  0.63077  0.06552  0.52396  1.0000
  H   H1113     1.0  0.72812  0.14823  0.86786  1.0000
  S   S165      1.0  0.42303  0.11459  0.51960  1.0000
  H   H1114     1.0  0.82976  0.96594  0.59788  1.0000
  C   C633      1.0  0.68129  0.02693  0.65125  1.0000
  H   H1115     1.0  0.59778  0.24523  0.87333  1.0000
  C   C634      1.0  0.74212  0.26318  0.87683  1.0000
  H   H1116     1.0  0.58230  0.24936  0.93169  1.0000
  H   H1117     1.0  0.41625  0.98411  0.95966  1.0000
  H   H1118     1.0  0.72378  0.02995  0.00484  1.0000
  H   H1119     1.0  0.74884  0.99539  0.51892  1.0000
  H   H1120     1.0  0.63936  0.27036  0.93100  1.0000
  C   C635      1.0  0.53867  0.29321  0.60135  1.0000
  C   C636      1.0  0.90921  0.29465  0.84889  1.0000
  C   C637      1.0  0.99846  0.54283  0.50608  1.0000
  H   H1121     1.0  0.30678  0.53201  0.41023  1.0000
  H   H1122     1.0  0.35341  0.34697  0.48528  1.0000
  H   H1123     1.0  0.39357  0.56440  0.32085  1.0000
  C   C638      1.0  0.20345  0.50914  0.08331  1.0000
  H   H1124     1.0  0.35914  0.39744  0.03011  1.0000
  H   H1125     1.0  0.06371  0.57602  0.26027  1.0000
  H   H1126     1.0  0.37068  0.49813  0.21393  1.0000
  H   H1127     1.0  0.93886  0.38239  0.29326  1.0000
  H   H1128     1.0  0.09755  0.54592  0.36963  1.0000
  S   S166      1.0  0.29160  0.54306  0.16406  1.0000
  C   C639      1.0  0.97062  0.39892  0.30788  1.0000
  H   H1129     1.0  0.16908  0.45916  0.35391  1.0000
  S   S167      1.0  0.28609  0.44278  0.18969  1.0000
  H   H1130     1.0  0.02486  0.29975  0.12546  1.0000
  H   H1131     1.0  0.24267  0.35759  0.04327  1.0000
  H   H1132     1.0  0.00919  0.48706  0.27328  1.0000
  H   H1133     1.0  0.95163  0.61722  0.06949  1.0000
  C   C640      1.0  0.14561  0.60894  0.30705  1.0000
  S   S168      1.0  0.31289  0.43352  0.28531  1.0000
  H   H1134     1.0  0.19626  0.54567  0.50624  1.0000
  H   H1135     1.0  0.02576  0.53302  0.32630  1.0000
  H   H1136     1.0  0.21715  0.60110  0.09521  1.0000
  H   H1137     1.0  0.94808  0.36949  0.41210  1.0000
  H   H1138     1.0  0.99843  0.42362  0.08992  1.0000
  H   H1139     1.0  0.13938  0.36086  0.30638  1.0000
  S   S169      1.0  0.20212  0.38294  0.23090  1.0000
  H   H1140     1.0  0.31799  0.30957  0.33705  1.0000
  C   C641      1.0  0.32454  0.35227  0.23473  1.0000
  H   H1141     1.0  0.95597  0.45505  0.46041  1.0000
  H   H1142     1.0  0.02868  0.44463  0.49831  1.0000
  C   C642      1.0  0.23815  0.38792  0.37927  1.0000
  H   H1143     1.0  0.19244  0.59933  0.19363  1.0000
  H   H1144     1.0  0.95695  0.32814  0.28133  1.0000
  H   H1145     1.0  0.39746  0.62317  0.09181  1.0000
  H   H1146     1.0  0.33809  0.41274  0.22656  1.0000
  H   H1147     1.0  0.26351  0.30727  0.29654  1.0000
  H   H1148     1.0  0.02961  0.47475  0.44675  1.0000
  S   S170      1.0  0.20552  0.34333  0.14169  1.0000
  Fe  Fe89      1.0  0.18012  0.42759  0.22303  1.0000
  H   H1149     1.0  0.06431  0.58741  0.50436  1.0000
  H   H1150     1.0  0.02081  0.49507  0.01857  1.0000
  C   C643      1.0  0.15017  0.31951  0.04445  1.0000
  H   H1151     1.0  0.35396  0.53774  0.39132  1.0000
  H   H1152     1.0  0.98781  0.49846  0.40881  1.0000
  Fe  Fe90      1.0  0.20084  0.47142  0.48041  1.0000
  H   H1153     1.0  0.27364  0.54573  0.04036  1.0000
  H   H1154     1.0  0.06296  0.51204  0.25904  1.0000
  C   C644      1.0  0.99430  0.47528  0.39950  1.0000
  C   C645      1.0  0.97794  0.61777  0.05612  1.0000
  S   S171      1.0  0.16020  0.54021  0.04597  1.0000
  C   C646      1.0  0.91933  0.38161  0.49045  1.0000
  C   C647      1.0  0.28536  0.41714  0.32209  1.0000
  H   H1155     1.0  0.40227  0.50765  0.50081  1.0000
  H   H1156     1.0  0.27562  0.48364  0.06070  1.0000
  C   C648      1.0  0.08550  0.46475  0.31180  1.0000
  H   H1157     1.0  0.01230  0.39382  0.46104  1.0000
  H   H1158     1.0  0.99121  0.50679  0.16915  1.0000
  H   H1159     1.0  0.10403  0.57661  0.02835  1.0000
  H   H1160     1.0  0.00047  0.31550  0.36048  1.0000
  H   H1161     1.0  0.37983  0.40299  0.21639  1.0000
  H   H1162     1.0  0.92259  0.41144  0.22575  1.0000
  H   H1163     1.0  0.15189  0.31107  0.45881  1.0000
  C   C649      1.0  0.16719  0.31610  0.07718  1.0000
  H   H1164     1.0  0.09940  0.41697  0.11592  1.0000
  H   H1165     1.0  0.97837  0.31268  0.44179  1.0000
  C   C650      1.0  0.96144  0.43168  0.44983  1.0000
  C   C651      1.0  0.40638  0.47032  0.44043  1.0000
  C   C652      1.0  0.14795  0.44379  0.30050  1.0000
  C   C653      1.0  0.40216  0.51435  0.20321  1.0000
  S   S172      1.0  0.13467  0.46449  0.47426  1.0000
  H   H1166     1.0  0.28204  0.44736  0.49220  1.0000
  H   H1167     1.0  0.17199  0.43553  0.29626  1.0000
  C   C654      1.0  0.13276  0.60186  0.19619  1.0000
  C   C655      1.0  0.95760  0.52412  0.48853  1.0000
  C   C656      1.0  0.05368  0.57657  0.14340  1.0000
  C   C657      1.0  0.17145  0.38740  0.05765  1.0000
  C   C658      1.0  0.04374  0.47373  0.06252  1.0000
  C   C659      1.0  0.10114  0.58981  0.08147  1.0000
  H   H1168     1.0  0.20548  0.40964  0.10703  1.0000
  H   H1169     1.0  0.97018  0.52846  0.19693  1.0000
  H   H1170     1.0  0.32888  0.30004  0.27524  1.0000
  H   H1171     1.0  0.05334  0.45729  0.04579  1.0000
  H   H1172     1.0  0.14287  0.52429  0.19459  1.0000
  C   C660      1.0  0.27521  0.33405  0.23460  1.0000
  C   C661      1.0  0.30625  0.48306  0.06569  1.0000
  C   C662      1.0  0.33273  0.62613  0.05199  1.0000
  H   H1173     1.0  0.93023  0.61731  0.38531  1.0000
  H   H1174     1.0  0.18388  0.48250  0.06815  1.0000
  H   H1175     1.0  0.33101  0.50609  0.05051  1.0000
  S   S173      1.0  0.17844  0.40765  0.48888  1.0000
  H   H1176     1.0  0.05930  0.46195  0.19161  1.0000
  H   H1177     1.0  0.13694  0.37649  0.34906  1.0000
  H   H1178     1.0  0.33143  0.46750  0.40083  1.0000
  H   H1179     1.0  0.94884  0.31455  0.14703  1.0000
  C   C663      1.0  0.38176  0.54828  0.26509  1.0000
  H   H1180     1.0  0.96788  0.41642  0.32864  1.0000
  S   S174      1.0  0.11094  0.39003  0.42052  1.0000
  H   H1181     1.0  0.31712  0.48988  0.09340  1.0000
  H   H1182     1.0  0.36849  0.42259  0.47282  1.0000
  C   C664      1.0  0.33816  0.59335  0.03472  1.0000
  C   C665      1.0  0.22287  0.61287  0.46899  1.0000
  S   S175      1.0  0.20647  0.46866  0.42421  1.0000
  H   H1183     1.0  0.93096  0.50079  0.50054  1.0000
  H   H1184     1.0  0.06894  0.56338  0.08086  1.0000
  C   C666      1.0  0.03296  0.57280  0.49054  1.0000
  C   C667      1.0  0.37140  0.48214  0.50675  1.0000
  C   C668      1.0  0.06575  0.36528  0.06314  1.0000
  H   H1185     1.0  0.01091  0.43247  0.41870  1.0000
  C   C669      1.0  0.23767  0.58681  0.45111  1.0000
  C   C670      1.0  0.04100  0.60944  0.32174  1.0000
  H   H1186     1.0  0.20926  0.42350  0.36350  1.0000
  H   H1187     1.0  0.28342  0.46044  0.41811  1.0000
  H   H1188     1.0  0.02374  0.39001  0.06015  1.0000
  C   C671      1.0  0.36128  0.32282  0.48935  1.0000
  H   H1189     1.0  0.19116  0.60559  0.45589  1.0000
  H   H1190     1.0  0.13397  0.59370  0.28158  1.0000
  H   H1191     1.0  0.37203  0.44802  0.02253  1.0000
  H   H1192     1.0  0.01828  0.50867  0.23185  1.0000
  S   S176      1.0  0.91397  0.54383  0.31259  1.0000
  S   S177      1.0  0.11559  0.41883  0.23421  1.0000
  H   H1193     1.0  0.00869  0.55155  0.27067  1.0000
  N   N34       1.0  0.07299  0.59500  0.32968  1.0000
  H   H1194     1.0  0.11312  0.59462  0.43488  1.0000
  C   C672      1.0  0.17727  0.60991  0.21118  1.0000
  C   C673      1.0  0.24042  0.59488  0.41273  1.0000
  S   S178      1.0  0.26037  0.51903  0.50790  1.0000
  H   H1195     1.0  0.02314  0.48933  0.38482  1.0000
  H   H1196     1.0  0.32583  0.56338  0.32724  1.0000
  C   C674      1.0  0.00055  0.41137  0.20248  1.0000
  N   N35       1.0  0.06044  0.44510  0.11858  1.0000
  H   H1197     1.0  0.15415  0.62563  0.48318  1.0000
  H   H1198     1.0  0.06149  0.36732  0.33527  1.0000
  H   H1199     1.0  0.31592  0.38309  0.33867  1.0000
  C   C675      1.0  0.18912  0.38418  0.09008  1.0000
  H   H1200     1.0  0.37396  0.52010  0.44991  1.0000
  H   H1201     1.0  0.26838  0.30059  0.17154  1.0000
  C   C676      1.0  0.34131  0.49485  0.45252  1.0000
  C   C677      1.0  0.07729  0.59113  0.36813  1.0000
  H   H1202     1.0  0.18902  0.51885  0.18863  1.0000
  C   C678      1.0  0.00839  0.47861  0.04229  1.0000
  C   C679      1.0  0.18611  0.34832  0.10025  1.0000
  H   H1203     1.0  0.92002  0.52050  0.44128  1.0000
  N   N36       1.0  0.91180  0.62346  0.49083  1.0000
  C   C680      1.0  0.09714  0.48438  0.13131  1.0000
  C   C681      1.0  0.22180  0.57578  0.09903  1.0000
  C   C682      1.0  0.11479  0.46723  0.33880  1.0000
  C   C683      1.0  0.99565  0.43110  0.50679  1.0000
  H   H1204     1.0  0.33913  0.35930  0.26163  1.0000
  C   C684      1.0  0.00194  0.45321  0.42966  1.0000
  H   H1205     1.0  0.14709  0.58751  0.32528  1.0000
  C   C685      1.0  0.23208  0.41430  0.35793  1.0000
  H   H1206     1.0  0.22751  0.36105  0.49361  1.0000
  H   H1207     1.0  0.27759  0.42110  0.07406  1.0000
  C   C686      1.0  0.26840  0.37665  0.37240  1.0000
  N   N37       1.0  0.22009  0.60850  0.50731  1.0000
  H   H1208     1.0  0.04506  0.57180  0.37719  1.0000
  H   H1209     1.0  0.01548  0.39401  0.21358  1.0000
  H   H1210     1.0  0.37757  0.48656  0.15269  1.0000
  H   H1211     1.0  0.12292  0.61869  0.21222  1.0000
  C   C687      1.0  0.97270  0.32963  0.42079  1.0000
  S   S179      1.0  0.05560  0.35664  0.50263  1.0000
  H   H1212     1.0  0.30383  0.37938  0.49195  1.0000
  H   H1213     1.0  0.33398  0.33255  0.22266  1.0000
  C   C688      1.0  0.95145  0.53516  0.45507  1.0000
  C   C689      1.0  0.25501  0.42825  0.32888  1.0000
  C   C690      1.0  0.29904  0.43295  0.48162  1.0000
  N   N38       1.0  0.09502  0.61477  0.14105  1.0000
  H   H1214     1.0  0.96673  0.45462  0.38181  1.0000
  H   H1215     1.0  0.02525  0.33939  0.23860  1.0000
  H   H1216     1.0  0.98064  0.44937  0.03481  1.0000
  H   H1217     1.0  0.40335  0.49014  0.42096  1.0000
  H   H1218     1.0  0.17365  0.54556  0.15769  1.0000
  H   H1219     1.0  0.35195  0.57994  0.05345  1.0000
  H   H1220     1.0  0.12347  0.55389  0.43003  1.0000
  S   S180      1.0  0.19221  0.43499  0.16759  1.0000
  C   C691      1.0  0.08643  0.45045  0.27950  1.0000
  H   H1221     1.0  0.29813  0.37601  0.05233  1.0000
  H   H1222     1.0  0.17485  0.59487  0.23595  1.0000
  C   C692      1.0  0.23352  0.51017  0.10900  1.0000
  H   H1223     1.0  0.32423  0.50753  0.46556  1.0000
  H   H1224     1.0  0.07135  0.31388  0.35652  1.0000
  H   H1225     1.0  0.30110  0.50592  0.37093  1.0000
  H   H1226     1.0  0.06943  0.54559  0.42586  1.0000
  H   H1227     1.0  0.13781  0.29877  0.23377  1.0000
  H   H1228     1.0  0.15349  0.47704  0.13808  1.0000
  Fe  Fe91      1.0  0.17915  0.40402  0.43199  1.0000
  C   C693      1.0  0.98573  0.37091  0.32335  1.0000
  H   H1229     1.0  0.99650  0.42750  0.22367  1.0000
  H   H1230     1.0  0.26275  0.33992  0.20938  1.0000
  H   H1231     1.0  0.97632  0.58865  0.05914  1.0000
  H   H1232     1.0  0.24305  0.62371  0.02510  1.0000
  H   H1233     1.0  0.07259  0.29731  0.31388  1.0000
  C   C694      1.0  0.15140  0.35492  0.03496  1.0000
  H   H1234     1.0  0.96205  0.35201  0.34142  1.0000
  H   H1235     1.0  0.08827  0.38553  0.04502  1.0000
  H   H1236     1.0  0.07112  0.36186  0.29298  1.0000
  H   H1237     1.0  0.05305  0.60855  0.44592  1.0000
  H   H1238     1.0  0.00683  0.39418  0.13851  1.0000
  C   C695      1.0  0.03811  0.41966  0.14810  1.0000
  N   N39       1.0  0.34371  0.46319  0.47400  1.0000
  C   C696      1.0  0.10291  0.56673  0.42067  1.0000
  H   H1239     1.0  0.03033  0.57334  0.12129  1.0000
  C   C697      1.0  0.10976  0.60224  0.04440  1.0000
  C   C698      1.0  0.07981  0.32328  0.32996  1.0000
  H   H1240     1.0  0.20516  0.32307  0.27379  1.0000
  H   H1241     1.0  0.96536  0.53385  0.15127  1.0000
  H   H1242     1.0  0.02326  0.36418  0.09898  1.0000
  C   C699      1.0  0.98599  0.56556  0.43980  1.0000
  C   C700      1.0  0.97772  0.37775  0.46578  1.0000
  H   H1243     1.0  0.12019  0.45803  0.17284  1.0000
  H   H1244     1.0  0.36038  0.62747  0.11584  1.0000
  H   H1245     1.0  0.05662  0.40588  0.16043  1.0000
  C   C701      1.0  0.10298  0.62350  0.10364  1.0000
  H   H1246     1.0  0.15594  0.55912  0.49825  1.0000
  C   C702      1.0  0.06009  0.30760  0.23748  1.0000
  H   H1247     1.0  0.14047  0.59542  0.37891  1.0000
  C   C703      1.0  0.12819  0.35063  0.33219  1.0000
  H   H1248     1.0  0.00962  0.36731  0.27594  1.0000
  H   H1249     1.0  0.07707  0.54295  0.31644  1.0000
  C   C704      1.0  0.16127  0.52023  0.17509  1.0000
  C   C705      1.0  0.11748  0.43981  0.27387  1.0000
  H   H1250     1.0  0.14371  0.62536  0.04313  1.0000
  H   H1251     1.0  0.40089  0.42887  0.40101  1.0000
  C   C706      1.0  0.29998  0.44255  0.05637  1.0000
  Fe  Fe92      1.0  0.26715  0.43507  0.24355  1.0000
  C   C707      1.0  0.26757  0.32432  0.01921  1.0000
  H   H1252     1.0  0.91849  0.41899  0.16251  1.0000
  H   H1253     1.0  0.09016  0.62008  0.38153  1.0000
  C   C708      1.0  0.14616  0.45695  0.33316  1.0000
  C   C709      1.0  0.07805  0.42425  0.09858  1.0000
  C   C710      1.0  0.98660  0.53257  0.17308  1.0000
  H   H1254     1.0  0.95094  0.30865  0.40007  1.0000
  S   S181      1.0  0.97939  0.58023  0.39841  1.0000
  H   H1255     1.0  0.11043  0.56989  0.19860  1.0000
  H   H1256     1.0  0.23798  0.48479  0.11281  1.0000
  H   H1257     1.0  0.40708  0.51563  0.32283  1.0000
  H   H1258     1.0  0.01681  0.38906  0.33844  1.0000
  Fe  Fe93      1.0  0.25789  0.48289  0.18614  1.0000
  H   H1259     1.0  0.38640  0.32717  0.47225  1.0000
  Fe  Fe94      1.0  0.91724  0.53795  0.36969  1.0000
  C   C711      1.0  0.02823  0.45201  0.09651  1.0000
  C   C712      1.0  0.25204  0.57681  0.12481  1.0000
  C   C713      1.0  0.10646  0.57426  0.38230  1.0000
  H   H1260     1.0  0.93109  0.37736  0.03111  1.0000
  C   C714      1.0  0.04417  0.38506  0.08032  1.0000
  H   H1261     1.0  0.93122  0.60049  0.44981  1.0000
  H   H1262     1.0  0.31073  0.55445  0.28183  1.0000
  C   C715      1.0  0.39441  0.51671  0.16440  1.0000
  H   H1263     1.0  0.06119  0.47252  0.31631  1.0000
  C   C716      1.0  0.32896  0.54945  0.30393  1.0000
  C   C717      1.0  0.03215  0.51238  0.25876  1.0000
  H   H1264     1.0  0.92243  0.49810  0.03191  1.0000
  H   H1265     1.0  0.36148  0.51579  0.26684  1.0000
  H   H1266     1.0  0.11358  0.50278  0.10953  1.0000
  H   H1267     1.0  0.04125  0.33861  0.04842  1.0000
  C   C718      1.0  0.29259  0.39183  0.34408  1.0000
  C   C719      1.0  0.13297  0.48219  0.15453  1.0000
  H   H1268     1.0  0.27961  0.41799  0.45754  1.0000
  H   H1269     1.0  0.95887  0.32473  0.19258  1.0000
  C   C720      1.0  0.13338  0.61259  0.15780  1.0000
  N   N40       1.0  0.96347  0.40560  0.47817  1.0000
  C   C721      1.0  0.36297  0.44287  0.45531  1.0000
  H   H1270     1.0  0.27309  0.35623  0.38899  1.0000
  H   H1271     1.0  0.99361  0.41946  0.29020  1.0000
  H   H1272     1.0  0.17285  0.41488  0.05052  1.0000
  C   C722      1.0  0.02948  0.57069  0.17605  1.0000
  H   H1273     1.0  0.06301  0.44744  0.25894  1.0000
  H   H1274     1.0  0.07093  0.31911  0.21184  1.0000
  C   C723      1.0  0.95166  0.35216  0.43367  1.0000
  C   C724      1.0  0.28102  0.43038  0.01852  1.0000
  H   H1275     1.0  0.25179  0.57645  0.40062  1.0000
  H   H1276     1.0  0.13818  0.59023  0.14470  1.0000
  H   H1277     1.0  0.14495  0.33483  0.34334  1.0000
  Fe  Fe95      1.0  0.11277  0.39992  0.47692  1.0000
  C   C725      1.0  0.05533  0.34466  0.31548  1.0000
  H   H1278     1.0  0.37407  0.53069  0.15849  1.0000
  H   H1279     1.0  0.97525  0.35641  0.48601  1.0000
  C   C726      1.0  0.98516  0.29681  0.33690  1.0000
  C   C727      1.0  0.25755  0.54382  0.12989  1.0000
  C   C728      1.0  0.01898  0.30894  0.24248  1.0000
  H   H1280     1.0  0.03706  0.61335  0.29363  1.0000
  H   H1281     1.0  0.30863  0.61113  0.07097  1.0000
  H   H1282     1.0  0.96842  0.39128  0.18972  1.0000
  N   N41       1.0  0.00791  0.31913  0.30620  1.0000
  H   H1283     1.0  0.38851  0.59954  0.29381  1.0000
  H   H1284     1.0  0.99767  0.49531  0.05778  1.0000
  C   C729      1.0  0.32020  0.51664  0.39604  1.0000
  H   H1285     1.0  0.02185  0.59454  0.18013  1.0000
  H   H1286     1.0  0.08643  0.32640  0.25670  1.0000
  H   H1287     1.0  0.26977  0.59252  0.46209  1.0000
  C   C730      1.0  0.31774  0.48164  0.41615  1.0000
  H   H1288     1.0  0.33119  0.44343  0.06169  1.0000
  S   S182      1.0  0.11033  0.48126  0.37977  1.0000
  H   H1289     1.0  0.01245  0.45680  0.16628  1.0000
  H   H1290     1.0  0.08533  0.50172  0.14465  1.0000
  C   C731      1.0  0.05431  0.55454  0.31314  1.0000
  C   C732      1.0  0.29590  0.39948  0.50556  1.0000
  C   C733      1.0  0.98965  0.34579  0.29475  1.0000
  C   C734      1.0  0.93537  0.30464  0.17218  1.0000
  C   C735      1.0  0.97335  0.62657  0.01812  1.0000
  H   H1291     1.0  0.00386  0.35044  0.41083  1.0000
  H   H1292     1.0  0.91952  0.33021  0.44065  1.0000
  H   H1293     1.0  0.33181  0.38540  0.18765  1.0000
  H   H1294     1.0  0.08347  0.35629  0.08268  1.0000
  C   C736      1.0  0.03959  0.55118  0.27438  1.0000
  H   H1295     1.0  0.34005  0.42350  0.43400  1.0000
  H   H1296     1.0  0.12530  0.58122  0.09106  1.0000
  H   H1297     1.0  0.24776  0.42576  0.01837  1.0000
  H   H1298     1.0  0.31493  0.51730  0.30802  1.0000
  C   C737      1.0  0.19770  0.54192  0.07825  1.0000
  H   H1299     1.0  0.01774  0.46961  0.11106  1.0000
  H   H1300     1.0  0.24954  0.44795  0.31199  1.0000
  H   H1301     1.0  0.05947  0.55114  0.14093  1.0000
  S   S183      1.0  0.24366  0.47896  0.24115  1.0000
  H   H1302     1.0  0.07138  0.50357  0.06749  1.0000
  C   C738      1.0  0.02893  0.44070  0.17695  1.0000
  Fe  Fe96      1.0  0.21927  0.39426  0.17650  1.0000
  H   H1303     1.0  0.21466  0.55506  0.45359  1.0000
  H   H1304     1.0  0.04838  0.56953  0.19928  1.0000
  C   C739      1.0  0.34455  0.39063  0.21506  1.0000
  S   S184      1.0  0.20830  0.36882  0.41465  1.0000
  C   C740      1.0  0.02656  0.58469  0.45763  1.0000
  H   H1305     1.0  0.26973  0.35197  0.25329  1.0000
  H   H1306     1.0  0.09915  0.44401  0.07920  1.0000
  Fe  Fe97      1.0  0.13815  0.45542  0.41857  1.0000
  C   C741      1.0  0.27234  0.36421  0.03106  1.0000
  C   C742      1.0  0.37619  0.56756  0.29737  1.0000
  C   C743      1.0  0.29502  0.56039  0.01960  1.0000
  H   H1307     1.0  0.93309  0.41465  0.43118  1.0000
  H   H1308     1.0  0.27020  0.60257  0.14147  1.0000
  H   H1309     1.0  0.00877  0.58698  0.32911  1.0000
  H   H1310     1.0  0.36610  0.55637  0.24292  1.0000
  H   H1311     1.0  0.29492  0.31246  0.06704  1.0000
  H   H1312     1.0  0.96856  0.53385  0.01201  1.0000
  H   H1313     1.0  0.20844  0.58744  0.39997  1.0000
  H   H1314     1.0  0.26346  0.62630  0.40849  1.0000
  H   H1315     1.0  0.35926  0.60495  0.01339  1.0000
  H   H1316     1.0  0.08837  0.61361  0.03367  1.0000
  C   C744      1.0  0.11541  0.62461  0.31688  1.0000
  C   C745      1.0  0.26475  0.29837  0.04989  1.0000
  C   C746      1.0  0.92767  0.62663  0.45560  1.0000
  H   H1317     1.0  0.33189  0.62760  0.30583  1.0000
  H   H1318     1.0  0.91889  0.35975  0.50945  1.0000
  C   C747      1.0  0.36241  0.41917  0.01018  1.0000
  H   H1319     1.0  0.36801  0.52749  0.58198  1.0000
  H   H1320     1.0  0.32740  0.42998  0.96858  1.0000
  S   S185      1.0  0.09682  0.33805  0.65922  1.0000
  H   H1321     1.0  0.06157  0.54058  0.70359  1.0000
  H   H1322     1.0  0.25509  0.34051  0.71994  1.0000
  H   H1323     1.0  0.20831  0.33427  0.58446  1.0000
  C   C748      1.0  0.04684  0.31722  0.59894  1.0000
  Fe  Fe98      1.0  0.19948  0.42517  0.75256  1.0000
  S   S186      1.0  0.20823  0.48614  0.74744  1.0000
  H   H1324     1.0  0.33071  0.47692  0.76894  1.0000
  C   C749      1.0  0.33581  0.37473  0.85177  1.0000
  H   H1325     1.0  0.31326  0.60637  0.92693  1.0000
  H   H1326     1.0  0.92260  0.42624  0.52661  1.0000
  C   C750      1.0  0.40635  0.47447  0.75322  1.0000
  H   H1327     1.0  0.32985  0.57198  0.62109  1.0000
  H   H1328     1.0  0.27113  0.41846  0.93494  1.0000
  C   C751      1.0  0.24296  0.37593  0.97634  1.0000
  C   C752      1.0  0.27086  0.30452  0.75591  1.0000
  Fe  Fe99      1.0  0.91292  0.48251  0.64316  1.0000
  S   S187      1.0  0.20007  0.47455  0.00045  1.0000
  C   C753      1.0  0.32055  0.52629  0.77384  1.0000
  H   H1329     1.0  0.29122  0.33273  0.57157  1.0000
  H   H1330     1.0  0.20200  0.55018  0.69143  1.0000
  C   C754      1.0  0.08172  0.47221  0.78831  1.0000
  H   H1331     1.0  0.29530  0.32876  0.00536  1.0000
  H   H1332     1.0  0.29807  0.45633  0.00208  1.0000
  C   C755      1.0  0.05345  0.59192  0.70981  1.0000
  H   H1333     1.0  0.30081  0.30352  0.76344  1.0000
  C   C756      1.0  0.03018  0.61275  0.69154  1.0000
  H   H1334     1.0  0.18439  0.36429  0.56948  1.0000
  H   H1335     1.0  0.20344  0.40143  0.90072  1.0000
  H   H1336     1.0  0.29199  0.31817  0.63331  1.0000
  H   H1337     1.0  0.33864  0.40154  0.83895  1.0000
  N   N42       1.0  0.28018  0.39432  0.00361  1.0000
  C   C757      1.0  0.93250  0.33058  0.74653  1.0000
  H   H1338     1.0  0.92190  0.40840  0.97511  1.0000
  H   H1339     1.0  0.30442  0.44380  0.84867  1.0000
  H   H1340     1.0  0.13902  0.60343  0.52381  1.0000
  C   C758      1.0  0.27616  0.30247  0.57957  1.0000
  H   H1341     1.0  0.29270  0.47849  0.73683  1.0000
  H   H1342     1.0  0.12745  0.40742  0.55034  1.0000
  H   H1343     1.0  0.00806  0.59881  0.00433  1.0000
  H   H1344     1.0  0.36546  0.55678  0.88181  1.0000
  S   S188      1.0  0.09355  0.47833  0.74533  1.0000
  H   H1345     1.0  0.40654  0.35164  0.53241  1.0000
  H   H1346     1.0  0.92559  0.41421  0.86732  1.0000
  C   C759      1.0  0.04670  0.47513  0.79812  1.0000
  H   H1347     1.0  0.04297  0.38411  0.93873  1.0000
  H   H1348     1.0  0.37812  0.53937  0.64477  1.0000
  C   C760      1.0  0.09821  0.46093  0.84743  1.0000
  S   S189      1.0  0.09592  0.44269  0.99073  1.0000
  C   C761      1.0  0.33336  0.45080  0.64594  1.0000
  H   H1349     1.0  0.38060  0.44350  0.70494  1.0000
  H   H1350     1.0  0.33559  0.34610  0.80555  1.0000
  H   H1351     1.0  0.99113  0.45656  0.51292  1.0000
  H   H1352     1.0  0.11204  0.30571  0.56948  1.0000
  H   H1353     1.0  0.15122  0.56369  0.79120  1.0000
  S   S190      1.0  0.21089  0.41910  0.69824  1.0000
  S   S191      1.0  0.00671  0.52982  0.54779  1.0000
  H   H1354     1.0  0.29591  0.36904  0.75347  1.0000
  C   C762      1.0  0.22129  0.58923  0.75462  1.0000
  C   C763      1.0  0.26200  0.51931  0.55267  1.0000
  H   H1355     1.0  0.40571  0.44847  0.97034  1.0000
  H   H1356     1.0  0.30867  0.32440  0.69557  1.0000
  H   H1357     1.0  0.19680  0.48525  0.86681  1.0000
  H   H1358     1.0  0.13495  0.46357  0.80550  1.0000
  H   H1359     1.0  0.32662  0.62127  0.64990  1.0000
  H   H1360     1.0  0.29270  0.61617  0.68324  1.0000
  C   C764      1.0  0.19353  0.59355  0.88378  1.0000
  H   H1361     1.0  0.23771  0.30765  0.00214  1.0000
  N   N43       1.0  0.00947  0.31768  0.89347  1.0000
  H   H1362     1.0  0.39018  0.53794  0.74227  1.0000
  C   C765      1.0  0.26227  0.61601  0.52545  1.0000
  H   H1363     1.0  0.29509  0.51058  0.79157  1.0000
  H   H1364     1.0  0.21244  0.32856  0.76261  1.0000
  H   H1365     1.0  0.31640  0.38052  0.97008  1.0000
  H   H1366     1.0  0.24306  0.35111  0.96276  1.0000
  C   C766      1.0  0.00775  0.31766  0.71997  1.0000
  H   H1367     1.0  0.98288  0.62500  0.88921  1.0000
  C   C767      1.0  0.30085  0.55022  0.60697  1.0000
  H   H1368     1.0  0.92959  0.57160  0.78664  1.0000
  C   C768      1.0  0.17448  0.55433  0.86408  1.0000
  H   H1369     1.0  0.29591  0.41491  0.60096  1.0000
  C   C769      1.0  0.03720  0.32189  0.56437  1.0000
  C   C770      1.0  0.06761  0.57909  0.93082  1.0000
  C   C771      1.0  0.29131  0.42947  0.62315  1.0000
  H   H1370     1.0  0.31539  0.48722  0.89860  1.0000
  H   H1371     1.0  0.17349  0.58949  0.90522  1.0000
  Fe  Fe100     1.0  0.21445  0.47800  0.69220  1.0000
  S   S192      1.0  0.96058  0.54259  0.62723  1.0000
  H   H1372     1.0  0.34902  0.35859  0.72687  1.0000
  C   C772      1.0  0.40702  0.51693  0.68540  1.0000
  H   H1373     1.0  0.97945  0.57940  0.90127  1.0000
  H   H1374     1.0  0.00252  0.39476  0.98349  1.0000
  H   H1375     1.0  0.18618  0.31611  0.81997  1.0000
  H   H1376     1.0  0.05720  0.39526  0.65434  1.0000
  H   H1377     1.0  0.24529  0.60699  0.96405  1.0000
  C   C773      1.0  0.03461  0.43530  0.56544  1.0000
  C   C774      1.0  0.39922  0.42503  0.98933  1.0000
  H   H1378     1.0  0.00692  0.56431  0.94918  1.0000
  Fe  Fe101     1.0  0.15565  0.49945  0.00426  1.0000
  H   H1379     1.0  0.21199  0.36278  0.98840  1.0000
  H   H1380     1.0  0.35111  0.53783  0.71149  1.0000
  H   H1381     1.0  0.25049  0.32371  0.83658  1.0000
  C   C775      1.0  0.22877  0.49503  0.60594  1.0000
  C   C776      1.0  0.17933  0.33778  0.58404  1.0000
  H   H1382     1.0  0.91688  0.53058  0.00060  1.0000
  H   H1383     1.0  0.01584  0.34234  0.96582  1.0000
  C   C777      1.0  0.25058  0.37508  0.51644  1.0000
  H   H1384     1.0  0.37222  0.42292  0.78421  1.0000
  C   C778      1.0  0.22701  0.49248  0.56998  1.0000
  H   H1385     1.0  0.35235  0.32179  0.54310  1.0000
  S   S193      1.0  0.12791  0.39550  0.74344  1.0000
  H   H1386     1.0  0.94500  0.62105  0.94607  1.0000
  S   S194      1.0  0.05110  0.45782  0.90045  1.0000
  H   H1387     1.0  0.11152  0.56017  0.75813  1.0000
  Fe  Fe102     1.0  0.14005  0.39451  0.68827  1.0000
  H   H1388     1.0  0.05024  0.45148  0.66719  1.0000
  C   C779      1.0  0.96525  0.59870  0.90463  1.0000
  H   H1389     1.0  0.20975  0.35859  0.90725  1.0000
  H   H1390     1.0  0.09795  0.60626  0.78962  1.0000
  H   H1391     1.0  0.31212  0.54558  0.75752  1.0000
  H   H1392     1.0  0.19823  0.55847  0.76129  1.0000
  C   C780      1.0  0.21450  0.45239  0.83449  1.0000
  H   H1393     1.0  0.06422  0.44070  0.55395  1.0000
  H   H1394     1.0  0.11664  0.35994  0.81543  1.0000
  H   H1395     1.0  0.35782  0.47221  0.62962  1.0000
  H   H1396     1.0  0.13999  0.61388  0.82247  1.0000
  C   C781      1.0  0.24109  0.40378  0.94797  1.0000
  C   C782      1.0  0.19056  0.57009  0.68000  1.0000
  H   H1397     1.0  0.93203  0.61384  0.54244  1.0000
  C   C783      1.0  0.97196  0.60646  0.74796  1.0000
  C   C784      1.0  0.37702  0.32306  0.52697  1.0000
  C   C785      1.0  0.03695  0.47015  0.83251  1.0000
  C   C786      1.0  0.11591  0.59267  0.80291  1.0000
  C   C787      1.0  0.28346  0.34304  0.73597  1.0000
  C   C788      1.0  0.10751  0.46517  0.81296  1.0000
  H   H1398     1.0  0.36849  0.38035  0.86099  1.0000
  C   C789      1.0  0.14000  0.30114  0.56819  1.0000
  C   C790      1.0  0.99547  0.40983  0.54093  1.0000
  C   C791      1.0  0.25677  0.48910  0.88595  1.0000
  H   H1399     1.0  0.00901  0.33177  0.65307  1.0000
  H   H1400     1.0  0.97797  0.35289  0.89536  1.0000
  H   H1401     1.0  0.04156  0.34372  0.82140  1.0000
  H   H1402     1.0  0.94530  0.47002  0.98619  1.0000
  Fe  Fe103     1.0  0.13773  0.45597  0.73229  1.0000
  C   C792      1.0  0.17652  0.55789  0.55231  1.0000
  C   C793      1.0  0.24449  0.44027  0.82955  1.0000
  C   C794      1.0  0.03382  0.39022  0.67340  1.0000
  H   H1403     1.0  0.32625  0.56824  0.55784  1.0000
  C   C795      1.0  0.96216  0.35005  0.71744  1.0000
  C   C796      1.0  0.32834  0.47200  0.67708  1.0000
  H   H1404     1.0  0.95332  0.35458  0.96488  1.0000
  S   S195      1.0  0.26335  0.51831  0.92186  1.0000
  C   C797      1.0  0.35985  0.51789  0.72667  1.0000
  H   H1405     1.0  0.14993  0.56806  0.63450  1.0000
  S   S196      1.0  0.16210  0.52202  0.95099  1.0000
  C   C798      1.0  0.01041  0.62774  0.99933  1.0000
  C   C799      1.0  0.17190  0.61662  0.75933  1.0000
  H   H1406     1.0  0.12912  0.51140  0.58195  1.0000
  C   C800      1.0  0.39498  0.56641  0.89798  1.0000
  C   C801      1.0  0.35171  0.49729  0.53257  1.0000
  H   H1407     1.0  0.34066  0.43808  0.73173  1.0000
  H   H1408     1.0  0.29689  0.59192  0.78401  1.0000
  H   H1409     1.0  0.01056  0.61379  0.55108  1.0000
  H   H1410     1.0  0.24290  0.58614  0.73756  1.0000
  C   C802      1.0  0.29895  0.54790  0.57120  1.0000
  C   C803      1.0  0.06287  0.46321  0.85729  1.0000
  H   H1411     1.0  0.13009  0.52224  0.65724  1.0000
  H   H1412     1.0  0.97409  0.33601  0.83712  1.0000
  N   N44       1.0  0.97535  0.32494  0.69827  1.0000
  H   H1413     1.0  0.24906  0.35157  0.53358  1.0000
  H   H1414     1.0  0.95597  0.31009  0.92082  1.0000
  H   H1415     1.0  0.17529  0.53794  0.63197  1.0000
  Fe  Fe104     1.0  0.94865  0.51390  0.57567  1.0000
  H   H1416     1.0  0.37885  0.31491  0.59668  1.0000
  C   C804      1.0  0.27466  0.59110  0.80253  1.0000
  H   H1417     1.0  0.40713  0.57340  0.68013  1.0000
  H   H1418     1.0  0.21825  0.59628  0.67049  1.0000
  H   H1419     1.0  0.08855  0.61155  0.71078  1.0000
  C   C805      1.0  0.20460  0.38085  0.92031  1.0000
  H   H1420     1.0  0.99579  0.38195  0.53666  1.0000
  C   C806      1.0  0.26555  0.52431  0.62436  1.0000
  C   C807      1.0  0.91921  0.57675  0.88861  1.0000
  H   H1421     1.0  0.31682  0.36904  0.87433  1.0000
  C   C808      1.0  0.99597  0.34758  0.66703  1.0000
  C   C809      1.0  0.06661  0.35393  0.54667  1.0000
  H   H1422     1.0  0.02695  0.48099  0.77907  1.0000
  C   C810      1.0  0.10487  0.38246  0.56397  1.0000
  H   H1423     1.0  0.36726  0.56920  0.94394  1.0000
  C   C811      1.0  0.98669  0.33432  0.91262  1.0000
  H   H1424     1.0  0.19091  0.61494  0.86602  1.0000
  H   H1425     1.0  0.17327  0.36582  0.93167  1.0000
  H   H1426     1.0  0.94177  0.60313  0.00698  1.0000
  H   H1427     1.0  0.00712  0.30043  0.55119  1.0000
  H   H1428     1.0  0.30021  0.44976  0.68989  1.0000
  H   H1429     1.0  0.93201  0.37210  0.60596  1.0000
  H   H1430     1.0  0.95026  0.61884  0.74109  1.0000
  S   S197      1.0  0.14565  0.43462  0.92689  1.0000
  C   C812      1.0  0.20474  0.29935  0.77337  1.0000
  N   N45       1.0  0.36682  0.49180  0.70295  1.0000
  Fe  Fe105     1.0  0.14065  0.41928  0.98227  1.0000
  H   H1431     1.0  0.02782  0.34302  0.73802  1.0000
  H   H1432     1.0  0.35122  0.54460  0.78958  1.0000
  C   C813      1.0  0.92975  0.45758  0.75876  1.0000
  H   H1433     1.0  0.96645  0.40283  0.55411  1.0000
  H   H1434     1.0  0.14326  0.49398  0.54574  1.0000
  H   H1435     1.0  0.28096  0.45069  0.61311  1.0000
  H   H1436     1.0  0.19266  0.55673  0.84179  1.0000
  C   C814      1.0  0.13708  0.51740  0.55494  1.0000
  H   H1437     1.0  0.07504  0.36439  0.89655  1.0000
  C   C815      1.0  0.04348  0.55423  0.69051  1.0000
  H   H1438     1.0  0.18657  0.44287  0.81653  1.0000
  H   H1439     1.0  0.20400  0.55762  0.56746  1.0000
  C   C816      1.0  0.96688  0.60864  0.94335  1.0000
  H   H1440     1.0  0.29417  0.60680  0.82644  1.0000
  H   H1441     1.0  0.94988  0.38438  0.77553  1.0000
  H   H1442     1.0  0.94896  0.32203  0.76717  1.0000
  H   H1443     1.0  0.93108  0.45843  0.81379  1.0000
  H   H1444     1.0  0.05121  0.39433  0.69909  1.0000
  H   H1445     1.0  0.96222  0.58066  0.73084  1.0000
  H   H1446     1.0  0.03089  0.31622  0.70361  1.0000
  C   C817      1.0  0.24953  0.61117  0.78766  1.0000
  H   H1447     1.0  0.98241  0.39841  0.94053  1.0000
  H   H1448     1.0  0.19855  0.47012  0.55566  1.0000
  C   C818      1.0  0.94142  0.61609  0.51582  1.0000
  S   S198      1.0  0.14459  0.45293  0.67620  1.0000
  H   H1449     1.0  0.11521  0.39883  0.83834  1.0000
  H   H1450     1.0  0.27097  0.35876  0.80439  1.0000
  H   H1451     1.0  0.03283  0.41945  0.58969  1.0000
  H   H1452     1.0  0.99084  0.37661  0.72919  1.0000
  H   H1453     1.0  0.39168  0.39722  0.97588  1.0000
  H   H1454     1.0  0.06049  0.58336  0.90336  1.0000
  H   H1455     1.0  0.95130  0.44561  0.75844  1.0000
  H   H1456     1.0  0.93730  0.50034  0.95493  1.0000
  N   N46       1.0  0.19814  0.60850  0.73575  1.0000
  C   C819      1.0  0.98578  0.37805  0.95924  1.0000
  C   C820      1.0  0.91821  0.46474  0.79000  1.0000
  H   H1457     1.0  0.20921  0.62476  0.95232  1.0000
  H   H1458     1.0  0.03594  0.46372  0.57133  1.0000
  C   C821      1.0  0.04680  0.35096  0.87732  1.0000
  H   H1459     1.0  0.11857  0.45609  0.86635  1.0000
  H   H1460     1.0  0.12837  0.36492  0.86126  1.0000
  C   C822      1.0  0.01124  0.36013  0.94503  1.0000
  H   H1461     1.0  0.14874  0.59302  0.69372  1.0000
  H   H1462     1.0  0.05247  0.56049  0.66367  1.0000
  C   C823      1.0  0.40403  0.43986  0.77388  1.0000
  C   C824      1.0  0.06056  0.34063  0.84401  1.0000
  H   H1463     1.0  0.15154  0.32067  0.51612  1.0000
  H   H1464     1.0  0.17015  0.57974  0.56449  1.0000
  C   C825      1.0  0.26889  0.33069  0.81350  1.0000
  C   C826      1.0  0.39607  0.57365  0.93312  1.0000
  H   H1465     1.0  0.38085  0.46186  0.52050  1.0000
  C   C827      1.0  0.28079  0.45260  0.85274  1.0000
  H   H1466     1.0  0.10878  0.51594  0.53959  1.0000
  S   S199      1.0  0.26810  0.52966  0.66899  1.0000
  H   H1467     1.0  0.40981  0.42011  0.75767  1.0000
  H   H1468     1.0  0.31769  0.41082  0.52931  1.0000
  H   H1469     1.0  0.95164  0.57974  0.95612  1.0000
  C   C828      1.0  0.95428  0.30391  0.84086  1.0000
  H   H1470     1.0  0.36281  0.30667  0.65860  1.0000
  C   C829      1.0  0.11385  0.37853  0.59905  1.0000
  C   C830      1.0  0.04069  0.58788  0.95367  1.0000
  C   C831      1.0  0.08512  0.34544  0.61629  1.0000
  H   H1471     1.0  0.24230  0.58345  0.91080  1.0000
  S   S200      1.0  0.92127  0.30821  0.56362  1.0000
  H   H1472     1.0  0.25261  0.55995  0.80867  1.0000
  S   S201      1.0  0.23714  0.41109  0.79346  1.0000
  H   H1473     1.0  0.99584  0.59081  0.68611  1.0000
  C   C832      1.0  0.28720  0.47747  0.88074  1.0000
  H   H1474     1.0  0.91907  0.56954  0.86124  1.0000
  S   S202      1.0  0.92840  0.45589  0.68946  1.0000
  C   C833      1.0  0.16856  0.58109  0.70695  1.0000
  H   H1475     1.0  0.34202  0.51791  0.52028  1.0000
  Fe  Fe106     1.0  0.10594  0.46289  0.93649  1.0000
  H   H1476     1.0  0.00279  0.42384  0.68877  1.0000
  H   H1477     1.0  0.10216  0.59829  0.93881  1.0000
  C   C834      1.0  0.02527  0.29680  0.91879  1.0000
  H   H1478     1.0  0.04360  0.58336  0.73615  1.0000
  H   H1479     1.0  0.26566  0.40654  0.63776  1.0000
  C   C835      1.0  0.93368  0.51351  0.00753  1.0000
  C   C836      1.0  0.13734  0.58037  0.77720  1.0000
  H   H1480     1.0  0.32258  0.37533  0.69483  1.0000
  C   C837      1.0  0.15935  0.54829  0.64905  1.0000
  H   H1481     1.0  0.04860  0.31792  0.93885  1.0000
  H   H1482     1.0  0.34315  0.42880  0.65436  1.0000
  H   H1483     1.0  0.32319  0.47257  0.54300  1.0000
  H   H1484     1.0  0.29994  0.53822  0.00612  1.0000
  C   C838      1.0  0.02090  0.42232  0.66778  1.0000
  H   H1485     1.0  0.14354  0.40032  0.61240  1.0000
  C   C839      1.0  0.31810  0.35078  0.71192  1.0000
  H   H1486     1.0  0.20157  0.47461  0.61928  1.0000
  C   C840      1.0  0.92553  0.48400  0.97885  1.0000
  H   H1487     1.0  0.94503  0.36103  0.69911  1.0000
  H   H1488     1.0  0.13817  0.31724  0.77071  1.0000
  C   C841      1.0  0.91389  0.46623  0.72790  1.0000
  C   C842      1.0  0.40675  0.55048  0.66340  1.0000
  H   H1489     1.0  0.00128  0.41748  0.64302  1.0000
  C   C843      1.0  0.10807  0.36782  0.83958  1.0000
  H   H1490     1.0  0.26078  0.61578  0.55379  1.0000
  Fe  Fe107     1.0  0.20115  0.49213  0.94575  1.0000
  H   H1491     1.0  0.00964  0.47215  0.83993  1.0000
  H   H1492     1.0  0.05531  0.31023  0.84321  1.0000
  C   C844      1.0  0.37180  0.46018  0.72235  1.0000
  H   H1493     1.0  0.17494  0.53128  0.88085  1.0000
  C   C845      1.0  0.31455  0.33927  0.82677  1.0000
  H   H1494     1.0  0.97174  0.34845  0.64804  1.0000
  H   H1495     1.0  0.04036  0.37570  0.87072  1.0000
  H   H1496     1.0  0.39635  0.50087  0.57553  1.0000
  H   H1497     1.0  0.17429  0.34217  0.61092  1.0000
  H   H1498     1.0  0.91961  0.44018  0.92408  1.0000
  H   H1499     1.0  0.40292  0.49419  0.77123  1.0000
  N   N47       1.0  0.24518  0.29848  0.78636  1.0000
  C   C846      1.0  0.92092  0.35948  0.76226  1.0000
  H   H1500     1.0  0.23561  0.42692  0.95889  1.0000
  S   S203      1.0  0.12777  0.35805  0.99472  1.0000
  C   C847      1.0  0.22031  0.47634  0.86291  1.0000
  H   H1501     1.0  0.27918  0.57191  0.00077  1.0000
  H   H1502     1.0  0.24157  0.39387  0.53078  1.0000
  H   H1503     1.0  0.14067  0.54484  0.85483  1.0000
  H   H1504     1.0  0.98070  0.57311  0.79039  1.0000
  C   C848      1.0  0.18636  0.56706  0.51426  1.0000
  C   C849      1.0  0.32416  0.49649  0.75145  1.0000
  C   C850      1.0  0.32066  0.40545  0.98650  1.0000
  H   H1505     1.0  0.00881  0.53255  0.69030  1.0000
  H   H1506     1.0  0.31299  0.31380  0.84108  1.0000
  H   H1507     1.0  0.31859  0.49341  0.66660  1.0000
  H   H1508     1.0  0.14505  0.55254  0.71723  1.0000
  H   H1509     1.0  0.06031  0.54801  0.93384  1.0000
  H   H1510     1.0  0.05179  0.58543  0.98044  1.0000
  C   C851      1.0  0.96444  0.59086  0.78443  1.0000
  H   H1511     1.0  0.09275  0.56626  0.81626  1.0000
  H   H1512     1.0  0.04250  0.62069  0.66570  1.0000
  H   H1513     1.0  0.22945  0.61151  0.80754  1.0000
  H   H1514     1.0  0.25936  0.61241  0.87440  1.0000
  H   H1515     1.0  0.07966  0.29971  0.89436  1.0000
  C   C852      1.0  0.38386  0.51945  0.56291  1.0000
  C   C853      1.0  0.24098  0.60825  0.89707  1.0000
  H   H1516     1.0  0.26886  0.59180  0.51982  1.0000
  H   H1517     1.0  0.04702  0.30290  0.77779  1.0000
  H   H1518     1.0  0.97685  0.61536  0.80370  1.0000
  H   H1519     1.0  0.93860  0.58699  0.50989  1.0000
  H   H1520     1.0  0.29953  0.75390  0.01849  1.0000
  C   C854      1.0  0.24302  0.65111  0.01658  1.0000
  H   H1521     1.0  0.93754  0.68644  0.48739  1.0000
  N   N48       1.0  0.31847  0.86577  0.21409  1.0000
  C   C855      1.0  0.32840  0.67981  0.10476  1.0000
  C   C856      1.0  0.29972  0.77468  0.26930  1.0000
  C   C857      1.0  0.40830  0.80656  0.02799  1.0000
  C   C858      1.0  0.39114  0.87246  0.32434  1.0000
  H   H1522     1.0  0.19210  0.82678  0.47375  1.0000
  H   H1523     1.0  0.26239  0.87155  0.50144  1.0000
  H   H1524     1.0  0.00336  0.64082  0.49362  1.0000
  H   H1525     1.0  0.02881  0.63126  0.13107  1.0000
  H   H1526     1.0  0.12487  0.67652  0.15430  1.0000
  C   C859      1.0  0.38163  0.73365  0.27126  1.0000
  C   C860      1.0  0.13456  0.86612  0.41811  1.0000
  Fe  Fe108     1.0  0.11766  0.83053  0.29078  1.0000
  C   C861      1.0  0.33645  0.79537  0.05995  1.0000
  Fe  Fe109     1.0  0.35802  0.81210  0.38827  1.0000
  H   H1527     1.0  0.13479  0.65030  0.10149  1.0000
  H   H1528     1.0  0.20450  0.91666  0.06240  1.0000
  H   H1529     1.0  0.07509  0.86516  0.01880  1.0000
  C   C862      1.0  0.97633  0.85839  0.30792  1.0000
  C   C863      1.0  0.01877  0.66193  0.32633  1.0000
  C   C864      1.0  0.21208  0.71874  0.18391  1.0000
  H   H1530     1.0  0.21182  0.63099  0.29585  1.0000
  C   C865      1.0  0.05846  0.65829  0.14037  1.0000
  H   H1531     1.0  0.39539  0.76321  0.26170  1.0000
  H   H1532     1.0  0.35853  0.94003  0.38704  1.0000
  H   H1533     1.0  0.25947  0.89993  0.30334  1.0000
  C   C866      1.0  0.21975  0.82580  0.46382  1.0000
  H   H1534     1.0  0.23774  0.93946  0.43324  1.0000
  H   H1535     1.0  0.09430  0.72133  0.38662  1.0000
  H   H1536     1.0  0.29763  0.70520  0.13297  1.0000
  C   C867      1.0  0.32761  0.83861  0.23688  1.0000
  H   H1537     1.0  0.99933  0.87876  0.07523  1.0000
  H   H1538     1.0  0.35048  0.74047  0.12184  1.0000
  H   H1539     1.0  0.10449  0.83971  0.36808  1.0000
  H   H1540     1.0  0.30610  0.78968  0.29470  1.0000
  C   C868      1.0  0.19145  0.64258  0.30498  1.0000
  H   H1541     1.0  0.22368  0.80198  0.47671  1.0000
  S   S204      1.0  0.04777  0.82347  0.17071  1.0000
  H   H1542     1.0  0.33116  0.89793  0.14442  1.0000
  S   S205      1.0  0.05474  0.82480  0.26991  1.0000
  H   H1543     1.0  0.31295  0.88085  0.03794  1.0000
  C   C869      1.0  0.92258  0.64050  0.39203  1.0000
  C   C870      1.0  0.02361  0.93742  0.50297  1.0000
  C   C871      1.0  0.33129  0.77462  0.02949  1.0000
  S   S206      1.0  0.39974  0.78546  0.37985  1.0000
  S   S207      1.0  0.23147  0.74398  0.11907  1.0000
  H   H1544     1.0  0.02580  0.68943  0.34006  1.0000
  H   H1545     1.0  0.99572  0.79868  0.10665  1.0000
  H   H1546     1.0  0.20441  0.72345  0.37625  1.0000
  C   C872      1.0  0.19020  0.71286  0.21343  1.0000
  H   H1547     1.0  0.19201  0.66515  0.28692  1.0000
  C   C873      1.0  0.17206  0.89465  0.43642  1.0000
  H   H1548     1.0  0.30627  0.95673  0.15743  1.0000
  H   H1549     1.0  0.35066  0.70147  0.05468  1.0000
  H   H1550     1.0  0.38920  0.89253  0.17252  1.0000
  H   H1551     1.0  0.96014  0.65272  0.45477  1.0000
  H   H1552     1.0  0.95651  0.90082  0.50820  1.0000
  H   H1553     1.0  0.93702  0.83365  0.22685  1.0000
  H   H1554     1.0  0.34761  0.91934  0.42929  1.0000
  C   C874      1.0  0.16345  0.72914  0.21636  1.0000
  C   C875      1.0  0.09383  0.64933  0.15662  1.0000
  C   C876      1.0  0.40635  0.67557  0.04270  1.0000
  H   H1555     1.0  0.24735  0.90962  0.25967  1.0000
  S   S208      1.0  0.37734  0.82245  0.44485  1.0000
  H   H1556     1.0  0.27156  0.82035  0.17882  1.0000
  S   S209      1.0  0.13227  0.71712  0.25162  1.0000
  H   H1557     1.0  0.94423  0.80862  0.33938  1.0000
  N   N49       1.0  0.14093  0.90085  0.07656  1.0000
  H   H1558     1.0  0.98014  0.93753  0.39886  1.0000
  C   C877      1.0  0.39746  0.90520  0.19894  1.0000
  H   H1559     1.0  0.36942  0.91097  0.05030  1.0000
  H   H1560     1.0  0.20557  0.65669  0.33071  1.0000
  H   H1561     1.0  0.39107  0.71849  0.08899  1.0000
  H   H1562     1.0  0.09816  0.74727  0.11038  1.0000
  H   H1563     1.0  0.24462  0.82881  0.41509  1.0000
  C   C878      1.0  0.17543  0.78031  0.37244  1.0000
  C   C879      1.0  0.35876  0.90514  0.21390  1.0000
  C   C880      1.0  0.95736  0.93287  0.37707  1.0000
  C   C881      1.0  0.05985  0.71612  0.43017  1.0000
  C   C882      1.0  0.30349  0.84724  0.17853  1.0000
  C   C883      1.0  0.97173  0.94450  0.34445  1.0000
  H   H1564     1.0  0.22324  0.85975  0.27468  1.0000
  Fe  Fe110     1.0  0.32138  0.76219  0.44984  1.0000
  S   S210      1.0  0.09043  0.76867  0.30888  1.0000
  H   H1565     1.0  0.97742  0.82350  0.21281  1.0000
  C   C884      1.0  0.96447  0.75475  0.41747  1.0000
  C   C885      1.0  0.96541  0.74063  0.34755  1.0000
  H   H1566     1.0  0.15094  0.69969  0.38829  1.0000
  H   H1567     1.0  0.96478  0.72627  0.14475  1.0000
  C   C886      1.0  0.36600  0.66608  0.26559  1.0000
  H   H1568     1.0  0.92991  0.68614  0.09011  1.0000
  C   C887      1.0  0.36720  0.78085  0.01321  1.0000
  C   C888      1.0  0.94243  0.93806  0.31610  1.0000
  H   H1569     1.0  0.13347  0.64905  0.33622  1.0000
  C   C889      1.0  0.19247  0.68312  0.41750  1.0000
  C   C890      1.0  0.04664  0.79460  0.13649  1.0000
  S   S211      1.0  0.27556  0.74837  0.49065  1.0000
  S   S212      1.0  0.03692  0.74154  0.23272  1.0000
  H   H1570     1.0  0.23299  0.83112  0.35532  1.0000
  H   H1571     1.0  0.30762  0.65622  0.48960  1.0000
  C   C891      1.0  0.32025  0.71378  0.11264  1.0000
  H   H1572     1.0  0.23632  0.92969  0.37064  1.0000
  C   C892      1.0  0.06482  0.88984  0.08352  1.0000
  C   C893      1.0  0.28378  0.87207  0.22729  1.0000
  H   H1573     1.0  0.94631  0.65087  0.24335  1.0000
  H   H1574     1.0  0.94176  0.79675  0.29485  1.0000
  S   S213      1.0  0.17054  0.88217  0.32065  1.0000
  H   H1575     1.0  0.23268  0.70593  0.18177  1.0000
  H   H1576     1.0  0.32826  0.77250  0.26341  1.0000
  H   H1577     1.0  0.92085  0.76417  0.23653  1.0000
  S   S214      1.0  0.32114  0.67537  0.35468  1.0000
  H   H1578     1.0  0.27230  0.74440  0.27068  1.0000
  H   H1579     1.0  0.35210  0.92685  0.19972  1.0000
  H   H1580     1.0  0.95278  0.68190  0.16739  1.0000
  C   C894      1.0  0.14563  0.89246  0.11403  1.0000
  H   H1581     1.0  0.23326  0.76640  0.42592  1.0000
  H   H1582     1.0  0.31758  0.63714  0.03193  1.0000
  H   H1583     1.0  0.16942  0.66956  0.43734  1.0000
  H   H1584     1.0  0.14211  0.76669  0.45400  1.0000
  H   H1585     1.0  0.06998  0.94191  0.27100  1.0000
  C   C895      1.0  0.33142  0.93806  0.05891  1.0000
  C   C896      1.0  0.13849  0.76627  0.42546  1.0000
  H   H1586     1.0  0.02094  0.92486  0.47703  1.0000
  H   H1587     1.0  0.32489  0.83637  0.17000  1.0000
  H   H1588     1.0  0.92163  0.64262  0.11343  1.0000
  H   H1589     1.0  0.98596  0.63886  0.33165  1.0000
  H   H1590     1.0  0.18784  0.73973  0.44873  1.0000
  H   H1591     1.0  0.06951  0.90145  0.42802  1.0000
  H   H1592     1.0  0.24431  0.64413  0.46257  1.0000
  C   C897      1.0  0.91368  0.91574  0.38166  1.0000
  C   C898      1.0  0.10326  0.94720  0.26998  1.0000
  H   H1593     1.0  0.12370  0.94481  0.08833  1.0000
  H   H1594     1.0  0.10870  0.92703  0.04562  1.0000
  S   S215      1.0  0.05324  0.85963  0.50018  1.0000
  H   H1595     1.0  0.00877  0.64105  0.06862  1.0000
  C   C899      1.0  0.21251  0.81934  0.42429  1.0000
  H   H1596     1.0  0.09094  0.64614  0.18467  1.0000
  C   C900      1.0  0.00340  0.76723  0.36659  1.0000
  S   S216      1.0  0.96452  0.72958  0.30421  1.0000
  C   C901      1.0  0.01801  0.78736  0.10745  1.0000
  S   S217      1.0  0.38388  0.84481  0.11387  1.0000
  H   H1597     1.0  0.17677  0.77484  0.13959  1.0000
  C   C902      1.0  0.12487  0.95120  0.30619  1.0000
  H   H1598     1.0  0.13988  0.76580  0.19250  1.0000
  H   H1599     1.0  0.33158  0.93042  0.08637  1.0000
  C   C903      1.0  0.93927  0.81707  0.31288  1.0000
  C   C904      1.0  0.13365  0.86101  0.38241  1.0000
  S   S218      1.0  0.29890  0.75457  0.39374  1.0000
  H   H1600     1.0  0.08395  0.67302  0.33266  1.0000
  H   H1601     1.0  0.97264  0.86938  0.28211  1.0000
  H   H1602     1.0  0.09701  0.78513  0.16010  1.0000
  H   H1603     1.0  0.06466  0.89304  0.11172  1.0000
  H   H1604     1.0  0.12931  0.93243  0.37494  1.0000
  C   C905      1.0  0.18097  0.75783  0.16016  1.0000
  C   C906      1.0  0.18489  0.71422  0.39865  1.0000
  H   H1605     1.0  0.03355  0.68670  0.42092  1.0000
  C   C907      1.0  0.92706  0.72211  0.36325  1.0000
  Fe  Fe111     1.0  0.11603  0.74224  0.03807  1.0000
  H   H1606     1.0  0.39193  0.88257  0.01485  1.0000
  H   H1607     1.0  0.17896  0.93807  0.03696  1.0000
  H   H1608     1.0  0.03218  0.79452  0.41658  1.0000
  H   H1609     1.0  0.30557  0.72090  0.08941  1.0000
  C   C908      1.0  0.10514  0.86363  0.01856  1.0000
  S   S219      1.0  0.23451  0.77898  0.02277  1.0000
  Fe  Fe112     1.0  0.11530  0.85845  0.50471  1.0000
  H   H1610     1.0  0.22559  0.69627  0.43000  1.0000
  C   C909      1.0  0.40156  0.84546  0.31102  1.0000
  C   C910      1.0  0.25285  0.88881  0.27633  1.0000
  H   H1611     1.0  0.24498  0.82541  0.12123  1.0000
  H   H1612     1.0  0.27270  0.86878  0.09696  1.0000
  C   C911      1.0  0.04689  0.75081  0.08055  1.0000
  C   C912      1.0  0.26001  0.86508  0.47366  1.0000
  H   H1613     1.0  0.19389  0.69562  0.23401  1.0000
  H   H1614     1.0  0.40369  0.64328  0.17055  1.0000
  C   C913      1.0  0.12367  0.95634  0.38387  1.0000
  H   H1615     1.0  0.97290  0.65480  0.01681  1.0000
  Fe  Fe113     1.0  0.20083  0.75522  0.07075  1.0000
  C   C914      1.0  0.17029  0.88456  0.36529  1.0000
  H   H1616     1.0  0.97501  0.68188  0.10816  1.0000
  C   C915      1.0  0.20667  0.74037  0.15683  1.0000
  C   C916      1.0  0.29051  0.88472  0.26576  1.0000
  H   H1617     1.0  0.29721  0.65497  0.09479  1.0000
  H   H1618     1.0  0.20934  0.64515  0.01249  1.0000
  S   S220      1.0  0.16980  0.79309  0.06778  1.0000
  H   H1619     1.0  0.01949  0.88879  0.40340  1.0000
  C   C917      1.0  0.00293  0.77433  0.40169  1.0000
  C   C918      1.0  0.20864  0.91752  0.41921  1.0000
  H   H1620     1.0  0.35208  0.83321  0.22638  1.0000
  Fe  Fe114     1.0  0.10193  0.75536  0.25645  1.0000
  H   H1621     1.0  0.03186  0.66087  0.18804  1.0000
  C   C919      1.0  0.94197  0.67509  0.11241  1.0000
  H   H1622     1.0  0.10178  0.92182  0.25617  1.0000
  H   H1623     1.0  0.07480  0.70731  0.17558  1.0000
  H   H1624     1.0  0.95281  0.66910  0.39482  1.0000
  H   H1625     1.0  0.10614  0.84852  0.43135  1.0000
  H   H1626     1.0  0.03867  0.92921  0.07006  1.0000
  H   H1627     1.0  0.10570  0.92315  0.31930  1.0000
  S   S221      1.0  0.14472  0.70274  0.04430  1.0000
  H   H1628     1.0  0.31988  0.91359  0.27084  1.0000
  C   C920      1.0  0.34068  0.91105  0.03748  1.0000
  C   C921      1.0  0.05186  0.64936  0.33879  1.0000
  C   C922      1.0  0.03096  0.89845  0.06536  1.0000
  H   H1629     1.0  0.28084  0.77989  0.21700  1.0000
  C   C923      1.0  0.92656  0.72936  0.39802  1.0000
  Fe  Fe115     1.0  0.06784  0.80563  0.22076  1.0000
  H   H1630     1.0  0.15301  0.75109  0.36043  1.0000
  S   S222      1.0  0.93039  0.92381  0.18045  1.0000
  C   C924      1.0  0.94161  0.69457  0.14588  1.0000
  H   H1631     1.0  0.26021  0.79827  0.24803  1.0000
  H   H1632     1.0  0.25983  0.67407  0.03720  1.0000
  C   C925      1.0  0.19756  0.75048  0.42256  1.0000
  C   C926      1.0  0.94358  0.81690  0.20785  1.0000
  C   C927      1.0  0.36562  0.94686  0.41507  1.0000
  H   H1633     1.0  0.05831  0.93544  0.35871  1.0000
  H   H1634     1.0  0.12759  0.78804  0.41828  1.0000
  H   H1635     1.0  0.01956  0.66749  0.29834  1.0000
  C   C928      1.0  0.28897  0.79714  0.24131  1.0000
  H   H1636     1.0  0.19662  0.90250  0.17689  1.0000
  H   H1637     1.0  0.29314  0.86278  0.28283  1.0000
  N   N50       1.0  0.37314  0.66022  0.06875  1.0000
  S   S223      1.0  0.96197  0.95304  0.27576  1.0000
  S   S224      1.0  0.17453  0.90226  0.48078  1.0000
  H   H1638     1.0  0.33930  0.67142  0.12935  1.0000
  C   C929      1.0  0.16008  0.75281  0.19022  1.0000
  C   C930      1.0  0.05419  0.89937  0.40167  1.0000
  H   H1639     1.0  0.09910  0.83754  0.06882  1.0000
  H   H1640     1.0  0.36715  0.64313  0.25136  1.0000
  H   H1641     1.0  0.15998  0.79867  0.36543  1.0000
  H   H1642     1.0  0.28918  0.86392  0.46782  1.0000
  C   C931      1.0  0.38763  0.64465  0.09978  1.0000
  H   H1643     1.0  0.18799  0.65991  0.39901  1.0000
  C   C932      1.0  0.11070  0.91749  0.07240  1.0000
  H   H1644     1.0  0.15059  0.85385  0.17167  1.0000
  H   H1645     1.0  0.25879  0.88959  0.45952  1.0000
  C   C933      1.0  0.17938  0.87933  0.12421  1.0000
  H   H1646     1.0  0.94101  0.70485  0.21705  1.0000
  Fe  Fe116     1.0  0.19741  0.81162  0.01703  1.0000
  H   H1647     1.0  0.24105  0.79025  0.36676  1.0000
  H   H1648     1.0  0.97769  0.87893  0.32785  1.0000
  H   H1649     1.0  0.97147  0.94840  0.49044  1.0000
  H   H1650     1.0  0.11035  0.63926  0.29349  1.0000
  C   C934      1.0  0.18276  0.87373  0.16291  1.0000
  C   C935      1.0  0.27713  0.84998  0.11674  1.0000
  H   H1651     1.0  0.07040  0.67742  0.11789  1.0000
  C   C936      1.0  0.20955  0.78543  0.31653  1.0000
  H   H1652     1.0  0.39044  0.67216  0.01630  1.0000
  H   H1653     1.0  0.20267  0.84075  0.41368  1.0000
  S   S225      1.0  0.35821  0.72972  0.44578  1.0000
  S   S226      1.0  0.08536  0.79345  0.49446  1.0000
  S   S227      1.0  0.35333  0.85777  0.35480  1.0000
  Fe  Fe117     1.0  0.34159  0.72834  0.38891  1.0000
  C   C937      1.0  0.36226  0.69160  0.07824  1.0000
  C   C938      1.0  0.38464  0.70448  0.25327  1.0000
  H   H1654     1.0  0.05736  0.87742  0.38619  1.0000
  H   H1655     1.0  0.15239  0.91818  0.13058  1.0000
  C   C939      1.0  0.12394  0.86311  0.05571  1.0000
  C   C940      1.0  0.01766  0.76492  0.07968  1.0000
  H   H1656     1.0  0.02812  0.89280  0.03735  1.0000
  H   H1657     1.0  0.29961  0.93491  0.05011  1.0000
  C   C941      1.0  0.07504  0.77962  0.13768  1.0000
  C   C942      1.0  0.34424  0.68666  0.31504  1.0000
  H   H1658     1.0  0.24028  0.80000  0.30443  1.0000
  H   H1659     1.0  0.05122  0.64707  0.36705  1.0000
  H   H1660     1.0  0.07891  0.63056  0.09052  1.0000
  Fe  Fe118     1.0  0.02861  0.76155  0.28345  1.0000
  H   H1661     1.0  0.10907  0.70175  0.42472  1.0000
  S   S228      1.0  0.13395  0.81803  0.24002  1.0000
  H   H1662     1.0  0.35875  0.74708  0.31569  1.0000
  H   H1663     1.0  0.21175  0.90124  0.11714  1.0000
  H   H1664     1.0  0.93918  0.82709  0.18184  1.0000
  C   C943      1.0  0.07475  0.93956  0.38478  1.0000
  H   H1665     1.0  0.04144  0.64975  0.01302  1.0000
  H   H1666     1.0  0.25179  0.84526  0.22273  1.0000
  C   C944      1.0  0.91118  0.66091  0.49924  1.0000
  H   H1667     1.0  0.38406  0.81488  0.31746  1.0000
  H   H1668     1.0  0.02288  0.68751  0.15317  1.0000
  Fe  Fe119     1.0  0.02313  0.79415  0.49500  1.0000
  C   C945      1.0  0.20781  0.91222  0.38383  1.0000
  H   H1669     1.0  0.11458  0.86862  0.12201  1.0000
  C   C946      1.0  0.18349  0.93018  0.06388  1.0000
  H   H1670     1.0  0.03302  0.78202  0.35434  1.0000
  S   S229      1.0  0.04808  0.72476  0.04508  1.0000
  H   H1671     1.0  0.30867  0.79037  0.07275  1.0000
  C   C947      1.0  0.10125  0.72460  0.41487  1.0000
  H   H1672     1.0  0.19625  0.75306  0.31410  1.0000
  H   H1673     1.0  0.05415  0.85861  0.07786  1.0000
  H   H1674     1.0  0.28058  0.89537  0.21260  1.0000
  H   H1675     1.0  0.37036  0.91744  0.24051  1.0000
  H   H1676     1.0  0.15708  0.95484  0.30342  1.0000
  H   H1677     1.0  0.34232  0.85265  0.26246  1.0000
  H   H1678     1.0  0.99524  0.75904  0.05736  1.0000
  C   C948      1.0  0.36140  0.72469  0.30208  1.0000
  H   H1679     1.0  0.06383  0.71600  0.45865  1.0000
  C   C949      1.0  0.04633  0.67968  0.16591  1.0000
  H   H1680     1.0  0.19900  0.64189  0.21570  1.0000
  H   H1681     1.0  0.20349  0.86029  0.16930  1.0000
  H   H1682     1.0  0.16318  0.64114  0.15481  1.0000
  H   H1683     1.0  0.16980  0.85080  0.11132  1.0000
  C   C950      1.0  0.07572  0.75833  0.10948  1.0000
  H   H1684     1.0  0.29647  0.83779  0.10674  1.0000
  C   C951      1.0  0.29915  0.87371  0.15002  1.0000
  C   C952      1.0  0.34583  0.65721  0.29632  1.0000
  N   N51       1.0  0.18082  0.77816  0.41101  1.0000
  H   H1685     1.0  0.40896  0.88818  0.21528  1.0000
  C   C953      1.0  0.91780  0.74894  0.18175  1.0000
  C   C954      1.0  0.21767  0.79842  0.35422  1.0000
  H   H1686     1.0  0.18696  0.79382  0.30271  1.0000
  H   H1687     1.0  0.27957  0.88668  0.15759  1.0000
  C   C955      1.0  0.37753  0.82100  0.07480  1.0000
  H   H1688     1.0  0.14981  0.85548  0.05370  1.0000
  S   S230      1.0  0.96198  0.76009  0.46146  1.0000
  H   H1689     1.0  0.00712  0.85786  0.31059  1.0000
  H   H1690     1.0  0.05044  0.73848  0.42216  1.0000
  H   H1691     1.0  0.95247  0.75780  0.18321  1.0000
  C   C956      1.0  0.91180  0.63711  0.24779  1.0000
  H   H1692     1.0  0.00558  0.95819  0.34103  1.0000
  H   H1693     1.0  0.06855  0.95950  0.40032  1.0000
  H   H1694     1.0  0.91080  0.76008  0.15685  1.0000
  C   C957      1.0  0.91304  0.77278  0.21088  1.0000
  H   H1695     1.0  0.12189  0.95517  0.50691  1.0000
  H   H1696     1.0  0.23070  0.96031  0.30033  1.0000
  Fe  Fe120     1.0  0.91131  0.93229  0.23153  1.0000
  H   H1697     1.0  0.40496  0.93276  0.32516  1.0000
  H   H1698     1.0  0.17837  0.69191  0.50918  1.0000
  H   H1699     1.0  0.06949  0.79999  0.01018  1.0000
  H   H1700     1.0  0.35846  0.77056  0.72992  1.0000
  C   C958      1.0  0.31223  0.88526  0.58436  1.0000
  H   H1701     1.0  0.05387  0.69194  0.65029  1.0000
  C   C959      1.0  0.17418  0.91576  0.92558  1.0000
  C   C960      1.0  0.99677  0.91201  0.71699  1.0000
  H   H1702     1.0  0.97297  0.63949  0.68768  1.0000
  H   H1703     1.0  0.96545  0.83776  0.83017  1.0000
  H   H1704     1.0  0.98703  0.67989  0.90974  1.0000
  H   H1705     1.0  0.38993  0.91466  0.92821  1.0000
  C   C961      1.0  0.13405  0.81548  0.66860  1.0000
  C   C962      1.0  0.01509  0.85105  0.62930  1.0000
  H   H1706     1.0  0.07321  0.75341  0.93077  1.0000
  H   H1707     1.0  0.17670  0.71883  0.76524  1.0000
  C   C963      1.0  0.33423  0.83576  0.69837  1.0000
  C   C964      1.0  0.29938  0.83571  0.67297  1.0000
  H   H1708     1.0  0.12300  0.65794  0.51490  1.0000
  H   H1709     1.0  0.33482  0.69173  0.69007  1.0000
  H   H1710     1.0  0.04994  0.91430  0.75067  1.0000
  S   S231      1.0  0.14070  0.76317  0.98709  1.0000
  H   H1711     1.0  0.99999  0.68476  0.97137  1.0000
  H   H1712     1.0  0.32006  0.82110  0.72229  1.0000
  C   C965      1.0  0.99507  0.81100  0.69142  1.0000
  H   H1713     1.0  0.00514  0.64877  0.63548  1.0000
  Fe  Fe121     1.0  0.10757  0.84016  0.82436  1.0000
  H   H1714     1.0  0.31808  0.62997  0.96741  1.0000
  C   C966      1.0  0.20265  0.77203  0.54987  1.0000
  C   C967      1.0  0.24734  0.70873  0.68780  1.0000
  H   H1715     1.0  0.10452  0.93666  0.54859  1.0000
  H   H1716     1.0  0.25979  0.79925  0.93168  1.0000
  H   H1717     1.0  0.24337  0.71455  0.55487  1.0000
  N   N52       1.0  0.01055  0.63560  0.96126  1.0000
  H   H1718     1.0  0.92157  0.79608  0.78040  1.0000
  H   H1719     1.0  0.23445  0.72105  0.66712  1.0000
  H   H1720     1.0  0.95180  0.84464  0.62720  1.0000
  H   H1721     1.0  0.96391  0.67135  0.83688  1.0000
  C   C968      1.0  0.37721  0.73063  0.75623  1.0000
  H   H1722     1.0  0.01558  0.72993  0.65383  1.0000
  H   H1723     1.0  0.92258  0.73056  0.52773  1.0000
  H   H1724     1.0  0.15462  0.63014  0.74492  1.0000
  H   H1725     1.0  0.21714  0.66617  0.90561  1.0000
  C   C969      1.0  0.00574  0.86926  0.92940  1.0000
  H   H1726     1.0  0.19788  0.81536  0.57919  1.0000
  C   C970      1.0  0.19663  0.91339  0.95592  1.0000
  H   H1727     1.0  0.15754  0.74760  0.74102  1.0000
  H   H1728     1.0  0.34573  0.70419  0.74976  1.0000
  H   H1729     1.0  0.00455  0.65206  0.57140  1.0000
  H   H1730     1.0  0.34695  0.91303  0.52123  1.0000
  H   H1731     1.0  0.31190  0.84553  0.54475  1.0000
  C   C971      1.0  0.03506  0.82335  0.67913  1.0000
  S   S232      1.0  0.07371  0.76226  0.75167  1.0000
  H   H1732     1.0  0.20930  0.69292  0.84883  1.0000
  H   H1733     1.0  0.38156  0.89147  0.52334  1.0000
  C   C972      1.0  0.20905  0.63837  0.52042  1.0000
  N   N53       1.0  0.94084  0.94333  0.55869  1.0000
  H   H1734     1.0  0.97984  0.70070  0.79905  1.0000
  H   H1735     1.0  0.16398  0.74205  0.62989  1.0000
  H   H1736     1.0  0.00726  0.70849  0.61160  1.0000
  C   C973      1.0  0.37543  0.65552  0.94121  1.0000
  S   S233      1.0  0.10487  0.85516  0.76871  1.0000
  C   C974      1.0  0.95209  0.67743  0.81154  1.0000
  C   C975      1.0  0.25189  0.67609  0.90548  1.0000
  H   H1737     1.0  0.29270  0.64341  0.64512  1.0000
  S   S234      1.0  0.18817  0.83069  0.72667  1.0000
  S   S235      1.0  0.14435  0.80811  0.81718  1.0000
  C   C976      1.0  0.12579  0.77086  0.62244  1.0000
  H   H1738     1.0  0.18458  0.66603  0.70119  1.0000
  C   C977      1.0  0.02074  0.69336  0.92111  1.0000
  H   H1739     1.0  0.29831  0.94628  0.52636  1.0000
  C   C978      1.0  0.34254  0.65987  0.53765  1.0000
  H   H1740     1.0  0.24711  0.66952  0.74370  1.0000
  H   H1741     1.0  0.04187  0.89191  0.71023  1.0000
  H   H1742     1.0  0.93868  0.79797  0.85896  1.0000
  S   S236      1.0  0.40510  0.79653  0.88698  1.0000
  H   H1743     1.0  0.23772  0.85081  0.64398  1.0000
  C   C979      1.0  0.15636  0.71858  0.74209  1.0000
  C   C980      1.0  0.92511  0.93474  0.79564  1.0000
  C   C981      1.0  0.91650  0.67276  0.53790  1.0000
  H   H1744     1.0  0.36500  0.94984  0.73890  1.0000
  C   C982      1.0  0.97501  0.83860  0.64156  1.0000
  H   H1745     1.0  0.99729  0.93613  0.56544  1.0000
  H   H1746     1.0  0.38536  0.65734  0.91477  1.0000
  C   C983      1.0  0.00047  0.70168  0.63886  1.0000
  H   H1747     1.0  0.34776  0.63471  0.53209  1.0000
  C   C984      1.0  0.37005  0.76625  0.75606  1.0000
  H   H1748     1.0  0.93468  0.71691  0.83373  1.0000
  H   H1749     1.0  0.17614  0.93143  0.74622  1.0000
  H   H1750     1.0  0.94110  0.93443  0.63375  1.0000
  C   C985      1.0  0.36449  0.78807  0.57262  1.0000
  H   H1751     1.0  0.19810  0.90607  0.81939  1.0000
  S   S237      1.0  0.12506  0.88724  0.86488  1.0000
  C   C986      1.0  0.13139  0.92929  0.70358  1.0000
  H   H1752     1.0  0.40031  0.79322  0.76470  1.0000
  H   H1753     1.0  0.93368  0.80839  0.68161  1.0000
  Fe  Fe122     1.0  0.04312  0.79808  0.76362  1.0000
  C   C987      1.0  0.18150  0.84833  0.93826  1.0000
  H   H1754     1.0  0.27757  0.80382  0.58749  1.0000
  H   H1755     1.0  0.18546  0.82280  0.94242  1.0000
  C   C988      1.0  0.34908  0.67425  0.68094  1.0000
  C   C989      1.0  0.34821  0.92596  0.00023  1.0000
  C   C990      1.0  0.94835  0.91016  0.84589  1.0000
  H   H1756     1.0  0.29825  0.68087  0.52357  1.0000
  C   C991      1.0  0.15866  0.85054  0.90809  1.0000
  C   C992      1.0  0.04531  0.90175  0.95101  1.0000
  N   N54       1.0  0.03489  0.64850  0.70996  1.0000
  H   H1757     1.0  0.29369  0.86302  0.96440  1.0000
  H   H1758     1.0  0.14390  0.82612  0.88984  1.0000
  H   H1759     1.0  0.19921  0.77576  0.68619  1.0000
  H   H1760     1.0  0.08287  0.71068  0.70808  1.0000
  C   C993      1.0  0.13378  0.66366  0.89191  1.0000
  H   H1761     1.0  0.24688  0.90962  0.83962  1.0000
  H   H1762     1.0  0.93329  0.92853  0.96016  1.0000
  H   H1763     1.0  0.27929  0.72008  0.61280  1.0000
  S   S238      1.0  0.22422  0.87508  0.00216  1.0000
  H   H1764     1.0  0.34009  0.66171  0.56563  1.0000
  H   H1765     1.0  0.16288  0.66943  0.55040  1.0000
  H   H1766     1.0  0.27437  0.80462  0.66800  1.0000
  H   H1767     1.0  0.07306  0.89778  0.94576  1.0000
  H   H1768     1.0  0.03364  0.92148  0.52214  1.0000
  C   C994      1.0  0.93477  0.81070  0.83412  1.0000
  C   C995      1.0  0.29755  0.73791  0.59239  1.0000
  C   C996      1.0  0.30093  0.75622  0.53250  1.0000
  H   H1769     1.0  0.08228  0.82823  0.97149  1.0000
  H   H1770     1.0  0.01747  0.95101  0.00381  1.0000
  H   H1771     1.0  0.09746  0.67883  0.68935  1.0000
  S   S239      1.0  0.11865  0.85465  0.56208  1.0000
  H   H1772     1.0  0.10673  0.89841  0.70722  1.0000
  H   H1773     1.0  0.29901  0.93620  0.62378  1.0000
  H   H1774     1.0  0.40420  0.67950  0.77726  1.0000
  C   C997      1.0  0.22363  0.81224  0.56812  1.0000
  H   H1775     1.0  0.35961  0.86642  0.70517  1.0000
  Fe  Fe123     1.0  0.13589  0.81815  0.76111  1.0000
  C   C998      1.0  0.12074  0.95828  0.72152  1.0000
  H   H1776     1.0  0.17211  0.94217  0.92030  1.0000
  C   C999      1.0  0.96591  0.87994  0.73961  1.0000
  H   H1777     1.0  0.30167  0.71057  0.87095  1.0000
  H   H1778     1.0  0.16954  0.71427  0.71893  1.0000
  C   C1000     1.0  0.24448  0.71276  0.85311  1.0000
  S   S240      1.0  0.36608  0.76713  0.64019  1.0000
  H   H1779     1.0  0.32119  0.95773  0.72310  1.0000
  H   H1780     1.0  0.04020  0.95398  0.66368  1.0000
  C   C1001     1.0  0.25301  0.92323  0.66049  1.0000
  H   H1781     1.0  0.18981  0.74798  0.56861  1.0000
  H   H1782     1.0  0.02304  0.66592  0.75816  1.0000
  S   S241      1.0  0.98387  0.78956  0.73187  1.0000
  C   C1002     1.0  0.16436  0.80774  0.68656  1.0000
  H   H1783     1.0  0.33400  0.84003  0.62932  1.0000
  H   H1784     1.0  0.96522  0.68672  0.64036  1.0000
  H   H1785     1.0  0.37045  0.69123  0.66085  1.0000
  C   C1003     1.0  0.11026  0.68605  0.74466  1.0000
  H   H1786     1.0  0.06852  0.92825  0.65991  1.0000
  C   C1004     1.0  0.28809  0.79586  0.94042  1.0000
  S   S242      1.0  0.93533  0.95671  0.75539  1.0000
  C   C1005     1.0  0.32867  0.83592  0.94521  1.0000
  C   C1006     1.0  0.24389  0.63355  0.95455  1.0000
  S   S243      1.0  0.02816  0.87749  0.59124  1.0000
  H   H1787     1.0  0.38766  0.63846  0.95687  1.0000
  C   C1007     1.0  0.12367  0.72985  0.88028  1.0000
  C   C1008     1.0  0.10659  0.66377  0.86405  1.0000
  H   H1788     1.0  0.37891  0.64105  0.70277  1.0000
  H   H1789     1.0  0.34895  0.81965  0.68724  1.0000
  H   H1790     1.0  0.30890  0.91614  0.66327  1.0000
  C   C1009     1.0  0.01660  0.94875  0.94728  1.0000
  H   H1791     1.0  0.26361  0.69262  0.97639  1.0000
  H   H1792     1.0  0.39812  0.80916  0.57776  1.0000
  H   H1793     1.0  0.17771  0.94930  0.54450  1.0000
  C   C1010     1.0  0.15457  0.88411  0.90189  1.0000
  H   H1794     1.0  0.95033  0.77488  0.80389  1.0000
  H   H1795     1.0  0.24034  0.79620  0.61729  1.0000
  H   H1796     1.0  0.09857  0.69444  0.76657  1.0000
  Fe  Fe124     1.0  0.17578  0.72913  0.99597  1.0000
  H   H1797     1.0  0.99551  0.93901  0.72304  1.0000
  H   H1798     1.0  0.93349  0.87702  0.73503  1.0000
  H   H1799     1.0  0.07622  0.85335  0.63875  1.0000
  C   C1011     1.0  0.06902  0.95328  0.90837  1.0000
  C   C1012     1.0  0.28374  0.91364  0.64336  1.0000
  C   C1013     1.0  0.26644  0.69035  0.86914  1.0000
  C   C1014     1.0  0.95696  0.92989  0.81472  1.0000
  H   H1800     1.0  0.38880  0.72796  0.78289  1.0000
  H   H1801     1.0  0.97263  0.90555  0.86006  1.0000
  H   H1802     1.0  0.23720  0.83485  0.54851  1.0000
  C   C1015     1.0  0.37348  0.66527  0.71140  1.0000
  C   C1016     1.0  0.33551  0.87050  0.56182  1.0000
  C   C1017     1.0  0.04554  0.62969  0.94806  1.0000
  N   N55       1.0  0.36119  0.90402  0.97673  1.0000
  C   C1018     1.0  0.36535  0.90300  0.53894  1.0000
  H   H1803     1.0  0.99184  0.93328  0.92559  1.0000
  H   H1804     1.0  0.25057  0.73783  0.87011  1.0000
  S   S244      1.0  0.10411  0.75019  0.58125  1.0000
  H   H1805     1.0  0.19304  0.63904  0.77949  1.0000
  H   H1806     1.0  0.32136  0.66673  0.89633  1.0000
  H   H1807     1.0  0.40329  0.74647  0.70607  1.0000
  C   C1019     1.0  0.10087  0.69658  0.85869  1.0000
  H   H1808     1.0  0.33464  0.84950  0.91963  1.0000
  H   H1809     1.0  0.18051  0.91182  0.70636  1.0000
  H   H1810     1.0  0.97692  0.88743  0.76715  1.0000
  S   S245      1.0  0.36042  0.75691  0.97409  1.0000
  C   C1020     1.0  0.01514  0.64407  0.54840  1.0000
  H   H1811     1.0  0.00853  0.68794  0.70405  1.0000
  C   C1021     1.0  0.15651  0.66453  0.52212  1.0000
  H   H1812     1.0  0.29238  0.77805  0.92090  1.0000
  H   H1813     1.0  0.16725  0.75483  0.92539  1.0000
  C   C1022     1.0  0.96471  0.81793  0.67224  1.0000
  H   H1814     1.0  0.35526  0.86057  0.57786  1.0000
  C   C1023     1.0  0.04289  0.91765  0.72290  1.0000
  H   H1815     1.0  0.23742  0.87422  0.60501  1.0000
  C   C1024     1.0  0.25937  0.87222  0.62584  1.0000
  N   N56       1.0  0.26165  0.64482  0.91988  1.0000
  S   S246      1.0  0.17826  0.69105  0.95453  1.0000
  H   H1816     1.0  0.34505  0.88614  0.64620  1.0000
  H   H1817     1.0  0.11055  0.65840  0.75081  1.0000
  C   C1025     1.0  0.98274  0.94940  0.54703  1.0000
  H   H1818     1.0  0.25919  0.66570  0.85137  1.0000
  Fe  Fe125     1.0  0.08373  0.78937  0.55175  1.0000
  Fe  Fe126     1.0  0.05325  0.84929  0.55680  1.0000
  H   H1819     1.0  0.96353  0.85126  0.73383  1.0000
  H   H1820     1.0  0.34569  0.76166  0.77403  1.0000
  C   C1026     1.0  0.32655  0.63523  0.94053  1.0000
  H   H1821     1.0  0.28515  0.85119  0.68587  1.0000
  C   C1027     1.0  0.30950  0.66117  0.92239  1.0000
  H   H1822     1.0  0.23877  0.90272  0.68175  1.0000
  H   H1823     1.0  0.20560  0.64944  0.66938  1.0000
  H   H1824     1.0  0.33842  0.91089  0.92511  1.0000
  C   C1028     1.0  0.09433  0.82653  0.99819  1.0000
  S   S247      1.0  0.04275  0.78602  0.82002  1.0000
  H   H1825     1.0  0.32589  0.69042  0.93548  1.0000
  H   H1826     1.0  0.31900  0.84650  0.99659  1.0000
  H   H1827     1.0  0.04167  0.93550  0.88932  1.0000
  C   C1029     1.0  0.01882  0.67540  0.65253  1.0000
  C   C1030     1.0  0.15337  0.69546  0.91541  1.0000
  N   N57       1.0  0.05534  0.94361  0.94433  1.0000
  H   H1828     1.0  0.28209  0.77953  0.96471  1.0000
  H   H1829     1.0  0.02072  0.74670  0.93759  1.0000
  C   C1031     1.0  0.23098  0.64738  0.72227  1.0000
  C   C1032     1.0  0.99988  0.82838  0.93741  1.0000
  H   H1830     1.0  0.22614  0.76928  0.53510  1.0000
  H   H1831     1.0  0.11949  0.75533  0.87615  1.0000
  C   C1033     1.0  0.01938  0.63889  0.74554  1.0000
  C   C1034     1.0  0.08119  0.68148  0.71141  1.0000
  H   H1832     1.0  0.97583  0.86918  0.93479  1.0000
  H   H1833     1.0  0.35550  0.83036  0.95370  1.0000
  H   H1834     1.0  0.04064  0.89503  0.97856  1.0000
  C   C1035     1.0  0.22961  0.92638  0.83313  1.0000
  H   H1835     1.0  0.27065  0.95378  0.67129  1.0000
  Fe  Fe127     1.0  0.07918  0.75504  0.80842  1.0000
  H   H1836     1.0  0.27705  0.71023  0.67964  1.0000
  C   C1036     1.0  0.11489  0.79717  0.63651  1.0000
  H   H1837     1.0  0.35124  0.65207  0.73200  1.0000
  H   H1838     1.0  0.02725  0.82569  0.92910  1.0000
  H   H1839     1.0  0.31838  0.92549  0.98882  1.0000
  C   C1037     1.0  0.32410  0.86245  0.97199  1.0000
  H   H1840     1.0  0.29959  0.67416  0.98927  1.0000
  H   H1841     1.0  0.25728  0.64464  0.71172  1.0000
  C   C1038     1.0  0.17497  0.93462  0.71792  1.0000
  H   H1842     1.0  0.92978  0.72180  0.76870  1.0000
  H   H1843     1.0  0.39039  0.92853  0.55476  1.0000
  C   C1039     1.0  0.34125  0.76450  0.59899  1.0000
  C   C1040     1.0  0.39984  0.90153  0.99191  1.0000
  H   H1844     1.0  0.98178  0.90315  0.98477  1.0000
  H   H1845     1.0  0.04983  0.66493  0.54701  1.0000
  H   H1846     1.0  0.03601  0.74760  0.89462  1.0000
  H   H1847     1.0  0.05451  0.69757  0.97081  1.0000
  H   H1848     1.0  0.95048  0.68496  0.54818  1.0000
  S   S248      1.0  0.06312  0.69462  0.82636  1.0000
  H   H1849     1.0  0.25543  0.72733  0.71138  1.0000
  C   C1041     1.0  0.95745  0.94372  0.98212  1.0000
  C   C1042     1.0  0.98985  0.64669  0.51596  1.0000
  H   H1850     1.0  0.22684  0.92083  0.64162  1.0000
  C   C1043     1.0  0.36910  0.92278  0.94179  1.0000
  H   H1851     1.0  0.08918  0.63812  0.84720  1.0000
  C   C1044     1.0  0.27728  0.73449  0.55946  1.0000
  H   H1852     1.0  0.98438  0.90360  0.68972  1.0000
  H   H1853     1.0  0.09136  0.80311  0.62268  1.0000
  C   C1045     1.0  0.02201  0.67834  0.95786  1.0000
  N   N58       1.0  0.07808  0.95550  0.71004  1.0000
  C   C1046     1.0  0.21384  0.66612  0.69410  1.0000
  C   C1047     1.0  0.17545  0.78147  0.67246  1.0000
  H   H1854     1.0  0.05834  0.81789  0.69395  1.0000
  H   H1855     1.0  0.13311  0.93432  0.67559  1.0000
  C   C1048     1.0  0.34450  0.78334  0.53920  1.0000
  H   H1856     1.0  0.12616  0.83632  0.67920  1.0000
  C   C1049     1.0  0.00733  0.66272  0.68991  1.0000
  C   C1050     1.0  0.19955  0.87928  0.96264  1.0000
  H   H1857     1.0  0.26787  0.70303  0.92227  1.0000
  H   H1858     1.0  0.25718  0.72456  0.82802  1.0000
  C   C1051     1.0  0.15557  0.76246  0.64070  1.0000
  C   C1052     1.0  0.25822  0.81639  0.59693  1.0000
  H   H1859     1.0  0.37067  0.68728  0.53010  1.0000
  C   C1053     1.0  0.91548  0.90091  0.56869  1.0000
  C   C1054     1.0  0.92349  0.78126  0.80451  1.0000
  N   N59       1.0  0.28695  0.85748  0.61160  1.0000
  C   C1055     1.0  0.14990  0.72922  0.90867  1.0000
  H   H1860     1.0  0.93507  0.89331  0.58776  1.0000
  H   H1861     1.0  0.97003  0.80563  0.92319  1.0000
  H   H1862     1.0  0.09369  0.94469  0.90374  1.0000
  H   H1863     1.0  0.29148  0.89303  0.56691  1.0000
  C   C1056     1.0  0.31827  0.85599  0.63919  1.0000
  C   C1057     1.0  0.91903  0.69051  0.81643  1.0000
  H   H1864     1.0  0.99724  0.82268  0.96530  1.0000
  H   H1865     1.0  0.93732  0.65016  0.79535  1.0000
  H   H1866     1.0  0.13799  0.63823  0.89603  1.0000
  H   H1867     1.0  0.21110  0.93771  0.97436  1.0000
  H   H1868     1.0  0.07747  0.65142  0.96065  1.0000
  H   H1869     1.0  0.33722  0.91390  0.59643  1.0000
  S   S249      1.0  0.01852  0.78357  0.55150  1.0000
  H   H1870     1.0  0.00933  0.87340  0.90150  1.0000
  H   H1871     1.0  0.17562  0.76886  0.53162  1.0000
  C   C1058     1.0  0.03878  0.73801  0.92122  1.0000
  C   C1059     1.0  0.26540  0.66573  0.98349  1.0000
  C   C1060     1.0  0.04499  0.84313  0.64794  1.0000
  H   H1872     1.0  0.21538  0.64209  0.54885  1.0000
  H   H1873     1.0  0.03980  0.68650  0.90447  1.0000
  H   H1874     1.0  0.36263  0.80089  0.51870  1.0000
  C   C1061     1.0  0.16244  0.63013  0.51109  1.0000
  H   H1875     1.0  0.04828  0.63621  0.92035  1.0000
  C   C1062     1.0  0.07141  0.95542  0.67146  1.0000
  H   H1876     1.0  0.13300  0.94460  0.97263  1.0000
  H   H1877     1.0  0.12363  0.82407  0.99707  1.0000
  H   H1878     1.0  0.22371  0.93702  0.85718  1.0000
  H   H1879     1.0  0.39032  0.68569  0.95272  1.0000
  H   H1880     1.0  0.98804  0.94080  0.80514  1.0000
  C   C1063     1.0  0.99472  0.93522  0.98138  1.0000
  H   H1881     1.0  0.25864  0.94845  0.78622  1.0000
  H   H1882     1.0  0.12294  0.95373  0.74968  1.0000
  C   C1064     1.0  0.91532  0.95159  0.53043  1.0000
  H   H1883     1.0  0.99530  0.67726  0.51414  1.0000
  H   H1884     1.0  0.12832  0.88911  0.00453  1.0000
  C   C1065     1.0  0.30209  0.65523  0.51716  1.0000
  C   C1066     1.0  0.31294  0.63642  0.66388  1.0000
  H   H1885     1.0  0.03955  0.63003  0.76235  1.0000
  H   H1886     1.0  0.27319  0.64202  0.78235  1.0000
  H   H1887     1.0  0.94160  0.93285  0.00630  1.0000
  H   H1888     1.0  0.32821  0.95541  0.78672  1.0000
  H   H1889     1.0  0.40907  0.88634  0.97355  1.0000
  H   H1890     1.0  0.99382  0.95541  0.61905  1.0000
  H   H1891     1.0  0.37261  0.95753  0.00274  1.0000
  C   C1067     1.0  0.98036  0.93261  0.51065  1.0000
  H   H1892     1.0  0.23049  0.66777  0.51023  1.0000
  H   H1893     1.0  0.91715  0.96043  0.89487  1.0000
  H   H1894     1.0  0.10149  0.96074  0.60679  1.0000
  H   H1895     1.0  0.08150  0.96122  0.99695  1.0000
  C   C1068     1.0  0.96709  0.96114  0.62289  1.0000
  C   C1069     1.0  0.25519  0.96089  0.81027  1.0000
  H   H1896     1.0  0.99306  0.05886  0.44531  1.0000
  S   S250      1.0  0.19144  0.08903  0.47667  1.0000
  C   C1070     1.0  0.30593  0.10268  0.46881  1.0000
  C   C1071     1.0  0.28835  0.18021  0.09308  1.0000
  H   H1897     1.0  0.27802  0.98256  0.16714  1.0000
  S   S251      1.0  0.16722  0.01617  0.14426  1.0000
  C   C1072     1.0  0.03762  0.15727  0.01858  1.0000
  Fe  Fe128     1.0  0.18801  0.19533  0.40721  1.0000
  C   C1073     1.0  0.26617  0.02200  0.39319  1.0000
  C   C1074     1.0  0.34740  0.03897  0.21292  1.0000
  H   H1898     1.0  0.26489  0.09644  0.36741  1.0000
  H   H1899     1.0  0.20975  0.02513  0.34388  1.0000
  H   H1900     1.0  0.26588  0.00772  0.32052  1.0000
  C   C1075     1.0  0.91666  0.99708  0.48232  1.0000
  H   H1901     1.0  0.21185  0.96519  0.11264  1.0000
  C   C1076     1.0  0.39104  0.20251  0.46948  1.0000
  N   N60       1.0  0.03122  0.19200  0.07181  1.0000
  H   H1902     1.0  0.06181  0.27240  0.04907  1.0000
  H   H1903     1.0  0.12742  0.29190  0.27852  1.0000
  C   C1077     1.0  0.04073  0.24814  0.03050  1.0000
  H   H1904     1.0  0.13890  0.17018  0.08292  1.0000
  C   C1078     1.0  0.18510  0.29129  0.26717  1.0000
  H   H1905     1.0  0.29209  0.12198  0.47385  1.0000
  C   C1079     1.0  0.28652  0.12510  0.35821  1.0000
  H   H1906     1.0  0.35979  0.22928  0.32479  1.0000
  H   H1907     1.0  0.19392  0.97507  0.35314  1.0000
  H   H1908     1.0  0.30599  0.09987  0.44059  1.0000
  C   C1080     1.0  0.33006  0.19540  0.36852  1.0000
  H   H1909     1.0  0.14703  0.01385  0.31145  1.0000
  H   H1910     1.0  0.29089  0.27051  0.22169  1.0000
  C   C1081     1.0  0.24789  0.26991  0.17956  1.0000
  C   C1082     1.0  0.03755  0.10504  0.19315  1.0000
  H   H1911     1.0  0.36361  0.99332  0.20211  1.0000
  H   H1912     1.0  0.32738  0.05641  0.29352  1.0000
  H   H1913     1.0  0.06070  0.24220  0.01400  1.0000
  H   H1914     1.0  0.38947  0.23007  0.47251  1.0000
  H   H1915     1.0  0.96711  0.07943  0.39080  1.0000
  C   C1083     1.0  0.12798  0.98675  0.32614  1.0000
  H   H1916     1.0  0.24067  0.05510  0.04502  1.0000
  H   H1917     1.0  0.07245  0.16673  0.06780  1.0000
  H   H1918     1.0  0.20118  0.16031  0.27730  1.0000
  H   H1919     1.0  0.30716  0.07519  0.01486  1.0000
  H   H1920     1.0  0.36533  0.11324  0.20695  1.0000
  C   C1084     1.0  0.22063  0.01406  0.39727  1.0000
  H   H1921     1.0  0.15324  0.25219  0.48263  1.0000
  H   H1922     1.0  0.28458  0.02891  0.41859  1.0000
  H   H1923     1.0  0.91654  0.12173  0.14174  1.0000
  H   H1924     1.0  0.20694  0.99077  0.41649  1.0000
  H   H1925     1.0  0.37075  0.03778  0.32104  1.0000
  H   H1926     1.0  0.06086  0.13585  0.18739  1.0000
  H   H1927     1.0  0.34162  0.11536  0.24546  1.0000
  H   H1928     1.0  0.25225  0.10539  0.04542  1.0000
  S   S252      1.0  0.91913  0.00578  0.12438  1.0000
  H   H1929     1.0  0.40513  0.17355  0.26648  1.0000
  H   H1930     1.0  0.94225  0.09608  0.12632  1.0000
  H   H1931     1.0  0.05423  0.27682  0.23882  1.0000
  H   H1932     1.0  0.05276  0.09090  0.33322  1.0000
  H   H1933     1.0  0.92890  0.02841  0.47561  1.0000
  H   H1934     1.0  0.38589  0.98285  0.32265  1.0000
  H   H1935     1.0  0.07836  0.00938  0.36806  1.0000
  H   H1936     1.0  0.99565  0.27015  0.02258  1.0000
  C   C1085     1.0  0.30954  0.22069  0.04281  1.0000
  C   C1086     1.0  0.38621  0.11993  0.37208  1.0000
  H   H1937     1.0  0.01020  0.13553  0.09584  1.0000
  C   C1087     1.0  0.30482  0.15770  0.38071  1.0000
  H   H1938     1.0  0.38803  0.25891  0.10855  1.0000
  H   H1939     1.0  0.21376  0.26189  0.17363  1.0000
  H   H1940     1.0  0.14998  0.02622  0.40798  1.0000
  C   C1088     1.0  0.31865  0.04067  0.26814  1.0000
  H   H1941     1.0  0.12653  0.26335  0.14956  1.0000
  H   H1942     1.0  0.92386  0.98201  0.46212  1.0000
  C   C1089     1.0  0.92375  0.20287  0.14600  1.0000
  H   H1943     1.0  0.00327  0.01769  0.11993  1.0000
  S   S253      1.0  0.27269  0.09435  0.19486  1.0000
  C   C1090     1.0  0.99614  0.13713  0.33654  1.0000
  H   H1944     1.0  0.02830  0.14048  0.33458  1.0000
  C   C1091     1.0  0.11229  0.18323  0.30013  1.0000
  C   C1092     1.0  0.95951  0.09549  0.32466  1.0000
  C   C1093     1.0  0.11831  0.11301  0.10648  1.0000
  H   H1945     1.0  0.24687  0.04858  0.47038  1.0000
  H   H1946     1.0  0.10218  0.04081  0.48629  1.0000
  C   C1094     1.0  0.20923  0.96961  0.08467  1.0000
  C   C1095     1.0  0.10750  0.00473  0.09171  1.0000
  H   H1947     1.0  0.00507  0.02441  0.37953  1.0000
  H   H1948     1.0  0.09617  0.28229  0.44409  1.0000
  S   S254      1.0  0.34251  0.23599  0.39485  1.0000
  H   H1949     1.0  0.05193  0.03693  0.10085  1.0000
  H   H1950     1.0  0.37675  0.02104  0.09529  1.0000
  H   H1951     1.0  0.30288  0.98122  0.28638  1.0000
  H   H1952     1.0  0.05676  0.17671  0.13891  1.0000
  C   C1096     1.0  0.14976  0.02822  0.10516  1.0000
  C   C1097     1.0  0.40711  0.04189  0.10835  1.0000
  C   C1098     1.0  0.03010  0.23309  0.48614  1.0000
  C   C1099     1.0  0.99652  0.15374  0.08460  1.0000
  S   S255      1.0  0.37714  0.07297  0.42685  1.0000
  H   H1953     1.0  0.26553  0.15396  0.10487  1.0000
  C   C1100     1.0  0.99661  0.27276  0.13125  1.0000
  H   H1954     1.0  0.23764  0.23378  0.22464  1.0000
  C   C1101     1.0  0.05831  0.22029  0.10104  1.0000
  H   H1955     1.0  0.15734  0.99325  0.02185  1.0000
  S   S256      1.0  0.09759  0.06509  0.01006  1.0000
  H   H1956     1.0  0.09679  0.07861  0.18572  1.0000
  H   H1957     1.0  0.29340  0.24840  0.27840  1.0000
  H   H1958     1.0  0.13428  0.09707  0.11824  1.0000
  H   H1959     1.0  0.32953  0.17108  0.28527  1.0000
  H   H1960     1.0  0.08612  0.13876  0.01787  1.0000
  H   H1961     1.0  0.99555  0.16533  0.28777  1.0000
  C   C1102     1.0  0.28687  0.99668  0.27338  1.0000
  H   H1962     1.0  0.91884  0.99899  0.34788  1.0000
  H   H1963     1.0  0.01445  0.27377  0.45795  1.0000
  H   H1964     1.0  0.95604  0.09417  0.29604  1.0000
  H   H1965     1.0  0.11400  0.04800  0.34191  1.0000
  H   H1966     1.0  0.32151  0.04530  0.20255  1.0000
  Fe  Fe129     1.0  0.28189  0.21653  0.42041  1.0000
  S   S257      1.0  0.26889  0.08914  0.29559  1.0000
  C   C1103     1.0  0.12159  0.25126  0.47870  1.0000
  H   H1967     1.0  0.09914  0.22113  0.46798  1.0000
  N   N61       1.0  0.96296  0.06041  0.33853  1.0000
  C   C1104     1.0  0.05960  0.18299  0.05170  1.0000
  C   C1105     1.0  0.07462  0.05650  0.16571  1.0000
  H   H1968     1.0  0.01416  0.12506  0.23361  1.0000
  C   C1106     1.0  0.35776  0.23890  0.09482  1.0000
  C   C1107     1.0  0.99306  0.16924  0.31543  1.0000
  C   C1108     1.0  0.29469  0.12996  0.32367  1.0000
  N   N62       1.0  0.35845  0.05005  0.25074  1.0000
  C   C1109     1.0  0.11623  0.17687  0.26580  1.0000
  H   H1969     1.0  0.10416  0.05567  0.41844  1.0000
  C   C1110     1.0  0.09242  0.01489  0.06115  1.0000
  H   H1970     1.0  0.98560  0.02095  0.32403  1.0000
  H   H1971     1.0  0.09556  0.04922  0.15147  1.0000
  H   H1972     1.0  0.05363  0.03613  0.30114  1.0000
  C   C1111     1.0  0.95862  0.25900  0.10990  1.0000
  H   H1973     1.0  0.39225  0.18086  0.22251  1.0000
  H   H1974     1.0  0.03266  0.10382  0.29394  1.0000
  H   H1975     1.0  0.37238  0.27168  0.04808  1.0000
  H   H1976     1.0  0.23172  0.00364  0.28226  1.0000
  H   H1977     1.0  0.03910  0.23043  0.11432  1.0000
  H   H1978     1.0  0.39652  0.16127  0.33170  1.0000
  S   S258      1.0  0.24849  0.25240  0.41937  1.0000
  H   H1979     1.0  0.08637  0.08388  0.28345  1.0000
  H   H1980     1.0  0.97346  0.13564  0.06285  1.0000
  C   C1112     1.0  0.00108  0.10589  0.21012  1.0000
  H   H1981     1.0  0.18201  0.10023  0.04607  1.0000
  C   C1113     1.0  0.38820  0.09410  0.25389  1.0000
  H   H1982     1.0  0.31363  0.97383  0.22001  1.0000
  C   C1114     1.0  0.25169  0.99194  0.29551  1.0000
  C   C1115     1.0  0.04425  0.01818  0.18389  1.0000
  H   H1983     1.0  0.08443  0.07357  0.38219  1.0000
  H   H1984     1.0  0.25212  0.98643  0.50187  1.0000
  H   H1985     1.0  0.23354  0.25544  0.28807  1.0000
  C   C1116     1.0  0.93175  0.11804  0.11953  1.0000
  C   C1117     1.0  0.07046  0.26529  0.50717  1.0000
  C   C1118     1.0  0.98586  0.04823  0.31494  1.0000
  H   H1986     1.0  0.98562  0.18936  0.03033  1.0000
  C   C1119     1.0  0.96257  0.23976  0.37784  1.0000
  C   C1120     1.0  0.17249  0.17326  0.31788  1.0000
  H   H1987     1.0  0.17695  0.05574  0.37347  1.0000
  C   C1121     1.0  0.15287  0.15480  0.09895  1.0000
  H   H1988     1.0  0.08607  0.97962  0.10587  1.0000
  C   C1122     1.0  0.27914  0.18786  0.05912  1.0000
  H   H1989     1.0  0.12182  0.97423  0.25529  1.0000
  C   C1123     1.0  0.96958  0.15769  0.11149  1.0000
  H   H1990     1.0  0.27230  0.02148  0.08818  1.0000
  H   H1991     1.0  0.04687  0.97558  0.21912  1.0000
  H   H1992     1.0  0.08467  0.24751  0.09111  1.0000
  C   C1124     1.0  0.34883  0.24623  0.06068  1.0000
  H   H1993     1.0  0.99328  0.05009  0.16606  1.0000
  H   H1994     1.0  0.98907  0.25777  0.49739  1.0000
  H   H1995     1.0  0.20978  0.08039  0.09868  1.0000
  H   H1996     1.0  0.24873  0.16810  0.04542  1.0000
  Fe  Fe130     1.0  0.91039  0.24378  0.03333  1.0000
  H   H1997     1.0  0.30525  0.15379  0.00999  1.0000
  C   C1125     1.0  0.06950  0.00376  0.20765  1.0000
  H   H1998     1.0  0.97377  0.04008  0.03223  1.0000
  H   H1999     1.0  0.09470  0.17869  0.24568  1.0000
  H   H2000     1.0  0.39816  0.00712  0.15329  1.0000
  C   C1126     1.0  0.27958  0.06201  0.48359  1.0000
  S   S259      1.0  0.22221  0.16089  0.40297  1.0000
  C   C1127     1.0  0.34010  0.20023  0.33432  1.0000
  H   H2001     1.0  0.02774  0.26114  0.17590  1.0000
  C   C1128     1.0  0.01085  0.06064  0.08157  1.0000
  H   H2002     1.0  0.18315  0.24609  0.23516  1.0000
  H   H2003     1.0  0.36331  0.99785  0.26486  1.0000
  H   H2004     1.0  0.96837  0.04022  0.28897  1.0000
  C   C1129     1.0  0.05297  0.06124  0.28764  1.0000
  H   H2005     1.0  0.35449  0.96791  0.42145  1.0000
  C   C1130     1.0  0.11917  0.04946  0.04473  1.0000
  H   H2006     1.0  0.04362  0.07362  0.42810  1.0000
  H   H2007     1.0  0.29964  0.05222  0.25312  1.0000
  H   H2008     1.0  0.98946  0.17059  0.13591  1.0000
  H   H2009     1.0  0.01237  0.02407  0.44273  1.0000
  C   C1131     1.0  0.37142  0.12000  0.23495  1.0000
  H   H2010     1.0  0.10192  0.09834  0.08155  1.0000
  C   C1132     1.0  0.99900  0.24824  0.47492  1.0000
  H   H2011     1.0  0.96381  0.27292  0.27062  1.0000
  C   C1133     1.0  0.16169  0.07283  0.05798  1.0000
  H   H2012     1.0  0.24933  0.24660  0.12994  1.0000
  H   H2013     1.0  0.98557  0.06605  0.09023  1.0000
  C   C1134     1.0  0.03245  0.07915  0.30883  1.0000
  H   H2014     1.0  0.19361  0.98805  0.08003  1.0000
  H   H2015     1.0  0.37547  0.05779  0.19805  1.0000
  C   C1135     1.0  0.98199  0.25607  0.34396  1.0000
  H   H2016     1.0  0.25980  0.26950  0.04065  1.0000
  H   H2017     1.0  0.07884  0.23751  0.17251  1.0000
  H   H2018     1.0  0.38389  0.14862  0.14348  1.0000
  C   C1136     1.0  0.39699  0.04047  0.30614  1.0000
  C   C1137     1.0  0.99071  0.03041  0.05187  1.0000
  H   H2019     1.0  0.09507  0.98275  0.32423  1.0000
  H   H2020     1.0  0.02295  0.02278  0.19998  1.0000
  C   C1138     1.0  0.13755  0.26979  0.41711  1.0000
  S   S260      1.0  0.33889  0.19779  0.15422  1.0000
  H   H2021     1.0  0.01773  0.09425  0.37529  1.0000
  H   H2022     1.0  0.01969  0.19854  0.32442  1.0000
  C   C1139     1.0  0.25758  0.26537  0.21833  1.0000
  H   H2023     1.0  0.05934  0.99711  0.05133  1.0000
  H   H2024     1.0  0.96213  0.16835  0.31861  1.0000
  H   H2025     1.0  0.95493  0.01032  0.39748  1.0000
  H   H2026     1.0  0.35611  0.11751  0.37778  1.0000
  H   H2027     1.0  0.10511  0.20081  0.11690  1.0000
  H   H2028     1.0  0.29781  0.15381  0.40732  1.0000
  H   H2029     1.0  0.03456  0.05039  0.26227  1.0000
  H   H2030     1.0  0.05358  0.09394  0.21216  1.0000
  C   C1140     1.0  0.02037  0.07903  0.15984  1.0000
  H   H2031     1.0  0.93030  0.27455  0.17725  1.0000
  H   H2032     1.0  0.31369  0.97745  0.48934  1.0000
  H   H2033     1.0  0.08850  0.21055  0.04505  1.0000
  Fe  Fe131     1.0  0.25290  0.10669  0.24406  1.0000
  C   C1141     1.0  0.40307  0.09956  0.39165  1.0000
  C   C1142     1.0  0.14761  0.02801  0.37943  1.0000
  S   S261      1.0  0.95666  0.28556  0.07424  1.0000
  Fe  Fe132     1.0  0.21463  0.15059  0.45880  1.0000
  H   H2034     1.0  0.29084  0.25045  0.16159  1.0000
  H   H2035     1.0  0.98348  0.25943  0.39956  1.0000
  H   H2036     1.0  0.34351  0.14556  0.03395  1.0000
  H   H2037     1.0  0.14089  0.09441  0.39248  1.0000
  C   C1143     1.0  0.26678  0.08604  0.04476  1.0000
  H   H2038     1.0  0.11961  0.22307  0.17680  1.0000
  H   H2039     1.0  0.36399  0.18246  0.45111  1.0000
  H   H2040     1.0  0.32821  0.00808  0.14771  1.0000
  H   H2041     1.0  0.16563  0.28854  0.08468  1.0000
  H   H2042     1.0  0.29472  0.04427  0.47725  1.0000
  S   S262      1.0  0.13381  0.18839  0.36917  1.0000
  S   S263      1.0  0.18312  0.07848  0.22647  1.0000
  H   H2043     1.0  0.28308  0.04725  0.37627  1.0000
  C   C1144     1.0  0.25501  0.99277  0.07393  1.0000
  N   N63       1.0  0.14691  0.99272  0.36300  1.0000
  C   C1145     1.0  0.32737  0.20600  0.11120  1.0000
  H   H2044     1.0  0.98461  0.11793  0.19241  1.0000
  Fe  Fe133     1.0  0.20416  0.07168  0.17600  1.0000
  H   H2045     1.0  0.01136  0.12784  0.02476  1.0000
  H   H2046     1.0  0.16876  0.17212  0.12313  1.0000
  C   C1146     1.0  0.19282  0.00137  0.36240  1.0000
  H   H2047     1.0  0.11271  0.23967  0.40829  1.0000
  H   H2048     1.0  0.93016  0.23692  0.37762  1.0000
  S   S264      1.0  0.27743  0.20321  0.47633  1.0000
  H   H2049     1.0  0.97736  0.07579  0.21754  1.0000
  S   S265      1.0  0.96313  0.18993  0.20354  1.0000
  C   C1147     1.0  0.10992  0.06673  0.39191  1.0000
  C   C1148     1.0  0.17627  0.16659  0.28353  1.0000
  C   C1149     1.0  0.17709  0.06205  0.08812  1.0000
  C   C1150     1.0  0.91806  0.02631  0.34019  1.0000
  H   H2050     1.0  0.25483  0.99832  0.04594  1.0000
  H   H2051     1.0  0.07067  0.12891  0.11719  1.0000
  H   H2052     1.0  0.08789  0.19019  0.30637  1.0000
  C   C1151     1.0  0.99825  0.25109  0.15978  1.0000
  C   C1152     1.0  0.13921  0.28261  0.25712  1.0000
  C   C1153     1.0  0.98442  0.06941  0.37468  1.0000
  C   C1154     1.0  0.11009  0.03610  0.36825  1.0000
  C   C1155     1.0  0.38237  0.03033  0.26746  1.0000
  H   H2053     1.0  0.22322  0.04145  0.40789  1.0000
  H   H2054     1.0  0.02407  0.99419  0.16481  1.0000
  C   C1156     1.0  0.92226  0.22398  0.11704  1.0000
  C   C1157     1.0  0.08024  0.20493  0.12833  1.0000
  Fe  Fe134     1.0  0.23908  0.23483  0.47429  1.0000
  H   H2055     1.0  0.10551  0.13218  0.15301  1.0000
  N   N64       1.0  0.25025  0.29080  0.24258  1.0000
  H   H2056     1.0  0.19457  0.17216  0.33770  1.0000
  C   C1158     1.0  0.96165  0.21650  0.16746  1.0000
  H   H2057     1.0  0.00546  0.09263  0.14249  1.0000
  C   C1159     1.0  0.03011  0.04567  0.11157  1.0000
  H   H2058     1.0  0.96070  0.23469  0.32355  1.0000
  C   C1160     1.0  0.40926  0.14486  0.34629  1.0000
  C   C1161     1.0  0.32227  0.16739  0.31180  1.0000
  H   H2059     1.0  0.09181  0.99863  0.19319  1.0000
  C   C1162     1.0  0.01055  0.04888  0.42962  1.0000
  C   C1163     1.0  0.98725  0.03526  0.39378  1.0000
  C   C1164     1.0  0.31027  0.98527  0.16643  1.0000
  H   H2060     1.0  0.33962  0.11632  0.48015  1.0000
  H   H2061     1.0  0.26604  0.99591  0.38235  1.0000
  H   H2062     1.0  0.01320  0.25682  0.34486  1.0000
  S   S266      1.0  0.17541  0.18083  0.46234  1.0000
  H   H2063     1.0  0.08790  0.02559  0.22884  1.0000
  H   H2064     1.0  0.01571  0.02748  0.03949  1.0000
  N   N65       1.0  0.05285  0.07364  0.14187  1.0000
  S   S267      1.0  0.21362  0.12967  0.15699  1.0000
  C   C1165     1.0  0.26054  0.28334  0.27937  1.0000
  H   H2065     1.0  0.92982  0.09460  0.33244  1.0000
  C   C1166     1.0  0.08620  0.11325  0.13044  1.0000
  C   C1167     1.0  0.99919  0.29084  0.27680  1.0000
  H   H2066     1.0  0.95623  0.17652  0.10169  1.0000
  C   C1168     1.0  0.33422  0.99606  0.20224  1.0000
  H   H2067     1.0  0.95947  0.21014  0.38176  1.0000
  H   H2068     1.0  0.03524  0.08839  0.07100  1.0000
  H   H2069     1.0  0.40617  0.15671  0.10227  1.0000
  H   H2070     1.0  0.23604  0.21188  0.16412  1.0000
  Fe  Fe135     1.0  0.19897  0.13884  0.20927  1.0000
  H   H2071     1.0  0.96726  0.00109  0.06097  1.0000
  H   H2072     1.0  0.11775  0.25063  0.25200  1.0000
  C   C1169     1.0  0.12627  0.28118  0.45037  1.0000
  S   S268      1.0  0.15388  0.16247  0.21433  1.0000
  H   H2073     1.0  0.17762  0.15346  0.08461  1.0000
  H   H2074     1.0  0.99375  0.14271  0.36385  1.0000
  C   C1170     1.0  0.20302  0.27867  0.23788  1.0000
  H   H2075     1.0  0.28907  0.09223  0.06820  1.0000
  S   S269      1.0  0.26740  0.16814  0.23101  1.0000
  C   C1171     1.0  0.10262  0.23413  0.15855  1.0000
  C   C1172     1.0  0.14822  0.16856  0.25748  1.0000
  H   H2076     1.0  0.27041  0.98202  0.24839  1.0000
  Fe  Fe136     1.0  0.28108  0.15351  0.17989  1.0000
  C   C1173     1.0  0.14027  0.18127  0.32630  1.0000
  C   C1174     1.0  0.01013  0.21094  0.04960  1.0000
  C   C1175     1.0  0.25666  0.24305  0.15753  1.0000
  H   H2077     1.0  0.99202  0.22031  0.06528  1.0000
  H   H2078     1.0  0.03801  0.22355  0.46259  1.0000
  H   H2079     1.0  0.96991  0.22460  0.46061  1.0000
  H   H2080     1.0  0.35641  0.96925  0.05669  1.0000
  H   H2081     1.0  0.18410  0.27466  0.29083  1.0000
  C   C1176     1.0  0.30050  0.27805  0.28752  1.0000
  H   H2082     1.0  0.28680  0.25646  0.33941  1.0000
  C   C1177     1.0  0.40331  0.16386  0.23959  1.0000
  C   C1178     1.0  0.31255  0.28116  0.32620  1.0000
  H   H2083     1.0  0.19832  0.00360  0.50156  1.0000
  H   H2084     1.0  0.34270  0.27987  0.33140  1.0000
  H   H2085     1.0  0.99528  0.29100  0.22109  1.0000
  H   H2086     1.0  0.00916  0.26862  0.28405  1.0000
  H   H2087     1.0  0.39507  0.10413  0.28123  1.0000
  H   H2088     1.0  0.16928  0.27107  0.42090  1.0000
  H   H2089     1.0  0.38755  0.18820  0.49469  1.0000
  H   H2090     1.0  0.27265  0.97629  0.08013  1.0000
  H   H2091     1.0  0.13592  0.29471  0.02654  1.0000
  H   H2092     1.0  0.04826  0.96904  0.50366  1.0000
  H   H2093     1.0  0.95106  0.29028  0.33419  1.0000
  H   H2094     1.0  0.01315  0.20673  0.50199  1.0000
  H   H2095     1.0  0.19553  0.29029  0.21351  1.0000
  C   C1179     1.0  0.29055  0.09297  0.01248  1.0000
  H   H2096     1.0  0.13898  0.29041  0.39660  1.0000
  H   H2097     1.0  0.13707  0.96206  0.41114  1.0000
  H   H2098     1.0  0.08033  0.29440  0.49523  1.0000
  H   H2099     1.0  0.23741  0.29303  0.06477  1.0000
  H   H2100     1.0  0.33190  0.29452  0.48214  1.0000
  H   H2101     1.0  0.40938  0.12141  0.13118  1.0000
  C   C1180     1.0  0.11796  0.05879  0.50927  1.0000
  H   H2102     1.0  0.24527  0.96761  0.54354  1.0000
  H   H2103     1.0  0.34256  0.09069  0.92413  1.0000
  H   H2104     1.0  0.06146  0.00583  0.89947  1.0000
  S   S270      1.0  0.17354  0.17733  0.98190  1.0000
  C   C1181     1.0  0.35316  0.97148  0.73774  1.0000
  H   H2105     1.0  0.11115  0.03328  0.85413  1.0000
  C   C1182     1.0  0.06223  0.25586  0.93230  1.0000
  C   C1183     1.0  0.26315  0.99523  0.52940  1.0000
  H   H2106     1.0  0.02555  0.98034  0.94488  1.0000
  H   H2107     1.0  0.13879  0.99744  0.66175  1.0000
  Fe  Fe137     1.0  0.14807  0.11200  0.98029  1.0000
  H   H2108     1.0  0.37595  0.99760  0.72400  1.0000
  C   C1184     1.0  0.35830  0.04230  0.66537  1.0000
  H   H2109     1.0  0.26540  0.08507  0.52715  1.0000
  H   H2110     1.0  0.39319  0.07267  0.81255  1.0000
  H   H2111     1.0  0.34947  0.07786  0.86372  1.0000
  H   H2112     1.0  0.02219  0.20812  0.59652  1.0000
  H   H2113     1.0  0.95900  0.08240  0.56712  1.0000
  C   C1185     1.0  0.07583  0.99248  0.76377  1.0000
  C   C1186     1.0  0.11743  0.15952  0.80251  1.0000
  H   H2114     1.0  0.01356  0.15548  0.93824  1.0000
  C   C1187     1.0  0.34548  0.16520  0.91423  1.0000
  H   H2115     1.0  0.36049  0.99569  0.63848  1.0000
  H   H2116     1.0  0.04141  0.13212  0.61376  1.0000
  S   S271      1.0  0.25483  0.24570  0.66910  1.0000
  C   C1188     1.0  0.13182  0.21212  0.54428  1.0000
  H   H2117     1.0  0.19918  0.00354  0.99401  1.0000
  C   C1189     1.0  0.38480  0.19099  0.98604  1.0000
  H   H2118     1.0  0.05071  0.99433  0.71151  1.0000
  C   C1190     1.0  0.93740  0.99441  0.51726  1.0000
  H   H2119     1.0  0.21683  0.18278  0.81360  1.0000
  H   H2120     1.0  0.96912  0.97590  0.98100  1.0000
  H   H2121     1.0  0.11588  0.27768  0.69991  1.0000
  C   C1191     1.0  0.16784  0.00241  0.99571  1.0000
  H   H2122     1.0  0.37953  0.11570  0.99890  1.0000
  C   C1192     1.0  0.37068  0.04811  0.82815  1.0000
  C   C1193     1.0  0.19482  0.06714  0.78226  1.0000
  S   S272      1.0  0.07503  0.16241  0.74154  1.0000
  H   H2123     1.0  0.04435  0.14149  0.91325  1.0000
  H   H2124     1.0  0.37079  0.20960  0.99341  1.0000
  H   H2125     1.0  0.35338  0.98384  0.52374  1.0000
  H   H2126     1.0  0.38843  0.06471  0.95294  1.0000
  C   C1194     1.0  0.20529  0.06920  0.85405  1.0000
  H   H2127     1.0  0.14755  0.98435  0.94311  1.0000
  H   H2128     1.0  0.93424  0.01403  0.53572  1.0000
  C   C1195     1.0  0.94402  0.06643  0.80613  1.0000
  C   C1196     1.0  0.25750  0.06409  0.63344  1.0000
  H   H2129     1.0  0.23594  0.97577  0.80384  1.0000
  H   H2130     1.0  0.27862  0.03651  0.78249  1.0000
  C   C1197     1.0  0.01067  0.12768  0.60054  1.0000
  C   C1198     1.0  0.98708  0.06775  0.75746  1.0000
  H   H2131     1.0  0.93199  0.15472  0.65394  1.0000
  H   H2132     1.0  0.20315  0.01606  0.78514  1.0000
  C   C1199     1.0  0.98297  0.99477  0.64942  1.0000
  C   C1200     1.0  0.13118  0.28935  0.78378  1.0000
  S   S273      1.0  0.10200  0.08772  0.69823  1.0000
  H   H2133     1.0  0.37182  0.15828  0.91258  1.0000
  H   H2134     1.0  0.24704  0.08387  0.64430  1.0000
  C   C1201     1.0  0.17244  0.29171  0.80051  1.0000
  H   H2135     1.0  0.35895  0.04028  0.88261  1.0000
  H   H2136     1.0  0.11513  0.26441  0.76483  1.0000
  C   C1202     1.0  0.35004  0.98296  0.77413  1.0000
  H   H2137     1.0  0.33384  0.02639  0.94359  1.0000
  H   H2138     1.0  0.14287  0.17033  0.57447  1.0000
  H   H2139     1.0  0.12460  0.01338  0.60299  1.0000
  C   C1203     1.0  0.36881  0.12294  0.97353  1.0000
  H   H2140     1.0  0.06378  0.19634  0.63575  1.0000
  C   C1204     1.0  0.16205  0.08482  0.51139  1.0000
  C   C1205     1.0  0.35494  0.05351  0.95931  1.0000
  H   H2141     1.0  0.97201  0.00605  0.51462  1.0000
  C   C1206     1.0  0.01692  0.14739  0.91209  1.0000
  C   C1207     1.0  0.10594  0.25049  0.68445  1.0000
  C   C1208     1.0  0.25642  0.25525  0.62515  1.0000
  C   C1209     1.0  0.01559  0.26294  0.00733  1.0000
  C   C1210     1.0  0.33358  0.01334  0.77376  1.0000
  H   H2142     1.0  0.35659  0.03959  0.76014  1.0000
  H   H2143     1.0  0.12919  0.14356  0.78860  1.0000
  C   C1211     1.0  0.37056  0.06451  0.86397  1.0000
  C   C1212     1.0  0.26159  0.03270  0.57849  1.0000
  H   H2144     1.0  0.91088  0.14835  0.71746  1.0000
  H   H2145     1.0  0.26653  0.08222  0.98997  1.0000
  H   H2146     1.0  0.09484  0.00104  0.96903  1.0000
  C   C1213     1.0  0.20181  0.03877  0.79958  1.0000
  C   C1214     1.0  0.31524  0.14890  0.88163  1.0000
  H   H2147     1.0  0.01858  0.07214  0.75087  1.0000
  C   C1215     1.0  0.09851  0.00198  0.86112  1.0000
  S   S274      1.0  0.19246  0.12823  0.66046  1.0000
  H   H2148     1.0  0.99462  0.24034  0.98739  1.0000
  C   C1216     1.0  0.11505  0.18945  0.85558  1.0000
  H   H2149     1.0  0.35512  0.20643  0.54516  1.0000
  N   N66       1.0  0.40829  0.28864  0.56829  1.0000
  H   H2150     1.0  0.94214  0.09177  0.79399  1.0000
  H   H2151     1.0  0.06769  0.98344  0.60511  1.0000
  H   H2152     1.0  0.94590  0.27645  0.63335  1.0000
  C   C1217     1.0  0.37126  0.02685  0.63975  1.0000
  C   C1218     1.0  0.34055  0.08419  0.95185  1.0000
  H   H2153     1.0  0.17222  0.03239  0.99149  1.0000
  H   H2154     1.0  0.12376  0.99376  0.85838  1.0000
  Fe  Fe138     1.0  0.19920  0.11455  0.92234  1.0000
  H   H2155     1.0  0.01460  0.09677  0.80585  1.0000
  S   S275      1.0  0.92129  0.26649  0.98016  1.0000
  H   H2156     1.0  0.16372  0.26374  0.81389  1.0000
  C   C1219     1.0  0.38180  0.28770  0.59670  1.0000
  C   C1220     1.0  0.09935  0.98689  0.61477  1.0000
  C   C1221     1.0  0.95039  0.97129  0.58852  1.0000
  H   H2157     1.0  0.07013  0.98319  0.84327  1.0000
  C   C1222     1.0  0.94270  0.26254  0.65886  1.0000
  H   H2158     1.0  0.05975  0.03850  0.53402  1.0000
  S   S276      1.0  0.18645  0.16766  0.73247  1.0000
  C   C1223     1.0  0.09525  0.22156  0.53342  1.0000
  H   H2159     1.0  0.04291  0.22163  0.70234  1.0000
  H   H2160     1.0  0.38315  0.28078  0.68625  1.0000
  C   C1224     1.0  0.23219  0.25836  0.80147  1.0000
  S   S277      1.0  0.21285  0.11762  0.97912  1.0000
  C   C1225     1.0  0.07750  0.99090  0.72437  1.0000
  S   S278      1.0  0.93675  0.19017  0.92692  1.0000
  H   H2161     1.0  0.01305  0.02048  0.64209  1.0000
  H   H2162     1.0  0.03336  0.23142  0.94258  1.0000
  H   H2163     1.0  0.97483  0.00168  0.58214  1.0000
  C   C1226     1.0  0.31104  0.00629  0.53560  1.0000
  H   H2164     1.0  0.31649  0.97349  0.83706  1.0000
  H   H2165     1.0  0.35263  0.04563  0.98682  1.0000
  C   C1227     1.0  0.94317  0.18416  0.85858  1.0000
  C   C1228     1.0  0.13496  0.97363  0.96839  1.0000
  H   H2166     1.0  0.11711  0.23200  0.69907  1.0000
  H   H2167     1.0  0.01382  0.25005  0.77766  1.0000
  H   H2168     1.0  0.94454  0.22892  0.57681  1.0000
  H   H2169     1.0  0.05256  0.12908  0.97857  1.0000
  H   H2170     1.0  0.95066  0.26362  0.88161  1.0000
  N   N67       1.0  0.99577  0.17110  0.64030  1.0000
  H   H2171     1.0  0.19714  0.03535  0.53243  1.0000
  H   H2172     1.0  0.22190  0.20876  0.54659  1.0000
  H   H2173     1.0  0.19439  0.11899  0.85124  1.0000
  H   H2174     1.0  0.27151  0.19231  0.81739  1.0000
  H   H2175     1.0  0.96155  0.03915  0.74618  1.0000
  C   C1229     1.0  0.07302  0.19041  0.80403  1.0000
  H   H2176     1.0  0.38586  0.02926  0.83291  1.0000
  C   C1230     1.0  0.07149  0.02797  0.77412  1.0000
  C   C1231     1.0  0.24754  0.06041  0.59448  1.0000
  H   H2177     1.0  0.20106  0.96419  0.71167  1.0000
  C   C1232     1.0  0.08618  0.99673  0.89802  1.0000
  Fe  Fe139     1.0  0.17157  0.10815  0.71290  1.0000
  C   C1233     1.0  0.39860  0.05178  0.61601  1.0000
  H   H2178     1.0  0.95498  0.15564  0.56879  1.0000
  H   H2179     1.0  0.21298  0.01805  0.84883  1.0000
  H   H2180     1.0  0.31982  0.00624  0.56352  1.0000
  C   C1234     1.0  0.15840  0.10647  0.56808  1.0000
  H   H2181     1.0  0.25365  0.21312  0.84878  1.0000
  H   H2182     1.0  0.92335  0.16253  0.59832  1.0000
  H   H2183     1.0  0.35725  0.11129  0.81407  1.0000
  C   C1235     1.0  0.36897  0.28131  0.66000  1.0000
  C   C1236     1.0  0.99038  0.27947  0.74121  1.0000
  H   H2184     1.0  0.40047  0.28340  0.51276  1.0000
  H   H2185     1.0  0.25244  0.27957  0.73700  1.0000
  C   C1237     1.0  0.37532  0.21255  0.56978  1.0000
  H   H2186     1.0  0.24684  0.00416  0.59195  1.0000
  H   H2187     1.0  0.35790  0.15073  0.57264  1.0000
  H   H2188     1.0  0.02957  0.25493  0.88381  1.0000
  H   H2189     1.0  0.00621  0.09910  0.85988  1.0000
  C   C1238     1.0  0.96345  0.14347  0.69808  1.0000
  C   C1239     1.0  0.94286  0.15243  0.72680  1.0000
  C   C1240     1.0  0.96539  0.16827  0.66607  1.0000
  H   H2190     1.0  0.04272  0.02681  0.76002  1.0000
  C   C1241     1.0  0.14534  0.29362  0.53045  1.0000
  C   C1242     1.0  0.25050  0.20525  0.82119  1.0000
  C   C1243     1.0  0.98627  0.06872  0.79646  1.0000
  H   H2191     1.0  0.97229  0.26073  0.66590  1.0000
  H   H2192     1.0  0.91759  0.03942  0.79284  1.0000
  H   H2193     1.0  0.02420  0.17140  0.00031  1.0000
  H   H2194     1.0  0.17405  0.12546  0.59031  1.0000
  S   S279      1.0  0.25301  0.28318  0.51182  1.0000
  H   H2195     1.0  0.10412  0.01875  0.66033  1.0000
  C   C1244     1.0  0.92105  0.98501  0.91130  1.0000
  H   H2196     1.0  0.28710  0.09795  0.75686  1.0000
  H   H2197     1.0  0.97309  0.25275  0.72438  1.0000
  C   C1245     1.0  0.26370  0.24185  0.79953  1.0000
  H   H2198     1.0  0.37694  0.96931  0.88483  1.0000
  H   H2199     1.0  0.98900  0.27253  0.85327  1.0000
  H   H2200     1.0  0.33282  0.03575  0.52590  1.0000
  H   H2201     1.0  0.06741  0.02773  0.80188  1.0000
  C   C1246     1.0  0.97554  0.11083  0.89881  1.0000
  N   N68       1.0  0.25215  0.02603  0.54014  1.0000
  H   H2202     1.0  0.22156  0.19424  0.60883  1.0000
  C   C1247     1.0  0.20738  0.03995  0.83546  1.0000
  H   H2203     1.0  0.06956  0.19519  0.51880  1.0000
  H   H2204     1.0  0.93881  0.13226  0.74833  1.0000
  C   C1248     1.0  0.19666  0.09673  0.83684  1.0000
  H   H2205     1.0  0.15185  0.15983  0.85066  1.0000
  C   C1249     1.0  0.09053  0.97071  0.97050  1.0000
  C   C1250     1.0  0.38855  0.96829  0.94053  1.0000
  C   C1251     1.0  0.17295  0.97497  0.54837  1.0000
  C   C1252     1.0  0.98261  0.13021  0.62738  1.0000
  Fe  Fe140     1.0  0.20054  0.18597  0.67839  1.0000
  H   H2206     1.0  0.98939  0.98489  0.67495  1.0000
  C   C1253     1.0  0.19137  0.09565  0.80084  1.0000
  Fe  Fe141     1.0  0.11849  0.14888  0.71340  1.0000
  C   C1254     1.0  0.38432  0.28730  0.53429  1.0000
  S   S280      1.0  0.13254  0.10494  0.92351  1.0000
  H   H2207     1.0  0.29374  0.11970  0.94208  1.0000
  H   H2208     1.0  0.99799  0.27410  0.93227  1.0000
  H   H2209     1.0  0.30331  0.00122  0.75663  1.0000
  H   H2210     1.0  0.94856  0.11640  0.90240  1.0000
  H   H2211     1.0  0.98031  0.06372  0.60180  1.0000
  H   H2212     1.0  0.04766  0.27328  0.74323  1.0000
  C   C1255     1.0  0.97680  0.10181  0.86067  1.0000
  H   H2213     1.0  0.98258  0.09181  0.74575  1.0000
  C   C1256     1.0  0.32182  0.14935  0.94750  1.0000
  C   C1257     1.0  0.09399  0.05722  0.53636  1.0000
  H   H2214     1.0  0.98267  0.12861  0.84594  1.0000
  H   H2215     1.0  0.36000  0.19783  0.91407  1.0000
  H   H2216     1.0  0.14746  0.98837  0.71788  1.0000
  H   H2217     1.0  0.96803  0.27828  0.75958  1.0000
  H   H2218     1.0  0.92042  0.26814  0.70753  1.0000
  H   H2219     1.0  0.29068  0.05175  0.82610  1.0000
  H   H2220     1.0  0.94850  0.11517  0.61690  1.0000
  H   H2221     1.0  0.30264  0.11667  0.87896  1.0000
  H   H2222     1.0  0.24031  0.03489  0.64542  1.0000
  C   C1258     1.0  0.33471  0.09336  0.79219  1.0000
  H   H2223     1.0  0.97296  0.19815  0.67488  1.0000
  H   H2224     1.0  0.09357  0.17885  0.98957  1.0000
  C   C1259     1.0  0.98860  0.08723  0.58260  1.0000
  H   H2225     1.0  0.98385  0.11154  0.64892  1.0000
  C   C1260     1.0  0.31946  0.97650  0.51764  1.0000
  C   C1261     1.0  0.10593  0.99200  0.65381  1.0000
  H   H2226     1.0  0.10656  0.01820  0.71813  1.0000
  C   C1262     1.0  0.27821  0.06467  0.52293  1.0000
  S   S281      1.0  0.36042  0.10176  0.70214  1.0000
  C   C1263     1.0  0.40178  0.10798  0.64456  1.0000
  Fe  Fe142     1.0  0.12387  0.11251  0.64703  1.0000
  C   C1264     1.0  0.08631  0.20013  0.83884  1.0000
  H   H2227     1.0  0.10544  0.99491  0.77747  1.0000
  C   C1265     1.0  0.23699  0.22440  0.60066  1.0000
  H   H2228     1.0  0.04658  0.16875  0.67280  1.0000
  C   C1266     1.0  0.25605  0.27173  0.55507  1.0000
  H   H2229     1.0  0.12170  0.25920  0.66005  1.0000
  H   H2230     1.0  0.98208  0.22618  0.55042  1.0000
  C   C1267     1.0  0.23736  0.23262  0.56550  1.0000
  H   H2231     1.0  0.21262  0.04937  0.58926  1.0000
  S   S282      1.0  0.19210  0.06694  0.73744  1.0000
  H   H2232     1.0  0.18514  0.11706  0.78750  1.0000
  H   H2233     1.0  0.21624  0.12978  0.54196  1.0000
  S   S283      1.0  0.13365  0.17216  0.66058  1.0000
  H   H2234     1.0  0.96346  0.18316  0.73668  1.0000
  N   N69       1.0  0.93814  0.06599  0.84403  1.0000
  H   H2235     1.0  0.94394  0.11156  0.69126  1.0000
  N   N70       1.0  0.34947  0.14907  0.97874  1.0000
  H   H2236     1.0  0.96767  0.03247  0.86558  1.0000
  H   H2237     1.0  0.29707  0.26351  0.80841  1.0000
  H   H2238     1.0  0.11509  0.01705  0.91462  1.0000
  C   C1268     1.0  0.40365  0.98378  0.90521  1.0000
  H   H2239     1.0  0.17584  0.98103  0.57634  1.0000
  H   H2240     1.0  0.11981  0.98714  0.53894  1.0000
  H   H2241     1.0  0.97317  0.08639  0.91510  1.0000
  H   H2242     1.0  0.38237  0.99510  0.78789  1.0000
  H   H2243     1.0  0.92170  0.97397  0.59333  1.0000
  H   H2244     1.0  0.00696  0.98104  0.54765  1.0000
  H   H2245     1.0  0.40161  0.20469  0.96276  1.0000
  S   S284      1.0  0.21322  0.07063  0.89877  1.0000
  C   C1269     1.0  0.12701  0.96290  0.53476  1.0000
  S   S285      1.0  0.08370  0.07728  0.60004  1.0000
  H   H2246     1.0  0.26361  0.23326  0.77256  1.0000
  C   C1270     1.0  0.06957  0.15069  0.00015  1.0000
  S   S286      1.0  0.13287  0.20380  0.89859  1.0000
  H   H2247     1.0  0.20142  0.23543  0.78812  1.0000
  H   H2248     1.0  0.28803  0.15492  0.88212  1.0000
  H   H2249     1.0  0.04792  0.24874  0.66361  1.0000
  H   H2250     1.0  0.91154  0.03489  0.90861  1.0000
  H   H2251     1.0  0.92029  0.00404  0.83933  1.0000
  N   N71       1.0  0.32738  0.02544  0.80842  1.0000
  H   H2252     1.0  0.08294  0.27671  0.95353  1.0000
  H   H2253     1.0  0.98973  0.04369  0.80725  1.0000
  C   C1271     1.0  0.93495  0.02853  0.85894  1.0000
  C   C1272     1.0  0.97607  0.28788  0.86780  1.0000
  H   H2254     1.0  0.95490  0.00183  0.92222  1.0000
  H   H2255     1.0  0.01039  0.08532  0.56507  1.0000
  C   C1273     1.0  0.99363  0.19680  0.61157  1.0000
  N   N72       1.0  0.10810  0.25791  0.51243  1.0000
  C   C1274     1.0  0.20534  0.01151  0.52945  1.0000
  H   H2256     1.0  0.30623  0.07003  0.95614  1.0000
  H   H2257     1.0  0.08061  0.22339  0.55682  1.0000
  H   H2258     1.0  0.33060  0.14429  0.77329  1.0000
  H   H2259     1.0  0.99561  0.14931  0.70852  1.0000
  H   H2260     1.0  0.07472  0.21633  0.85270  1.0000
  H   H2261     1.0  0.17554  0.29209  0.53024  1.0000
  H   H2262     1.0  0.05945  0.26791  0.53222  1.0000
  H   H2263     1.0  0.02407  0.17287  0.89543  1.0000
  H   H2264     1.0  0.29272  0.99964  0.85305  1.0000
  C   C1275     1.0  0.37422  0.08290  0.66820  1.0000
  C   C1276     1.0  0.27677  0.29425  0.61452  1.0000
  C   C1277     1.0  0.11423  0.08056  0.56605  1.0000
  C   C1278     1.0  0.18224  0.10901  0.54060  1.0000
  H   H2265     1.0  0.39842  0.13932  0.96004  1.0000
  C   C1279     1.0  0.29943  0.99006  0.82872  1.0000
  H   H2266     1.0  0.03819  0.29016  0.99479  1.0000
  H   H2267     1.0  0.33694  0.02300  0.68363  1.0000
  H   H2268     1.0  0.09025  0.14943  0.55204  1.0000
  H   H2269     1.0  0.10049  0.05586  0.76863  1.0000
  H   H2270     1.0  0.05103  0.19897  0.79109  1.0000
  H   H2271     1.0  0.31186  0.08019  0.53475  1.0000
  H   H2272     1.0  0.97292  0.18459  0.86650  1.0000
  H   H2273     1.0  0.08061  0.24317  0.92134  1.0000
  H   H2274     1.0  0.26482  0.09044  0.58407  1.0000
  C   C1280     1.0  0.02702  0.27634  0.76124  1.0000
  C   C1281     1.0  0.38737  0.17998  0.57451  1.0000
  H   H2275     1.0  0.95850  0.00411  0.65168  1.0000
  H   H2276     1.0  0.95108  0.18300  0.80468  1.0000
  C   C1282     1.0  0.39953  0.28459  0.63359  1.0000
  C   C1283     1.0  0.04942  0.27705  0.90434  1.0000
  C   C1284     1.0  0.13001  0.16849  0.83763  1.0000
  H   H2277     1.0  0.01799  0.15015  0.58057  1.0000
  H   H2278     1.0  0.29670  0.04583  0.58558  1.0000
  H   H2279     1.0  0.15877  0.23674  0.55947  1.0000
  C   C1285     1.0  0.30861  0.11341  0.78010  1.0000
  C   C1286     1.0  0.91789  0.18565  0.88327  1.0000
  C   C1287     1.0  0.11590  0.17585  0.56646  1.0000
  S   S287      1.0  0.22919  0.18010  0.91699  1.0000
  C   C1288     1.0  0.95136  0.20870  0.56215  1.0000
  C   C1289     1.0  0.95352  0.17766  0.58546  1.0000
  C   C1290     1.0  0.08942  0.17104  0.78565  1.0000
  H   H2280     1.0  0.18755  0.27736  0.75184  1.0000
  Fe  Fe143     1.0  0.16351  0.17079  0.92450  1.0000
  H   H2281     1.0  0.35176  0.26097  0.53243  1.0000
  H   H2282     1.0  0.92554  0.19408  0.54122  1.0000
  H   H2283     1.0  0.35566  0.21022  0.59104  1.0000
  H   H2284     1.0  0.34808  0.26340  0.59217  1.0000
  C   C1291     1.0  0.04142  0.18976  0.65611  1.0000
  C   C1292     1.0  0.93094  0.18356  0.82354  1.0000
  H   H2285     1.0  0.10373  0.18085  0.58991  1.0000
  C   C1293     1.0  0.30570  0.05034  0.80277  1.0000
  H   H2286     1.0  0.40448  0.18300  0.60024  1.0000
  H   H2287     1.0  0.29250  0.07689  0.64016  1.0000
  Fe  Fe144     1.0  0.23719  0.18228  0.97450  1.0000
  H   H2288     1.0  0.30728  0.16816  0.95269  1.0000
  H   H2289     1.0  0.28926  0.11379  0.80070  1.0000
  H   H2290     1.0  0.14446  0.20620  0.52151  1.0000
  H   H2291     1.0  0.99508  0.22371  0.62232  1.0000
  H   H2292     1.0  0.35384  0.09416  0.77127  1.0000
  H   H2293     1.0  0.33289  0.16316  0.85883  1.0000
  H   H2294     1.0  0.36375  0.97634  0.94581  1.0000
  C   C1294     1.0  0.05716  0.22844  0.67727  1.0000
  H   H2295     1.0  0.22527  0.25802  0.82880  1.0000
  H   H2296     1.0  0.13549  0.27615  0.58472  1.0000
  C   C1295     1.0  0.93592  0.28728  0.68582  1.0000
  H   H2297     1.0  0.95054  0.28907  0.81586  1.0000
  H   H2298     1.0  0.10896  0.28442  0.80380  1.0000
  H   H2299     1.0  0.04791  0.96595  0.77262  1.0000
  H   H2300     1.0  0.33810  0.25350  0.65551  1.0000
  H   H2301     1.0  0.40823  0.18121  0.55453  1.0000
  H   H2302     1.0  0.40377  0.25824  0.63618  1.0000
  S   S288      1.0  0.29983  0.22926  0.99966  1.0000
  H   H2303     1.0  0.91130  0.29402  0.67381  1.0000
  H   H2304     1.0  0.02429  0.29206  0.61233  1.0000
  C   C1296     1.0  0.32307  0.13712  0.00941  1.0000
