data_image0
_chemical_formula_structural       FeS2HSFeSFeS3FeHSH2SH5C6H4CH3C5H2C2H2CH5CH2NH3C2H4C2HC2H3CH4CH3CHCH4NCHCH3SCHC3H2CH2C2HCFe2CH2CH3CH2SH4C3HNHSFeS2FeSFeS2CFeHSCHSH4C7H2C4FeH2C3H2CH2CH4CH3CHSH2CHCHCHNH2CHC2HC2H6CH3CHCHCHCH2SHSH4CHCNH5FeH6CH2CH5CFeHSH2SFeS2FeS2FeSFeS3HC6H4C3H2C6H7C2HCH6CHCHCH3CH2CH4C2H7CNH6CH2CH3CH2C4HNH2C2HSH5CH4CH2CH9CH2C3HCHC2HCH2CH2SH2CH2CH2CH2CHCH2SCH9C2NH2CHC2H5CH2CHCHCH2CFeHSH2SFeS2FeS2FeSFeS4C6H5CH2C7H4CH2CHCH4CHNH2CH2NH2CH2C2SH4C2HNH2CH2C2HCH2CH2CHCHCH2CH3CHCHCHCHCH4CH2CH4CH15C5H7CHCHC3NCH3CH3CH2CH5C2HCH3C2H3SHC2HCHCH4CHNFeCH3CH2FeS2FeS2FeSFeS3FeS2FeS2FeSFeS4FeS3HSH3C3H2C6H4C6H6CH2C2HCHC6H4C6H4C3H2CHC2HCH5CH7C2H2CH5CH3FeHC2HCH2CH9CNC4HC3HC3H7C2H5CH6NH2NC3HCHCH2CH3SH5C2H2N2C12H30CHCH3CH5Fe2H5CH4CSH3CHCHCH8C2H3CH3CSH3CHC2H3CHC2H2CHCHCH2C2HCH3NH3CHCHCHCH3FeHCHCHCH3FeS2FeS2FeSFeS3FeS2FeS2FeSFeS4FeSCSFeSCH2C2HC7H4C6H4CHC2HCHCH2C6H4C6H5CHCHNH2CHSC2H2CH4CH7C3H9NHNC12H28C2H2C2NCH2CH2C3H2CHSHC2H4CH4SH2CHC4HCH6NC4HCH5C3H5C4H3C2H2FeC2H5CSH7CH2NHC2H8CHC2H7SH18C3HC3HC2HCFeCH2NC2H5CHCH6CH9CHCH2C2FeH2S2HCSCFeSCFeS2FeS2FeSFeS3FeS2FeS2FeSFeS4C6H5CH3C6H4C3H2C3HC7H4C8H4C4H8CH2FeCHFeH5NHCH5CH8NCH2CNH4CSH2CH4CFeH6C4H2CH2NC5SHC4H13FeH11CH2CNC5HCH9C2HCH3CH4FeSCHCH6CHCSC4H4C3H2CH5CHC2HC2H6C4H5CH9C2H4CHS2CFeS2FeSCFeS2FeS2FeSFeS3FeS2FeS2FeSFeS4C6H4C4HC6H4CH2CHC3H2C6H4C8H5C2H2FeC2H2C2HCH7CHCHC2H2NH3SHC2HC2HCNC4HC2HCH2CH19C3HCH9CH4CHCH4C2H11C3HCNC5HC4H2CH9CH11C2H4NH2C2HC2H4C2H8FeCH13C3H2SC2NH6CHCHC2H6C2HCH3CHCH2CHCH7FeH5SCSCSH2CFeSCFeS2FeS2FeSFeS3CH3CHCH2C6H9C6H4CHC2H5NCHC2H3CH2CH4NC12H30C4SH2CH3CHSH2NH2CH4C4HC2H5CHCHCHCH2C2H13SHSCH2SH2FeS2FeS2FeSFeS3CH4C2H3C6H6CH2C6H3CH4C2H3CH2NCHC5HSC2H3CH10CHCH8CNC8HC3H16CHCH5CH3NC4HC4H12FeH9CH3C2HCH3CH6C2H2CNCHCHC2H5CHC2H6CH2CSFeSHFeSFeSC2HFeHSH6NC3H3C6H4C2H3CH3CH6CH4C2HC3HCHCSCH4CHC3H2SCH3SCHNHCHC2H5SCH5CH4CH2CH2NHC4H3CSH2CH2FeH3CHFeS2HSFeSFeSHSFeCSHCHSH6C2H3C6SH4C2H3C3H4NC2SHC2H2C3HCH2CH2CH2CHCH2CHFeH4CHNCH3CH6C2H5C2HC3H2CH6CH
_chemical_formula_sum              "Fe96 S192 H1536 C864 N48"
_cell_length_a       60.5841
_cell_length_b       60.5618
_cell_length_c       36.7661
_cell_angle_alpha    89.8474
_cell_angle_beta     89.8914
_cell_angle_gamma    119.691

_space_group_name_H-M_alt    "P 1"
_space_group_IT_number       1

loop_
  _space_group_symop_operation_xyz
  'x, y, z'

loop_
  _atom_site_type_symbol
  _atom_site_label
  _atom_site_symmetry_multiplicity
  _atom_site_fract_x
  _atom_site_fract_y
  _atom_site_fract_z
  _atom_site_occupancy
  Fe  Fe1       1.0  0.11751  0.46532  0.37400  1.0000
  S   S1        1.0  0.10089  0.42525  0.35376  1.0000
  S   S2        1.0  0.12242  0.47981  0.43284  1.0000
  H   H1        1.0  0.20784  0.39264  0.34372  1.0000
  S   S3        1.0  0.10905  0.44775  0.27040  1.0000
  Fe  Fe2       1.0  0.07857  0.43482  0.31347  1.0000
  S   S4        1.0  0.03510  0.41563  0.30806  1.0000
  Fe  Fe3       1.0  0.13303  0.44169  0.31202  1.0000
  S   S5        1.0  0.15694  0.42214  0.30196  1.0000
  S   S6        1.0  0.09351  0.47412  0.33647  1.0000
  S   S7        1.0  0.15060  0.48125  0.33457  1.0000
  Fe  Fe4       1.0  0.29612  0.44971  0.21678  1.0000
  H   H2        1.0  0.29186  0.21836  0.33359  1.0000
  S   S8        1.0  0.26820  0.46394  0.23189  1.0000
  H   H3        1.0  0.22115  0.43137  0.40550  1.0000
  H   H4        1.0  0.30325  0.46792  0.01108  1.0000
  S   S9        1.0  0.29221  0.41216  0.19913  1.0000
  H   H5        1.0  0.17716  0.38777  0.40603  1.0000
  H   H6        1.0  0.21844  0.39054  0.38893  1.0000
  H   H7        1.0  0.18082  0.44849  0.37221  1.0000
  H   H8        1.0  0.23930  0.41564  0.35832  1.0000
  H   H9        1.0  0.21239  0.43506  0.36023  1.0000
  C   C1        1.0  0.18777  0.43405  0.28197  1.0000
  C   C2        1.0  0.19844  0.41802  0.27978  1.0000
  C   C3        1.0  0.22291  0.42667  0.26465  1.0000
  C   C4        1.0  0.23698  0.45147  0.25098  1.0000
  C   C5        1.0  0.22613  0.46736  0.25283  1.0000
  C   C6        1.0  0.20187  0.45885  0.26843  1.0000
  H   H10       1.0  0.18760  0.39868  0.28958  1.0000
  H   H11       1.0  0.23075  0.41407  0.26330  1.0000
  H   H12       1.0  0.29691  0.22767  0.28603  1.0000
  H   H13       1.0  0.19392  0.47137  0.26944  1.0000
  C   C7        1.0  0.12080  0.46548  0.47599  1.0000
  H   H14       1.0  0.28001  0.34081  0.04610  1.0000
  H   H15       1.0  0.31599  0.31569  0.18492  1.0000
  H   H16       1.0  0.00300  0.32749  0.02237  1.0000
  C   C8        1.0  0.14163  0.40708  0.40206  1.0000
  C   C9        1.0  0.21925  0.40381  0.36737  1.0000
  C   C10       1.0  0.01086  0.39549  0.27700  1.0000
  C   C11       1.0  0.01553  0.38408  0.24713  1.0000
  C   C12       1.0  0.17154  0.46253  0.42049  1.0000
  H   H17       1.0  0.04985  0.44935  0.18778  1.0000
  H   H18       1.0  0.03453  0.38734  0.24229  1.0000
  C   C13       1.0  0.17014  0.41496  0.45315  1.0000
  C   C14       1.0  0.19651  0.42943  0.47142  1.0000
  H   H19       1.0  0.27306  0.32333  0.16656  1.0000
  H   H20       1.0  0.15704  0.41986  0.46787  1.0000
  C   C15       1.0  0.06126  0.46997  0.19401  1.0000
  H   H21       1.0  0.28701  0.35085  0.11104  1.0000
  H   H22       1.0  0.23636  0.48632  0.24157  1.0000
  H   H23       1.0  0.16875  0.45903  0.45018  1.0000
  H   H24       1.0  0.08665  0.34730  0.39839  1.0000
  H   H25       1.0  0.32545  0.33154  0.10341  1.0000
  C   C16       1.0  0.28445  0.33546  0.18944  1.0000
  H   H26       1.0  0.05541  0.48032  0.17491  1.0000
  H   H27       1.0  0.26348  0.35605  0.18826  1.0000
  N   N1        1.0  0.03267  0.47554  0.24119  1.0000
  H   H28       1.0  0.13213  0.41581  0.41740  1.0000
  H   H29       1.0  0.09571  0.46821  0.20501  1.0000
  H   H30       1.0  0.02627  0.45702  0.29351  1.0000
  C   C17       1.0  0.31813  0.42750  0.05540  1.0000
  C   C18       1.0  0.31043  0.35763  0.17630  1.0000
  H   H31       1.0  0.20273  0.45626  0.40803  1.0000
  H   H32       1.0  0.09158  0.47404  0.15811  1.0000
  H   H33       1.0  0.00525  0.32619  0.07142  1.0000
  H   H34       1.0  0.04337  0.47545  0.35351  1.0000
  C   C19       1.0  0.30356  0.23398  0.31423  1.0000
  C   C20       1.0  0.12509  0.37793  0.40802  1.0000
  H   H35       1.0  0.14011  0.41109  0.37294  1.0000
  C   C21       1.0  0.02840  0.47497  0.28175  1.0000
  C   C22       1.0  0.99535  0.36776  0.22404  1.0000
  H   H36       1.0  0.27901  0.35788  0.23120  1.0000
  H   H37       1.0  0.07377  0.49200  0.24374  1.0000
  H   H38       1.0  0.20878  0.42183  0.46187  1.0000
  C   C23       1.0  0.05672  0.47451  0.23421  1.0000
  H   H39       1.0  0.17104  0.39884  0.36469  1.0000
  H   H40       1.0  0.20594  0.45014  0.46595  1.0000
  H   H41       1.0  0.15302  0.45778  0.40815  1.0000
  H   H42       1.0  0.09877  0.37155  0.36364  1.0000
  C   C24       1.0  0.28778  0.33115  0.06329  1.0000
  H   H43       1.0  0.30632  0.33936  0.28141  1.0000
  H   H44       1.0  0.08890  0.37762  0.40727  1.0000
  H   H45       1.0  0.01035  0.47478  0.28796  1.0000
  C   C25       1.0  0.20937  0.42095  0.38188  1.0000
  H   H46       1.0  0.28736  0.32348  0.20962  1.0000
  C   C26       1.0  0.08916  0.47838  0.18668  1.0000
  H   H47       1.0  0.13323  0.36742  0.39387  1.0000
  H   H48       1.0  0.05670  0.45895  0.25062  1.0000
  H   H49       1.0  0.12337  0.37319  0.43744  1.0000
  H   H50       1.0  0.31637  0.36630  0.08573  1.0000
  N   N2        1.0  0.16923  0.41882  0.41270  1.0000
  C   C27       1.0  0.18065  0.40539  0.39157  1.0000
  H   H51       1.0  0.11012  0.42829  0.45580  1.0000
  C   C28       1.0  0.30896  0.45374  0.01468  1.0000
  H   H52       1.0  0.99908  0.35855  0.20160  1.0000
  H   H53       1.0  0.27181  0.31247  0.07214  1.0000
  H   H54       1.0  0.16274  0.39450  0.45943  1.0000
  S   S10       1.0  0.32213  0.47068  0.16931  1.0000
  C   C29       1.0  0.04360  0.49314  0.34465  1.0000
  H   H55       1.0  0.25064  0.32914  0.21864  1.0000
  C   C30       1.0  0.30119  0.34773  0.09619  1.0000
  C   C31       1.0  0.09823  0.36809  0.39342  1.0000
  C   C32       1.0  0.31252  0.33507  0.12095  1.0000
  H   H56       1.0  0.22566  0.39189  0.00255  1.0000
  H   H57       1.0  0.32470  0.31128  0.28875  1.0000
  C   C33       1.0  0.26852  0.34536  0.20801  1.0000
  H   H58       1.0  0.01238  0.45159  0.19539  1.0000
  H   H59       1.0  0.30091  0.25047  0.32044  1.0000
  C   C34       1.0  0.18210  0.44660  0.40224  1.0000
  C   C35       1.0  0.11481  0.44009  0.47966  1.0000
  H   H60       1.0  0.01152  0.43455  0.23508  1.0000
  C   C36       1.0  0.01077  0.45165  0.22554  1.0000
  Fe  Fe5       1.0  0.32062  0.43402  0.15464  1.0000
  Fe  Fe6       1.0  0.12486  0.48647  0.29575  1.0000
  C   C37       1.0  0.00739  0.33867  0.04788  1.0000
  H   H61       1.0  0.32076  0.36787  0.20113  1.0000
  H   H62       1.0  0.02487  0.49385  0.19592  1.0000
  C   C38       1.0  0.24409  0.40977  0.99952  1.0000
  H   H63       1.0  0.29703  0.31579  0.12876  1.0000
  H   H64       1.0  0.24969  0.41916  0.02650  1.0000
  H   H65       1.0  0.30928  0.47596  0.32899  1.0000
  C   C39       1.0  0.31138  0.44628  0.05020  1.0000
  H   H66       1.0  0.30707  0.37172  0.16132  1.0000
  H   H67       1.0  0.30756  0.45473  0.07354  1.0000
  S   S11       1.0  0.31976  0.41609  0.09952  1.0000
  H   H68       1.0  0.99595  0.36182  0.07710  1.0000
  H   H69       1.0  0.02506  0.49168  0.35147  1.0000
  H   H70       1.0  0.02749  0.35421  0.04662  1.0000
  H   H71       1.0  0.30135  0.32813  0.04656  1.0000
  C   C40       1.0  0.18954  0.49100  0.41504  1.0000
  C   C41       1.0  0.32286  0.41665  0.02459  1.0000
  C   C42       1.0  0.32662  0.34720  0.27844  1.0000
  H   H72       1.0  0.32457  0.20370  0.32914  1.0000
  N   N3        1.0  0.32657  0.35005  0.15407  1.0000
  H   H73       1.0  0.25918  0.47594  0.94428  1.0000
  S   S12       1.0  0.12161  0.46729  0.74677  1.0000
  Fe  Fe7       1.0  0.12256  0.44817  0.64576  1.0000
  S   S13       1.0  0.12092  0.42396  0.69382  1.0000
  S   S14       1.0  0.11994  0.43118  0.58902  1.0000
  Fe  Fe8       1.0  0.09161  0.43286  0.71720  1.0000
  S   S15       1.0  0.05520  0.40048  0.74315  1.0000
  Fe  Fe9       1.0  0.15114  0.46011  0.71951  1.0000
  S   S16       1.0  0.18629  0.46806  0.75416  1.0000
  S   S17       1.0  0.09175  0.45487  0.66798  1.0000
  C   C43       1.0  0.00667  0.36659  0.64810  1.0000
  Fe  Fe10      1.0  0.30590  0.44507  0.80267  1.0000
  H   H74       1.0  0.02799  0.42637  0.71655  1.0000
  S   S18       1.0  0.27366  0.43709  0.76237  1.0000
  C   C44       1.0  0.22014  0.41263  0.87161  1.0000
  H   H75       1.0  0.25591  0.42486  0.84126  1.0000
  S   S19       1.0  0.30445  0.41622  0.84328  1.0000
  H   H76       1.0  0.21954  0.39694  0.80044  1.0000
  H   H77       1.0  0.16145  0.43150  0.92145  1.0000
  H   H78       1.0  0.01399  0.37017  0.67660  1.0000
  H   H79       1.0  0.04985  0.41637  0.56153  1.0000
  C   C45       1.0  0.32086  0.42443  0.98905  1.0000
  C   C46       1.0  0.21007  0.45868  0.75614  1.0000
  C   C47       1.0  0.21050  0.44089  0.73234  1.0000
  C   C48       1.0  0.22993  0.43442  0.73490  1.0000
  C   C49       1.0  0.24916  0.44547  0.76135  1.0000
  C   C50       1.0  0.24879  0.46330  0.78510  1.0000
  C   C51       1.0  0.22938  0.46977  0.78257  1.0000
  H   H80       1.0  0.19588  0.43215  0.71188  1.0000
  H   H81       1.0  0.22999  0.42069  0.71620  1.0000
  C   C52       1.0  0.05477  0.45098  0.58425  1.0000
  C   C53       1.0  0.20908  0.43524  0.91622  1.0000
  C   C54       1.0  0.12537  0.47002  0.54239  1.0000
  C   C55       1.0  0.11995  0.44482  0.54597  1.0000
  Fe  Fe11      1.0  0.12349  0.48878  0.69590  1.0000
  H   H82       1.0  0.17281  0.43172  0.96710  1.0000
  H   H83       1.0  0.05851  0.46096  0.61074  1.0000
  C   C56       1.0  0.25330  0.45398  0.89332  1.0000
  C   C57       1.0  0.31365  0.44288  0.98387  1.0000
  C   C58       1.0  0.02357  0.39499  0.74926  1.0000
  H   H84       1.0  0.32017  0.47820  0.66067  1.0000
  H   H85       1.0  0.20379  0.39376  0.87895  1.0000
  C   C59       1.0  0.07493  0.36235  0.66656  1.0000
  H   H86       1.0  0.01880  0.36828  0.50965  1.0000
  H   H87       1.0  0.12948  0.48174  0.56635  1.0000
  C   C60       1.0  0.05345  0.42526  0.58879  1.0000
  H   H88       1.0  0.07410  0.34386  0.67156  1.0000
  H   H89       1.0  0.24382  0.47815  0.67921  1.0000
  H   H90       1.0  0.22007  0.39581  0.93631  1.0000
  H   H91       1.0  0.20528  0.44539  0.89384  1.0000
  C   C61       1.0  0.05094  0.35796  0.64688  1.0000
  H   H92       1.0  0.21524  0.44850  0.93958  1.0000
  H   H93       1.0  0.00252  0.38465  0.55853  1.0000
  H   H94       1.0  0.22687  0.43148  0.98246  1.0000
  C   C62       1.0  0.05209  0.38356  0.63739  1.0000
  H   H95       1.0  0.07237  0.42909  0.59797  1.0000
  S   S20       1.0  0.32102  0.47651  0.84345  1.0000
  H   H96       1.0  0.18585  0.40034  0.94842  1.0000
  H   H97       1.0  0.22939  0.48365  0.80103  1.0000
  C   C63       1.0  0.03253  0.40812  0.61657  1.0000
  H   H98       1.0  0.25890  0.40517  0.99067  1.0000
  C   C64       1.0  0.02322  0.36759  0.58563  1.0000
  H   H99       1.0  0.26370  0.47243  0.80499  1.0000
  C   C65       1.0  0.12592  0.48028  0.50762  1.0000
  H   H100      1.0  0.03674  0.44850  0.57277  1.0000
  N   N4        1.0  0.22972  0.42965  0.90462  1.0000
  H   H101      1.0  0.03461  0.34590  0.66489  1.0000
  H   H102      1.0  0.09209  0.37450  0.64987  1.0000
  C   C66       1.0  0.00623  0.37397  0.77027  1.0000
  H   H103      1.0  0.03514  0.47127  0.71268  1.0000
  C   C67       1.0  0.24182  0.42762  0.97218  1.0000
  C   C68       1.0  0.23580  0.41580  0.93369  1.0000
  H   H104      1.0  0.01502  0.40803  0.60770  1.0000
  C   C69       1.0  0.16499  0.42018  0.94210  1.0000
  C   C70       1.0  0.25973  0.47859  0.91452  1.0000
  H   H105      1.0  0.25163  0.45868  0.86455  1.0000
  H   H106      1.0  0.18235  0.43383  0.52405  1.0000
  H   H107      1.0  0.24728  0.39816  0.87103  1.0000
  H   H108      1.0  0.25267  0.41420  0.92566  1.0000
  H   H109      1.0  0.04083  0.37613  0.56868  1.0000
  H   H110      1.0  0.29584  0.49480  0.66796  1.0000
  C   C71       1.0  0.01501  0.41028  0.73296  1.0000
  H   H111      1.0  0.99857  0.34578  0.64394  1.0000
  H   H112      1.0  0.03733  0.41803  0.64334  1.0000
  H   H113      1.0  0.32431  0.41572  0.96570  1.0000
  C   C72       1.0  0.23971  0.40713  0.85223  1.0000
  H   H114      1.0  0.07644  0.37152  0.69328  1.0000
  C   C73       1.0  0.05031  0.48704  0.69656  1.0000
  H   H115      1.0  0.17398  0.39967  0.90320  1.0000
  C   C74       1.0  0.00115  0.36587  0.56243  1.0000
  H   H116      1.0  0.06847  0.39363  0.61846  1.0000
  C   C75       1.0  0.22745  0.38891  0.82040  1.0000
  H   H117      1.0  0.04942  0.34719  0.62176  1.0000
  H   H118      1.0  0.24199  0.38593  0.80629  1.0000
  S   S21       1.0  0.30796  0.45142  0.93986  1.0000
  H   H119      1.0  0.21203  0.37021  0.83018  1.0000
  S   S22       1.0  0.15458  0.48386  0.66995  1.0000
  H   H120      1.0  0.21293  0.42097  0.85082  1.0000
  H   H121      1.0  0.07052  0.46306  0.56526  1.0000
  H   H122      1.0  0.01865  0.34761  0.59023  1.0000
  H   H123      1.0  0.01254  0.36193  0.78293  1.0000
  C   C76       1.0  0.18330  0.41189  0.92713  1.0000
  H   H124      1.0  0.05742  0.39528  0.66260  1.0000
  C   C77       1.0  0.11463  0.42993  0.51437  1.0000
  N   N5        1.0  0.02814  0.38145  0.62134  1.0000
  H   H125      1.0  0.27024  0.45138  0.89386  1.0000
  H   H126      1.0  0.11019  0.41035  0.51681  1.0000
  H   H127      1.0  0.26034  0.44543  0.97203  1.0000
  H   H128      1.0  0.31414  0.25507  0.76023  1.0000
  H   H129      1.0  0.14655  0.40315  0.94910  1.0000
  Fe  Fe12      1.0  0.32225  0.44867  0.88319  1.0000
  H   H130      1.0  0.24583  0.48485  0.90751  1.0000
  H   H131      1.0  0.30595  0.31431  0.79098  1.0000
  H   H132      1.0  0.00085  0.43394  0.85509  1.0000
  H   H133      1.0  0.28350  0.47875  0.70921  1.0000
  H   H134      1.0  0.21319  0.43622  0.52533  1.0000
  H   H135      1.0  0.31951  0.47775  0.73163  1.0000
  C   C78       1.0  0.00102  0.35535  0.52462  1.0000
  H   H136      1.0  0.99917  0.33618  0.52668  1.0000
  H   H137      1.0  0.06802  0.48600  0.69946  1.0000
  C   C79       1.0  0.19407  0.42597  0.51274  1.0000
  H   H138      1.0  0.18518  0.40552  0.52017  1.0000
  H   H139      1.0  0.04496  0.48463  0.66737  1.0000
  H   H140      1.0  0.30605  0.20998  0.78479  1.0000
  H   H141      1.0  0.32290  0.29753  0.74254  1.0000
  H   H142      1.0  0.99391  0.42860  0.80731  1.0000
  C   C80       1.0  0.32624  0.32626  0.79854  1.0000
  Fe  Fe13      1.0  0.28881  0.83467  0.31580  1.0000
  H   H143      1.0  0.24443  0.73172  0.26812  1.0000
  S   S23       1.0  0.24735  0.80096  0.31820  1.0000
  H   H144      1.0  0.23712  0.87289  0.42415  1.0000
  H   H145      1.0  0.15385  0.68538  0.07841  1.0000
  S   S24       1.0  0.29946  0.86829  0.35304  1.0000
  Fe  Fe14      1.0  0.06719  0.64769  0.20255  1.0000
  S   S25       1.0  0.06915  0.61334  0.18432  1.0000
  S   S26       1.0  0.02778  0.64414  0.20726  1.0000
  Fe  Fe15      1.0  0.12648  0.68159  0.20573  1.0000
  S   S27       1.0  0.13080  0.64838  0.18817  1.0000
  S   S28       1.0  0.16580  0.71823  0.20778  1.0000
  Fe  Fe16      1.0  0.10050  0.64037  0.14651  1.0000
  S   S29       1.0  0.10681  0.63010  0.08879  1.0000
  Fe  Fe17      1.0  0.09931  0.62505  0.22712  1.0000
  S   S30       1.0  0.09935  0.59975  0.27270  1.0000
  S   S31       1.0  0.09712  0.67430  0.16217  1.0000
  S   S32       1.0  0.09608  0.65843  0.24722  1.0000
  H   H146      1.0  0.00748  0.55035  0.20646  1.0000
  C   C81       1.0  0.11083  0.57824  0.26802  1.0000
  C   C82       1.0  0.12257  0.57686  0.23602  1.0000
  C   C83       1.0  0.13100  0.55905  0.23317  1.0000
  C   C84       1.0  0.12761  0.54246  0.26213  1.0000
  C   C85       1.0  0.11622  0.54415  0.29429  1.0000
  C   C86       1.0  0.10791  0.56202  0.29722  1.0000
  H   H147      1.0  0.12489  0.58927  0.21337  1.0000
  H   H148      1.0  0.13991  0.55789  0.20825  1.0000
  H   H149      1.0  0.11389  0.53173  0.31695  1.0000
  H   H150      1.0  0.09896  0.56309  0.32214  1.0000
  C   C87       1.0  0.10571  0.64229  0.04492  1.0000
  C   C88       1.0  0.26832  0.80963  0.42860  1.0000
  C   C89       1.0  0.09900  0.66115  0.03991  1.0000
  H   H151      1.0  0.19997  0.69928  0.27941  1.0000
  H   H152      1.0  0.09393  0.66857  0.06322  1.0000
  C   C90       1.0  0.22532  0.77762  0.28712  1.0000
  C   C91       1.0  0.20058  0.76020  0.29941  1.0000
  C   C92       1.0  0.18226  0.74174  0.27591  1.0000
  C   C93       1.0  0.18839  0.74026  0.23959  1.0000
  C   C94       1.0  0.21324  0.75738  0.22745  1.0000
  C   C95       1.0  0.23155  0.77591  0.25090  1.0000
  H   H153      1.0  0.19539  0.76135  0.32718  1.0000
  H   H154      1.0  0.16319  0.72915  0.28566  1.0000
  H   H155      1.0  0.21840  0.75641  0.19959  1.0000
  H   H156      1.0  0.25042  0.78899  0.24089  1.0000
  H   H157      1.0  0.24993  0.83525  0.38660  1.0000
  H   H158      1.0  0.23845  0.68899  0.32002  1.0000
  H   H159      1.0  0.17271  0.61894  0.20073  1.0000
  C   C96       1.0  0.28211  0.52489  0.28336  1.0000
  C   C97       1.0  0.31011  0.54650  0.28680  1.0000
  H   H160      1.0  0.15976  0.63432  0.25336  1.0000
  C   C98       1.0  0.05597  0.54552  0.20830  1.0000
  H   H161      1.0  0.02426  0.61238  0.26996  1.0000
  H   H162      1.0  0.01430  0.59024  0.36108  1.0000
  H   H163      1.0  0.26540  0.54874  0.29566  1.0000
  H   H164      1.0  0.18832  0.72303  0.13660  1.0000
  H   H165      1.0  0.19157  0.68023  0.08647  1.0000
  H   H166      1.0  0.16422  0.65570  0.34558  1.0000
  C   C99       1.0  0.16398  0.69102  0.10464  1.0000
  H   H167      1.0  0.09318  0.70854  0.09381  1.0000
  C   C100      1.0  0.24904  0.72437  0.29303  1.0000
  H   H168      1.0  0.18126  0.77617  0.10937  1.0000
  C   C101      1.0  0.14448  0.72585  0.10685  1.0000
  H   H169      1.0  0.16428  0.65549  0.10977  1.0000
  H   H170      1.0  0.18876  0.68139  0.13544  1.0000
  H   H171      1.0  0.09424  0.73862  0.09904  1.0000
  C   C102      1.0  0.26422  0.53079  0.30534  1.0000
  H   H172      1.0  0.25541  0.76986  0.44495  1.0000
  H   H173      1.0  0.16451  0.69308  0.31466  1.0000
  C   C103      1.0  0.17731  0.65322  0.25561  1.0000
  H   H174      1.0  0.22296  0.78083  0.08841  1.0000
  H   H175      1.0  0.21224  0.64705  0.30071  1.0000
  H   H176      1.0  0.04898  0.51529  0.29670  1.0000
  H   H177      1.0  0.24892  0.80851  0.13872  1.0000
  C   C104      1.0  0.15047  0.67323  0.30746  1.0000
  C   C105      1.0  0.18669  0.63919  0.19499  1.0000
  H   H178      1.0  0.14025  0.76000  0.11088  1.0000
  H   H179      1.0  0.14577  0.67273  0.27827  1.0000
  H   H180      1.0  0.17198  0.66670  0.24323  1.0000
  H   H181      1.0  0.11711  0.61810  0.01750  1.0000
  H   H182      1.0  0.17367  0.57829  0.32260  1.0000
  H   H183      1.0  0.10123  0.72456  0.13735  1.0000
  H   H184      1.0  0.19128  0.60342  0.35469  1.0000
  C   C106      1.0  0.17814  0.67621  0.10941  1.0000
  N   N6        1.0  0.18445  0.65976  0.29504  1.0000
  H   H185      1.0  0.13236  0.74490  0.06686  1.0000
  H   H186      1.0  0.31124  0.56408  0.27527  1.0000
  H   H187      1.0  0.04702  0.55072  0.23060  1.0000
  H   H188      1.0  0.11948  0.67944  0.32352  1.0000
  H   H189      1.0  0.24617  0.73369  0.31718  1.0000
  H   H190      1.0  0.17308  0.76007  0.05035  1.0000
  C   C107      1.0  0.24141  0.84029  0.40950  1.0000
  H   H191      1.0  0.15737  0.60805  0.32353  1.0000
  H   H192      1.0  0.17119  0.60818  0.28006  1.0000
  C   C108      1.0  0.16081  0.65488  0.31569  1.0000
  H   H193      1.0  0.20203  0.63987  0.17760  1.0000
  H   H194      1.0  0.22106  0.77577  0.47288  1.0000
  H   H195      1.0  0.22256  0.81342  0.12860  1.0000
  C   C109      1.0  0.17550  0.61400  0.30892  1.0000
  H   H196      1.0  0.21189  0.67353  0.22285  1.0000
  H   H197      1.0  0.32438  0.89622  0.20719  1.0000
  C   C110      1.0  0.21597  0.77531  0.11669  1.0000
  C   C111      1.0  0.16201  0.72238  0.02980  1.0000
  C   C112      1.0  0.28588  0.78155  0.40612  1.0000
  C   C113      1.0  0.20394  0.68764  0.29914  1.0000
  H   H198      1.0  0.27959  0.50651  0.29347  1.0000
  N   N7        1.0  0.17225  0.73757  0.09677  1.0000
  H   H199      1.0  0.26744  0.88111  0.40371  1.0000
  H   H200      1.0  0.04428  0.54110  0.18330  1.0000
  C   C114      1.0  0.11195  0.63272  0.01407  1.0000
  C   C115      1.0  0.19801  0.65358  0.23031  1.0000
  H   H201      1.0  0.09360  0.68495  0.00109  1.0000
  S   S33       1.0  0.13799  0.52007  0.25721  1.0000
  H   H202      1.0  0.26897  0.53243  0.33473  1.0000
  H   H203      1.0  0.22159  0.79524  0.16830  1.0000
  H   H204      1.0  0.18098  0.75805  0.14777  1.0000
  H   H205      1.0  0.27196  0.85372  0.44894  1.0000
  H   H206      1.0  0.13061  0.66709  0.35934  1.0000
  C   C116      1.0  0.10331  0.72735  0.10740  1.0000
  H   H207      1.0  0.26939  0.72966  0.29172  1.0000
  H   H208      1.0  0.31747  0.51947  0.15838  1.0000
  H   H209      1.0  0.23631  0.68713  0.27141  1.0000
  H   H210      1.0  0.02206  0.58546  0.40689  1.0000
  C   C117      1.0  0.12650  0.66604  0.32977  1.0000
  H   H211      1.0  0.20237  0.69451  0.32664  1.0000
  H   H212      1.0  0.14944  0.68486  0.12652  1.0000
  C   C118      1.0  0.13139  0.74148  0.09663  1.0000
  H   H213      1.0  0.17728  0.64796  0.17969  1.0000
  H   H214      1.0  0.13292  0.70693  0.09420  1.0000
  H   H215      1.0  0.14214  0.72218  0.13674  1.0000
  H   H216      1.0  0.20823  0.64466  0.24290  1.0000
  H   H217      1.0  0.31384  0.55028  0.31625  1.0000
  H   H218      1.0  0.14490  0.63539  0.31026  1.0000
  H   H219      1.0  0.22314  0.76291  0.12743  1.0000
  H   H220      1.0  0.19730  0.75197  0.05002  1.0000
  H   H221      1.0  0.31114  0.50089  0.27545  1.0000
  C   C119      1.0  0.18723  0.59899  0.32534  1.0000
  H   H222      1.0  0.07019  0.52806  0.24514  1.0000
  H   H223      1.0  0.19762  0.64776  0.34162  1.0000
  C   C120      1.0  0.23239  0.69544  0.29557  1.0000
  C   C121      1.0  0.00548  0.60951  0.26445  1.0000
  C   C122      1.0  0.17692  0.74432  0.05689  1.0000
  H   H224      1.0  0.20504  0.60337  0.31081  1.0000
  C   C123      1.0  0.22789  0.79958  0.13948  1.0000
  H   H225      1.0  0.19988  0.72484  0.09170  1.0000
  C   C124      1.0  0.25199  0.83790  0.44667  1.0000
  C   C125      1.0  0.05915  0.52296  0.21969  1.0000
  H   H226      1.0  0.18052  0.50177  0.42581  1.0000
  C   C126      1.0  0.18237  0.72008  0.10752  1.0000
  H   H227      1.0  0.27583  0.52263  0.25465  1.0000
  H   H228      1.0  0.20759  0.49713  0.42989  1.0000
  C   C127      1.0  0.19373  0.64314  0.31217  1.0000
  H   H229      1.0  0.07485  0.56226  0.20244  1.0000
  H   H230      1.0  0.17896  0.74934  0.39093  1.0000
  S   S34       1.0  0.32014  0.82823  0.33640  1.0000
  H   H231      1.0  0.23939  0.86878  0.37595  1.0000
  H   H232      1.0  0.11129  0.64647  0.32300  1.0000
  C   C128      1.0  0.18648  0.76184  0.11844  1.0000
  H   H233      1.0  0.28720  0.82726  0.42770  1.0000
  H   H234      1.0  0.22048  0.82778  0.40896  1.0000
  C   C129      1.0  0.01771  0.59773  0.38927  1.0000
  H   H235      1.0  0.99666  0.56056  0.16728  1.0000
  H   H236      1.0  0.27453  0.77769  0.38083  1.0000
  C   C130      1.0  0.22381  0.79109  0.45345  1.0000
  H   H237      1.0  0.26140  0.80732  0.40020  1.0000
  H   H238      1.0  0.28765  0.76461  0.41275  1.0000
  C   C131      1.0  0.24669  0.86745  0.40309  1.0000
  H   H239      1.0  0.03451  0.61715  0.38890  1.0000
  C   C132      1.0  0.18533  0.75925  0.41744  1.0000
  H   H240      1.0  0.22328  0.76642  0.40895  1.0000
  H   H241      1.0  0.21777  0.79115  0.39359  1.0000
  S   S35       1.0  0.31341  0.86029  0.27069  1.0000
  C   C133      1.0  0.21396  0.77763  0.41618  1.0000
  H   H242      1.0  0.28639  0.79260  0.46130  1.0000
  H   H243      1.0  0.07077  0.52047  0.19848  1.0000
  H   H244      1.0  0.21053  0.79759  0.46309  1.0000
  H   H245      1.0  0.30545  0.52037  0.22385  1.0000
  H   H246      1.0  0.14148  0.71195  0.03614  1.0000
  H   H247      1.0  0.31670  0.88596  0.45637  1.0000
  H   H248      1.0  0.18055  0.74474  0.43911  1.0000
  H   H249      1.0  0.30527  0.79786  0.40158  1.0000
  H   H250      1.0  0.31977  0.52099  0.34054  1.0000
  C   C134      1.0  0.27327  0.78740  0.43775  1.0000
  C   C135      1.0  0.99459  0.59880  0.40379  1.0000
  N   N8        1.0  0.25087  0.81289  0.45471  1.0000
  H   H251      1.0  0.99892  0.60644  0.43185  1.0000
  H   H252      1.0  0.16956  0.70902  0.03021  1.0000
  C   C136      1.0  0.04893  0.49745  0.30384  1.0000
  H   H253      1.0  0.24433  0.51515  0.30195  1.0000
  C   C137      1.0  0.09874  0.67033  0.00457  1.0000
  C   C138      1.0  0.00200  0.62243  0.23537  1.0000
  H   H254      1.0  0.32087  0.88536  0.16088  1.0000
  H   H255      1.0  0.05881  0.50935  0.35985  1.0000
  H   H256      1.0  0.00861  0.58058  0.20652  1.0000
  H   H257      1.0  0.17492  0.76975  0.42252  1.0000
  H   H258      1.0  0.02022  0.50345  0.23926  1.0000
  C   C139      1.0  0.99744  0.56054  0.19746  1.0000
  H   H259      1.0  0.19378  0.49564  0.38572  1.0000
  H   H260      1.0  0.24090  0.84192  0.46704  1.0000
  C   C140      1.0  0.32131  0.87824  0.47984  1.0000
  H   H261      1.0  0.06803  0.49990  0.29907  1.0000
  C   C141      1.0  0.26120  0.81444  0.49265  1.0000
  H   H262      1.0  0.28198  0.82820  0.49333  1.0000
  C   C142      1.0  0.03295  0.49840  0.22388  1.0000
  H   H263      1.0  0.10124  0.49918  0.19097  1.0000
  H   H264      1.0  0.32144  0.55401  0.21784  1.0000
  C   C143      1.0  0.32381  0.53809  0.22867  1.0000
  Fe  Fe18      1.0  0.29984  0.84337  0.72011  1.0000
  H   H265      1.0  0.15989  0.62562  0.80462  1.0000
  S   S36       1.0  0.26598  0.81733  0.75766  1.0000
  H   H266      1.0  0.08435  0.60407  0.66066  1.0000
  H   H267      1.0  0.24745  0.71314  0.74713  1.0000
  S   S37       1.0  0.30630  0.88085  0.69682  1.0000
  Fe  Fe19      1.0  0.08418  0.64507  0.79918  1.0000
  S   S38       1.0  0.07970  0.62258  0.84993  1.0000
  S   S39       1.0  0.05266  0.63979  0.75979  1.0000
  Fe  Fe20      1.0  0.14348  0.67517  0.80462  1.0000
  S   S40       1.0  0.14272  0.65404  0.85593  1.0000
  S   S41       1.0  0.17961  0.69947  0.77006  1.0000
  Fe  Fe21      1.0  0.11240  0.61894  0.82806  1.0000
  S   S42       1.0  0.10953  0.58024  0.83133  1.0000
  Fe  Fe22      1.0  0.11005  0.65933  0.87418  1.0000
  S   S43       1.0  0.10512  0.67358  0.92985  1.0000
  S   S44       1.0  0.11519  0.63921  0.77600  1.0000
  S   S45       1.0  0.11244  0.68262  0.82426  1.0000
  S   S46       1.0  0.12415  0.52665  0.69231  1.0000
  C   C144      1.0  0.11331  0.56538  0.79248  1.0000
  C   C145      1.0  0.11410  0.54273  0.79650  1.0000
  C   C146      1.0  0.11738  0.53060  0.76605  1.0000
  C   C147      1.0  0.11985  0.54105  0.73133  1.0000
  C   C148      1.0  0.11874  0.56355  0.72730  1.0000
  C   C149      1.0  0.11550  0.57567  0.75775  1.0000
  H   H268      1.0  0.11235  0.53461  0.82332  1.0000
  H   H269      1.0  0.11812  0.51325  0.76952  1.0000
  H   H270      1.0  0.12026  0.57153  0.70045  1.0000
  H   H271      1.0  0.11457  0.59288  0.75436  1.0000
  H   H272      1.0  0.07049  0.52768  0.69380  1.0000
  C   C150      1.0  0.10509  0.66079  0.97374  1.0000
  H   H273      1.0  0.07873  0.62607  0.68669  1.0000
  H   H274      1.0  0.11653  0.63425  0.95546  1.0000
  C   C151      1.0  0.00489  0.61365  0.72957  1.0000
  C   C152      1.0  0.24150  0.78461  0.75943  1.0000
  C   C153      1.0  0.23940  0.76667  0.73367  1.0000
  C   C154      1.0  0.22011  0.74093  0.73706  1.0000
  C   C155      1.0  0.20249  0.73263  0.76607  1.0000
  C   C156      1.0  0.20449  0.75059  0.79170  1.0000
  C   C157      1.0  0.22388  0.77630  0.78842  1.0000
  H   H275      1.0  0.25263  0.77265  0.71111  1.0000
  H   H276      1.0  0.21878  0.72735  0.71693  1.0000
  H   H277      1.0  0.19129  0.74466  0.81428  1.0000
  H   H278      1.0  0.22520  0.78990  0.80854  1.0000
  C   C158      1.0  0.15311  0.65343  0.68354  1.0000
  H   H279      1.0  0.16763  0.64711  0.75201  1.0000
  H   H280      1.0  0.01695  0.56092  0.77867  1.0000
  C   C159      1.0  0.01993  0.61620  0.76013  1.0000
  H   H281      1.0  0.04917  0.59228  0.72693  1.0000
  C   C160      1.0  0.31683  0.51775  0.75361  1.0000
  H   H282      1.0  0.01362  0.62549  0.70589  1.0000
  H   H283      1.0  0.01965  0.60254  0.81420  1.0000
  H   H284      1.0  0.03214  0.56986  0.84134  1.0000
  H   H285      1.0  0.06514  0.69188  0.85703  1.0000
  C   C161      1.0  0.25521  0.81586  0.56098  1.0000
  H   H286      1.0  0.15444  0.71599  0.97204  1.0000
  N   N9        1.0  0.19528  0.63504  0.74265  1.0000
  H   H287      1.0  0.17551  0.58196  0.72143  1.0000
  H   H288      1.0  0.19241  0.64741  0.81585  1.0000
  C   C162      1.0  0.18676  0.61764  0.77549  1.0000
  H   H289      1.0  0.27607  0.77704  0.80734  1.0000
  H   H290      1.0  0.05154  0.62932  0.93408  1.0000
  N   N10       1.0  0.03211  0.53890  0.72259  1.0000
  H   H291      1.0  0.04488  0.70289  0.78624  1.0000
  H   H292      1.0  0.99793  0.67721  0.88276  1.0000
  C   C163      1.0  0.07960  0.60818  0.68809  1.0000
  H   H293      1.0  0.05461  0.67172  0.81894  1.0000
  H   H294      1.0  0.01536  0.49781  0.72214  1.0000
  C   C164      1.0  0.17644  0.61138  0.84301  1.0000
  C   C165      1.0  0.23790  0.67609  0.72495  1.0000
  S   S47       1.0  0.31387  0.83294  0.66972  1.0000
  H   H295      1.0  0.22949  0.67876  0.69980  1.0000
  H   H296      1.0  0.22812  0.65784  0.77683  1.0000
  H   H297      1.0  0.20202  0.61345  0.78377  1.0000
  H   H298      1.0  0.13867  0.63365  0.67643  1.0000
  C   C166      1.0  0.05492  0.51275  0.71043  1.0000
  C   C167      1.0  0.28843  0.77336  0.82592  1.0000
  H   H299      1.0  0.20020  0.59990  0.64623  1.0000
  N   N11       1.0  0.02403  0.67094  0.85000  1.0000
  H   H300      1.0  0.25628  0.84300  0.52262  1.0000
  H   H301      1.0  0.26178  0.50318  0.64650  1.0000
  C   C168      1.0  0.25053  0.72875  0.83035  1.0000
  H   H302      1.0  0.22785  0.81224  0.52084  1.0000
  H   H303      1.0  0.05120  0.66760  0.91241  1.0000
  C   C169      1.0  0.04281  0.65068  0.89475  1.0000
  C   C170      1.0  0.00834  0.60091  0.79059  1.0000
  H   H304      1.0  0.05504  0.71008  0.89937  1.0000
  C   C171      1.0  0.02932  0.72113  0.92154  1.0000
  H   H305      1.0  0.05446  0.54095  0.76985  1.0000
  H   H306      1.0  0.00559  0.67766  0.80404  1.0000
  C   C172      1.0  0.03482  0.62727  0.91880  1.0000
  H   H307      1.0  0.31701  0.53918  0.64837  1.0000
  H   H308      1.0  0.02477  0.51243  0.67849  1.0000
  C   C173      1.0  0.17773  0.65459  0.69591  1.0000
  H   H309      1.0  0.29834  0.81841  0.86153  1.0000
  C   C174      1.0  0.17875  0.62730  0.80939  1.0000
  H   H310      1.0  0.16865  0.61724  0.86610  1.0000
  C   C175      1.0  0.32138  0.87316  0.54629  1.0000
  H   H311      1.0  0.32412  0.76661  0.78154  1.0000
  H   H312      1.0  0.05093  0.55463  0.83478  1.0000
  C   C176      1.0  0.03338  0.55469  0.82614  1.0000
  H   H313      1.0  0.24811  0.82365  0.58249  1.0000
  H   H314      1.0  0.24451  0.70820  0.83130  1.0000
  H   H315      1.0  0.28797  0.73969  0.84932  1.0000
  C   C177      1.0  0.25512  0.49906  0.67516  1.0000
  H   H316      1.0  0.24250  0.50716  0.68049  1.0000
  C   C178      1.0  0.17324  0.63811  0.73028  1.0000
  H   H317      1.0  0.00332  0.64149  0.89022  1.0000
  C   C179      1.0  0.02011  0.64806  0.87190  1.0000
  H   H318      1.0  0.03958  0.58431  0.68062  1.0000
  C   C180      1.0  0.24883  0.82213  0.52348  1.0000
  H   H319      1.0  0.24620  0.79498  0.56484  1.0000
  C   C181      1.0  0.03418  0.55984  0.78528  1.0000
  H   H320      1.0  0.09485  0.61105  0.70736  1.0000
  H   H321      1.0  0.14550  0.66055  0.70529  1.0000
  H   H322      1.0  0.21121  0.63517  0.68950  1.0000
  H   H323      1.0  0.24108  0.73208  0.80687  1.0000
  C   C182      1.0  0.30476  0.78141  0.74827  1.0000
  H   H324      1.0  0.01788  0.70311  0.85472  1.0000
  H   H325      1.0  0.26727  0.70052  0.76314  1.0000
  C   C183      1.0  0.05729  0.70840  0.81053  1.0000
  H   H326      1.0  0.16672  0.59781  0.68752  1.0000
  H   H327      1.0  0.03439  0.73666  0.90144  1.0000
  H   H328      1.0  0.00834  0.55658  0.72089  1.0000
  H   H329      1.0  0.04106  0.72942  0.94626  1.0000
  C   C184      1.0  0.19342  0.58671  0.66988  1.0000
  H   H330      1.0  0.16334  0.59087  0.83778  1.0000
  H   H331      1.0  0.05531  0.72305  0.82592  1.0000
  H   H332      1.0  0.05137  0.57851  0.78014  1.0000
  H   H333      1.0  0.02731  0.60983  0.90197  1.0000
  H   H334      1.0  0.27128  0.71326  0.71769  1.0000
  H   H335      1.0  0.01654  0.53617  0.83334  1.0000
  H   H336      1.0  0.27610  0.82452  0.56425  1.0000
  H   H337      1.0  0.24866  0.66626  0.71764  1.0000
  H   H338      1.0  0.30394  0.79912  0.74419  1.0000
  H   H339      1.0  0.28524  0.76559  0.75337  1.0000
  H   H340      1.0  0.30890  0.53084  0.75470  1.0000
  H   H341      1.0  0.31721  0.96676  0.83886  1.0000
  H   H342      1.0  0.06154  0.51457  0.73891  1.0000
  H   H343      1.0  0.02147  0.52013  0.77507  1.0000
  H   H344      1.0  0.20927  0.58438  0.68063  1.0000
  C   C185      1.0  0.21741  0.66043  0.75413  1.0000
  C   C186      1.0  0.00789  0.53878  0.71238  1.0000
  C   C187      1.0  0.16483  0.73228  0.99082  1.0000
  C   C188      1.0  0.18280  0.59652  0.69955  1.0000
  C   C189      1.0  0.05078  0.68503  0.83503  1.0000
  H   H345      1.0  0.18493  0.64821  0.67284  1.0000
  H   H346      1.0  0.28992  0.51781  0.91896  1.0000
  H   H347      1.0  0.28463  0.73850  0.80072  1.0000
  H   H348      1.0  0.21947  0.62045  0.72443  1.0000
  H   H349      1.0  0.30540  0.89340  0.51859  1.0000
  H   H350      1.0  0.09825  0.72694  0.81960  1.0000
  H   H351      1.0  0.15615  0.61927  0.72596  1.0000
  C   C190      1.0  0.25712  0.70236  0.73924  1.0000
  H   H352      1.0  0.31229  0.85811  0.82593  1.0000
  C   C191      1.0  0.11160  0.64182  0.97876  1.0000
  H   H353      1.0  0.07245  0.56551  0.71928  1.0000
  C   C192      1.0  0.05471  0.56127  0.70479  1.0000
  C   C193      1.0  0.03449  0.70076  0.90586  1.0000
  C   C194      1.0  0.03559  0.53886  0.76328  1.0000
  N   N12       1.0  0.32045  0.51235  0.71457  1.0000
  C   C195      1.0  0.05401  0.58648  0.70106  1.0000
  H   H354      1.0  0.05731  0.55648  0.67640  1.0000
  H   H355      1.0  0.08728  0.70706  0.77945  1.0000
  H   H356      1.0  0.19532  0.61415  0.85088  1.0000
  C   C196      1.0  0.27937  0.74450  0.82615  1.0000
  H   H357      1.0  0.15691  0.66566  0.65913  1.0000
  H   H358      1.0  0.16992  0.59897  0.76909  1.0000
  H   H359      1.0  0.08895  0.73757  0.77963  1.0000
  C   C197      1.0  0.08464  0.72068  0.79657  1.0000
  H   H360      1.0  0.05811  0.65235  0.87640  1.0000
  H   H361      1.0  0.24418  0.73382  0.85579  1.0000
  C   C198      1.0  0.20352  0.62281  0.71385  1.0000
  H   H362      1.0  0.17820  0.56784  0.66042  1.0000
  H   H363      1.0  0.19138  0.67479  0.70205  1.0000
  H   H364      1.0  0.21032  0.67288  0.76539  1.0000
  H   H365      1.0  0.28407  0.77767  0.85350  1.0000
  H   H366      1.0  0.01301  0.65308  0.79702  1.0000
  C   C199      1.0  0.00608  0.66155  0.81790  1.0000
  C   C200      1.0  0.29450  0.49818  0.69726  1.0000
  H   H367      1.0  0.26973  0.50761  0.72931  1.0000
  C   C201      1.0  0.27765  0.51072  0.70127  1.0000
  H   H368      1.0  0.28871  0.53150  0.69618  1.0000
  H   H369      1.0  0.30047  0.77355  0.69042  1.0000
  H   H370      1.0  0.02988  0.68636  0.92761  1.0000
  C   C202      1.0  0.32113  0.81758  0.81529  1.0000
  C   C203      1.0  0.01770  0.68800  0.87222  1.0000
  H   H371      1.0  0.00604  0.53838  0.68218  1.0000
  H   H372      1.0  0.02015  0.62522  0.93879  1.0000
  H   H373      1.0  0.18514  0.74269  0.98251  1.0000
  S   S48       1.0  0.31217  0.87843  0.59020  1.0000
  H   H374      1.0  0.01565  0.63188  0.85339  1.0000
  C   C204      1.0  0.03038  0.51481  0.70772  1.0000
  C   C205      1.0  0.28612  0.50026  0.90434  1.0000
  H   H375      1.0  0.30793  0.81910  0.79585  1.0000
  C   C206      1.0  0.31380  0.77563  0.71259  1.0000
  H   H376      1.0  0.13045  0.49989  0.50521  1.0000
  C   C207      1.0  0.31505  0.88254  0.51522  1.0000
  H   H377      1.0  0.15660  0.74502  0.98819  1.0000
  H   H378      1.0  0.30264  0.49988  0.76753  1.0000
  H   H379      1.0  0.25924  0.79583  0.50076  1.0000
  H   H380      1.0  0.00899  0.71278  0.92927  1.0000
  C   C208      1.0  0.32282  0.78429  0.78005  1.0000
  H   H381      1.0  0.28735  0.50405  0.87463  1.0000
  N   N13       1.0  0.31609  0.79060  0.81673  1.0000
  Fe  Fe23      1.0  0.32275  0.87131  0.64749  1.0000
  C   C209      1.0  0.31824  0.82894  0.85157  1.0000
  H   H382      1.0  0.31453  0.75772  0.71484  1.0000
  H   H383      1.0  0.32044  0.52593  0.82793  1.0000
  H   H384      1.0  0.32278  0.86447  0.87249  1.0000
  C   C210      1.0  0.32505  0.85666  0.84634  1.0000
  H   H385      1.0  0.32550  0.78875  0.87313  1.0000
  H   H386      1.0  0.30094  0.49544  0.91220  1.0000
  Fe  Fe24      1.0  0.48334  0.12954  0.21869  1.0000
  S   S49       1.0  0.44884  0.11830  0.25333  1.0000
  S   S50       1.0  0.52156  0.15037  0.24730  1.0000
  Fe  Fe25      1.0  0.45160  0.10828  0.14886  1.0000
  S   S51       1.0  0.41480  0.09500  0.17981  1.0000
  S   S52       1.0  0.45962  0.10067  0.09021  1.0000
  Fe  Fe26      1.0  0.43557  0.13378  0.20784  1.0000
  S   S53       1.0  0.41945  0.16124  0.21402  1.0000
  Fe  Fe27      1.0  0.43131  0.08075  0.22351  1.0000
  S   S54       1.0  0.42086  0.04444  0.25727  1.0000
  S   S55       1.0  0.47123  0.14712  0.17462  1.0000
  S   S56       1.0  0.46683  0.09201  0.19089  1.0000
  Fe  Fe28      1.0  0.41484  0.32734  0.30372  1.0000
  S   S57       1.0  0.44481  0.36377  0.32777  1.0000
  S   S58       1.0  0.37481  0.31911  0.28864  1.0000
  Fe  Fe29      1.0  0.44959  0.30312  0.30320  1.0000
  S   S59       1.0  0.48250  0.33915  0.32635  1.0000
  S   S60       1.0  0.45565  0.26836  0.29505  1.0000
  Fe  Fe30      1.0  0.45377  0.33960  0.36522  1.0000
  S   S61       1.0  0.46395  0.35354  0.42418  1.0000
  Fe  Fe31      1.0  0.47109  0.36061  0.28762  1.0000
  S   S62       1.0  0.49276  0.39475  0.25001  1.0000
  S   S63       1.0  0.42148  0.30296  0.34422  1.0000
  S   S64       1.0  0.44048  0.32486  0.26154  1.0000
  S   S65       1.0  0.61085  0.47444  0.25576  1.0000
  Fe  Fe32      1.0  0.63618  0.12395  0.28650  1.0000
  S   S66       1.0  0.60712  0.11883  0.24342  1.0000
  S   S67       1.0  0.63418  0.04248  0.31955  1.0000
  S   S68       1.0  0.62296  0.09617  0.33259  1.0000
  H   H387      1.0  0.41047  0.49415  0.15651  1.0000
  S   S69       1.0  0.35469  0.44220  0.18878  1.0000
  H   H388      1.0  0.37367  0.32864  0.20779  1.0000
  H   H389      1.0  0.37196  0.17089  0.25054  1.0000
  H   H390      1.0  0.55275  0.21030  0.23020  1.0000
  C   C211      1.0  0.62333  0.01689  0.28775  1.0000
  C   C212      1.0  0.50021  0.10714  0.33692  1.0000
  C   C213      1.0  0.63684  0.01854  0.25599  1.0000
  H   H391      1.0  0.48217  0.48838  0.26971  1.0000
  H   H392      1.0  0.32683  0.17286  0.28579  1.0000
  C   C214      1.0  0.36344  0.34095  0.28151  1.0000
  C   C215      1.0  0.33711  0.33124  0.28292  1.0000
  C   C216      1.0  0.40628  0.47788  0.27879  1.0000
  C   C217      1.0  0.34207  0.37318  0.27119  1.0000
  C   C218      1.0  0.36852  0.38304  0.26834  1.0000
  C   C219      1.0  0.37920  0.36698  0.27373  1.0000
  H   H393      1.0  0.48983  0.45947  0.20094  1.0000
  H   H394      1.0  0.55992  0.03818  0.15998  1.0000
  H   H395      1.0  0.38081  0.40311  0.26345  1.0000
  H   H396      1.0  0.39956  0.37473  0.27232  1.0000
  C   C220      1.0  0.52565  0.41658  0.25213  1.0000
  C   C221      1.0  0.53627  0.43699  0.22732  1.0000
  C   C222      1.0  0.56238  0.45488  0.22808  1.0000
  C   C223      1.0  0.57804  0.45241  0.25368  1.0000
  C   C224      1.0  0.56745  0.43211  0.27861  1.0000
  C   C225      1.0  0.54132  0.41422  0.27785  1.0000
  H   H397      1.0  0.52428  0.43877  0.20715  1.0000
  H   H398      1.0  0.57041  0.47037  0.20866  1.0000
  H   H399      1.0  0.57944  0.43015  0.29860  1.0000
  H   H400      1.0  0.53330  0.39859  0.29708  1.0000
  H   H401      1.0  0.35885  0.21866  0.36894  1.0000
  H   H402      1.0  0.34537  0.29800  0.20240  1.0000
  C   C226      1.0  0.58389  0.06143  0.41263  1.0000
  H   H403      1.0  0.43563  0.29987  0.44779  1.0000
  H   H404      1.0  0.54103  0.99671  0.21879  1.0000
  C   C227      1.0  0.39548  0.01241  0.26304  1.0000
  C   C228      1.0  0.40596  0.24308  0.39834  1.0000
  H   H405      1.0  0.50154  0.09399  0.27020  1.0000
  C   C229      1.0  0.60570  0.00099  0.40218  1.0000
  H   H406      1.0  0.51190  0.12341  0.31825  1.0000
  C   C230      1.0  0.58315  0.12724  0.24657  1.0000
  C   C231      1.0  0.56129  0.11403  0.22514  1.0000
  C   C232      1.0  0.54218  0.12074  0.22541  1.0000
  C   C233      1.0  0.54500  0.14112  0.24650  1.0000
  C   C234      1.0  0.56685  0.15436  0.26798  1.0000
  C   C235      1.0  0.58579  0.14730  0.26831  1.0000
  H   H407      1.0  0.55902  0.09841  0.20839  1.0000
  H   H408      1.0  0.52516  0.10999  0.20958  1.0000
  H   H409      1.0  0.56914  0.17011  0.28451  1.0000
  H   H410      1.0  0.60267  0.15774  0.28467  1.0000
  C   C236      1.0  0.43115  0.19170  0.23542  1.0000
  C   C237      1.0  0.44922  0.20029  0.26334  1.0000
  C   C238      1.0  0.45651  0.22371  0.28096  1.0000
  C   C239      1.0  0.44617  0.23921  0.27085  1.0000
  C   C240      1.0  0.42860  0.23091  0.24232  1.0000
  C   C241      1.0  0.42099  0.20732  0.22510  1.0000
  H   H411      1.0  0.45725  0.18865  0.27184  1.0000
  H   H412      1.0  0.47024  0.22983  0.30276  1.0000
  H   H413      1.0  0.42106  0.24277  0.23324  1.0000
  H   H414      1.0  0.40722  0.20117  0.20337  1.0000
  C   C242      1.0  0.45084  0.10561  0.04581  1.0000
  C   C243      1.0  0.43284  0.11334  0.04010  1.0000
  C   C244      1.0  0.46245  0.10157  0.01522  1.0000
  H   H415      1.0  0.42373  0.11657  0.06320  1.0000
  H   H416      1.0  0.47644  0.09564  0.01921  1.0000
  C   C245      1.0  0.42644  0.11673  0.00434  1.0000
  H   H417      1.0  0.58344  0.12069  0.33880  1.0000
  C   C246      1.0  0.54183  0.47283  0.31673  1.0000
  C   C247      1.0  0.53217  0.45471  0.34930  1.0000
  H   H418      1.0  0.43305  0.46601  0.29464  1.0000
  C   C248      1.0  0.33334  0.33373  0.17733  1.0000
  H   H419      1.0  0.35173  0.03213  0.01915  1.0000
  H   H420      1.0  0.64850  0.06983  0.48317  1.0000
  H   H421      1.0  0.41238  0.12257  0.00036  1.0000
  H   H422      1.0  0.52830  0.46337  0.29410  1.0000
  H   H423      1.0  0.38241  0.26615  0.19534  1.0000
  C   C249      1.0  0.34999  0.37397  0.14160  1.0000
  H   H424      1.0  0.54574  0.46247  0.37229  1.0000
  H   H425      1.0  0.51324  0.45140  0.35824  1.0000
  H   H426      1.0  0.62932  0.05941  0.15062  1.0000
  H   H427      1.0  0.65404  0.03604  0.24960  1.0000
  H   H428      1.0  0.59098  0.01034  0.17823  1.0000
  H   H429      1.0  0.41746  0.00249  0.29868  1.0000
  H   H430      1.0  0.46507  0.03731  0.24074  1.0000
  C   C250      1.0  0.36996  0.38891  0.17139  1.0000
  C   C251      1.0  0.48139  0.44967  0.22709  1.0000
  H   H431      1.0  0.61094  0.42298  0.02779  1.0000
  H   H432      1.0  0.37708  0.37716  0.18454  1.0000
  C   C252      1.0  0.33165  0.24192  0.31789  1.0000
  H   H433      1.0  0.58174  0.05442  0.38427  1.0000
  H   H434      1.0  0.58238  0.11760  0.38762  1.0000
  H   H435      1.0  0.40870  0.27494  0.22570  1.0000
  H   H436      1.0  0.44974  0.05204  0.33873  1.0000
  H   H437      1.0  0.41220  0.46225  0.19660  1.0000
  C   C253      1.0  0.36538  0.20172  0.30174  1.0000
  H   H438      1.0  0.62247  0.39959  0.31951  1.0000
  H   H439      1.0  0.34140  0.34317  0.20378  1.0000
  H   H440      1.0  0.37395  0.43983  0.27436  1.0000
  Fe  Fe33      1.0  0.65206  0.08599  0.31418  1.0000
  H   H441      1.0  0.37599  0.22956  0.23232  1.0000
  C   C254      1.0  0.58109  0.01436  0.20061  1.0000
  C   C255      1.0  0.36136  0.31403  0.18774  1.0000
  H   H442      1.0  0.47296  0.06891  0.28611  1.0000
  C   C256      1.0  0.60903  0.46813  0.04425  1.0000
  H   H443      1.0  0.62743  0.45817  0.08719  1.0000
  H   H444      1.0  0.46032  0.03129  0.32180  1.0000
  C   C257      1.0  0.57221  0.10850  0.36205  1.0000
  H   H445      1.0  0.59326  0.44823  0.04224  1.0000
  H   H446      1.0  0.40724  0.42192  0.17676  1.0000
  H   H447      1.0  0.60083  0.48094  0.04181  1.0000
  H   H448      1.0  0.62465  0.39088  0.27302  1.0000
  H   H449      1.0  0.44301  0.02977  0.17463  1.0000
  H   H450      1.0  0.42530  0.24606  0.40367  1.0000
  H   H451      1.0  0.40007  0.21847  0.35323  1.0000
  H   H452      1.0  0.53936  0.03588  0.28659  1.0000
  H   H453      1.0  0.33739  0.24893  0.34604  1.0000
  C   C258      1.0  0.61546  0.01224  0.44053  1.0000
  N   N14       1.0  0.58778  0.04188  0.19978  1.0000
  C   C259      1.0  0.58093  0.04779  0.16295  1.0000
  C   C260      1.0  0.38030  0.24700  0.28583  1.0000
  C   C261      1.0  0.57313  0.04718  0.22837  1.0000
  C   C262      1.0  0.61581  0.05827  0.20720  1.0000
  H   H454      1.0  0.53020  0.43610  0.34153  1.0000
  C   C263      1.0  0.59115  0.07638  0.15442  1.0000
  C   C264      1.0  0.57516  0.03937  0.26792  1.0000
  C   C265      1.0  0.47290  0.10301  0.33765  1.0000
  H   H455      1.0  0.34462  0.38753  0.12947  1.0000
  C   C266      1.0  0.58106  0.07987  0.11805  1.0000
  C   C267      1.0  0.55979  0.04615  0.29403  1.0000
  C   C268      1.0  0.65125  0.12650  0.46758  1.0000
  H   H456      1.0  0.58895  0.10047  0.11250  1.0000
  H   H457      1.0  0.36176  0.39563  0.19275  1.0000
  H   H458      1.0  0.49641  0.45600  0.24809  1.0000
  H   H459      1.0  0.55265  0.03812  0.22122  1.0000
  H   H460      1.0  0.57961  0.06776  0.22921  1.0000
  H   H461      1.0  0.62090  0.07854  0.21041  1.0000
  H   H462      1.0  0.62081  0.05308  0.23370  1.0000
  C   C269      1.0  0.62085  0.47205  0.08205  1.0000
  C   C270      1.0  0.38313  0.45487  0.29519  1.0000
  H   H463      1.0  0.58531  0.08543  0.17558  1.0000
  H   H464      1.0  0.61220  0.08693  0.15278  1.0000
  H   H465      1.0  0.59511  0.04952  0.27741  1.0000
  H   H466      1.0  0.49096  0.06194  0.21470  1.0000
  H   H467      1.0  0.48234  0.13687  0.36969  1.0000
  C   C271      1.0  0.50630  0.17022  0.04075  1.0000
  H   H468      1.0  0.47351  0.42893  0.22302  1.0000
  H   H469      1.0  0.34236  0.25795  0.29871  1.0000
  H   H470      1.0  0.58118  0.02802  0.43636  1.0000
  H   H471      1.0  0.56000  0.07068  0.11878  1.0000
  H   H472      1.0  0.36914  0.46042  0.30455  1.0000
  H   H473      1.0  0.58689  0.07158  0.09559  1.0000
  N   N15       1.0  0.63303  0.04061  0.44190  1.0000
  H   H474      1.0  0.39224  0.22761  0.41641  1.0000
  H   H475      1.0  0.35229  0.23866  0.24184  1.0000
  N   N16       1.0  0.50305  0.08455  0.32660  1.0000
  C   C272      1.0  0.49378  0.07692  0.28809  1.0000
  C   C273      1.0  0.53112  0.09311  0.32699  1.0000
  C   C274      1.0  0.48953  0.06302  0.35364  1.0000
  H   H476      1.0  0.45926  0.01499  0.38457  1.0000
  C   C275      1.0  0.50062  0.05782  0.27033  1.0000
  H   H477      1.0  0.50522  0.16244  0.01307  1.0000
  C   C276      1.0  0.48579  0.04672  0.23531  1.0000
  H   H478      1.0  0.54809  0.12478  0.36585  1.0000
  H   H479      1.0  0.38195  0.26505  0.29594  1.0000
  C   C277      1.0  0.44286  0.31170  0.47166  1.0000
  H   H480      1.0  0.54108  0.10701  0.30467  1.0000
  H   H481      1.0  0.53418  0.07677  0.32156  1.0000
  H   H482      1.0  0.49955  0.05185  0.35629  1.0000
  S   S70       1.0  0.32732  0.39245  0.27169  1.0000
  H   H483      1.0  0.52113  0.06757  0.26307  1.0000
  H   H484      1.0  0.49670  0.04197  0.28920  1.0000
  H   H485      1.0  0.60652  0.46937  0.10307  1.0000
  H   H486      1.0  0.63273  0.03772  0.18032  1.0000
  H   H487      1.0  0.49029  0.07079  0.38133  1.0000
  C   C278      1.0  0.43033  0.47764  0.18544  1.0000
  C   C279      1.0  0.63762  0.04875  0.48117  1.0000
  H   H488      1.0  0.48777  0.15820  0.05459  1.0000
  H   H489      1.0  0.48377  0.14172  0.32093  1.0000
  N   N17       1.0  0.36350  0.22516  0.31073  1.0000
  N   N18       1.0  0.54931  0.18022  0.12573  1.0000
  C   C280      1.0  0.52845  0.17894  0.10184  1.0000
  C   C281      1.0  0.54421  0.18467  0.16443  1.0000
  C   C282      1.0  0.57442  0.20155  0.11228  1.0000
  C   C283      1.0  0.55020  0.15577  0.12443  1.0000
  C   C284      1.0  0.52489  0.13126  0.13320  1.0000
  C   C285      1.0  0.52787  0.17006  0.06208  1.0000
  C   C286      1.0  0.59786  0.20776  0.13628  1.0000
  C   C287      1.0  0.54559  0.21053  0.17202  1.0000
  C   C288      1.0  0.53939  0.21245  0.21180  1.0000
  C   C289      1.0  0.52738  0.10756  0.12796  1.0000
  C   C290      1.0  0.37182  0.00316  0.24623  1.0000
  C   C291      1.0  0.62196  0.23010  0.12048  1.0000
  H   H490      1.0  0.52982  0.19791  0.10000  1.0000
  H   H491      1.0  0.50943  0.16634  0.11418  1.0000
  H   H492      1.0  0.52493  0.16980  0.17292  1.0000
  H   H493      1.0  0.55715  0.18242  0.18368  1.0000
  H   H494      1.0  0.57343  0.21931  0.10861  1.0000
  H   H495      1.0  0.57875  0.19708  0.08476  1.0000
  H   H496      1.0  0.55708  0.15344  0.09738  1.0000
  H   H497      1.0  0.56419  0.15624  0.14444  1.0000
  H   H498      1.0  0.50937  0.12928  0.11544  1.0000
  H   H499      1.0  0.51909  0.13149  0.16169  1.0000
  H   H500      1.0  0.54588  0.18277  0.04766  1.0000
  H   H501      1.0  0.52472  0.15041  0.06113  1.0000
  H   H502      1.0  0.60106  0.19127  0.13784  1.0000
  H   H503      1.0  0.59552  0.21299  0.16433  1.0000
  H   H504      1.0  0.56484  0.22668  0.16631  1.0000
  H   H505      1.0  0.53167  0.21279  0.15519  1.0000
  H   H506      1.0  0.51964  0.19748  0.21844  1.0000
  H   H507      1.0  0.54097  0.23126  0.21680  1.0000
  H   H508      1.0  0.53138  0.10569  0.09897  1.0000
  H   H509      1.0  0.54284  0.10843  0.14516  1.0000
  H   H510      1.0  0.50923  0.09043  0.13575  1.0000
  H   H511      1.0  0.44830  0.03596  0.40176  1.0000
  H   H512      1.0  0.63076  0.43261  0.25159  1.0000
  H   H513      1.0  0.41527  0.47184  0.13053  1.0000
  H   H514      1.0  0.36227  0.18998  0.32667  1.0000
  H   H515      1.0  0.37289  0.30682  0.17409  1.0000
  H   H516      1.0  0.35310  0.15160  0.28832  1.0000
  H   H517      1.0  0.45347  0.12479  0.34366  1.0000
  H   H518      1.0  0.58819  0.01002  0.22596  1.0000
  H   H519      1.0  0.46264  0.09467  0.31201  1.0000
  C   C292      1.0  0.59490  0.04868  0.43664  1.0000
  H   H520      1.0  0.57107  0.08971  0.35966  1.0000
  C   C293      1.0  0.44883  0.02521  0.37765  1.0000
  H   H521      1.0  0.61148  0.38464  0.00775  1.0000
  H   H522      1.0  0.58738  0.03976  0.14080  1.0000
  H   H523      1.0  0.62077  0.05168  0.39311  1.0000
  C   C294      1.0  0.46137  0.04314  0.34539  1.0000
  H   H524      1.0  0.34295  0.48713  0.32392  1.0000
  H   H525      1.0  0.41784  0.45366  0.25255  1.0000
  H   H526      1.0  0.46209  0.09035  0.36070  1.0000
  H   H527      1.0  0.32755  0.21194  0.28264  1.0000
  H   H528      1.0  0.38505  0.28413  0.23568  1.0000
  Fe  Fe34      1.0  0.65357  0.12702  0.36624  1.0000
  Fe  Fe35      1.0  0.35406  0.47733  0.20696  1.0000
  H   H529      1.0  0.39985  0.48377  0.25434  1.0000
  H   H530      1.0  0.59645  0.08237  0.41279  1.0000
  H   H531      1.0  0.62876  0.44127  0.29772  1.0000
  H   H532      1.0  0.33876  0.14862  0.24437  1.0000
  H   H533      1.0  0.56175  0.04063  0.32214  1.0000
  C   C295      1.0  0.62914  0.47451  0.01386  1.0000
  H   H534      1.0  0.36837  0.34194  0.14687  1.0000
  H   H535      1.0  0.63844  0.23402  0.13797  1.0000
  H   H536      1.0  0.56493  0.05701  0.42310  1.0000
  H   H537      1.0  0.40599  0.26099  0.40490  1.0000
  C   C296      1.0  0.47325  0.12818  0.34338  1.0000
  S   S71       1.0  0.64164  0.13151  0.42393  1.0000
  H   H538      1.0  0.54510  0.99693  0.17018  1.0000
  H   H539      1.0  0.40200  0.40619  0.13365  1.0000
  H   H540      1.0  0.35974  0.36983  0.11916  1.0000
  C   C297      1.0  0.46015  0.45466  0.23931  1.0000
  H   H541      1.0  0.56053  0.47534  0.30832  1.0000
  C   C298      1.0  0.62162  0.05477  0.42303  1.0000
  H   H542      1.0  0.40009  0.25042  0.28627  1.0000
  C   C299      1.0  0.54560  0.10544  0.36266  1.0000
  H   H543      1.0  0.56700  0.06698  0.29343  1.0000
  H   H544      1.0  0.36842  0.01562  0.22888  1.0000
  H   H545      1.0  0.59604  0.05585  0.46473  1.0000
  H   H546      1.0  0.59901  0.39611  0.28654  1.0000
  H   H547      1.0  0.38855  0.44716  0.31886  1.0000
  H   H548      1.0  0.62016  0.24747  0.11944  1.0000
  H   H549      1.0  0.34137  0.31124  0.13825  1.0000
  H   H550      1.0  0.44284  0.47003  0.17715  1.0000
  C   C300      1.0  0.39303  0.41205  0.15509  1.0000
  C   C301      1.0  0.63526  0.43068  0.28024  1.0000
  H   H551      1.0  0.45238  0.44422  0.26535  1.0000
  H   H552      1.0  0.56788  0.01862  0.27028  1.0000
  H   H553      1.0  0.65742  0.48231  0.29665  1.0000
  C   C302      1.0  0.37272  0.23284  0.34932  1.0000
  H   H554      1.0  0.37396  0.25131  0.35614  1.0000
  H   H555      1.0  0.59473  0.00918  0.38955  1.0000
  H   H556      1.0  0.50762  0.11381  0.36473  1.0000
  C   C303      1.0  0.38817  0.26888  0.22435  1.0000
  S   S72       1.0  0.32858  0.45818  0.25477  1.0000
  H   H557      1.0  0.44483  0.44609  0.21894  1.0000
  H   H558      1.0  0.53527  0.09373  0.38673  1.0000
  H   H559      1.0  0.49033  0.03242  0.22411  1.0000
  C   C304      1.0  0.37248  0.24404  0.24529  1.0000
  H   H560      1.0  0.52371  0.49513  0.32768  1.0000
  C   C305      1.0  0.63392  0.05659  0.17878  1.0000
  C   C306      1.0  0.39921  0.23606  0.35838  1.0000
  H   H561      1.0  0.38498  0.20730  0.29229  1.0000
  H   H562      1.0  0.40974  0.01331  0.18589  1.0000
  H   H563      1.0  0.38737  0.42538  0.14318  1.0000
  C   C307      1.0  0.45709  0.33815  0.46758  1.0000
  H   H564      1.0  0.41413  0.25148  0.34185  1.0000
  C   C308      1.0  0.42722  0.47136  0.26881  1.0000
  C   C309      1.0  0.47007  0.48355  0.24496  1.0000
  H   H565      1.0  0.62575  0.22560  0.09267  1.0000
  H   H566      1.0  0.63720  0.49165  0.08465  1.0000
  C   C310      1.0  0.35298  0.16226  0.26376  1.0000
  H   H567      1.0  0.50951  0.18987  0.03810  1.0000
  C   C311      1.0  0.39933  0.99572  0.28554  1.0000
  H   H568      1.0  0.63407  0.07565  0.42626  1.0000
  C   C312      1.0  0.35156  0.32570  0.15960  1.0000
  H   H569      1.0  0.42896  0.01092  0.37055  1.0000
  H   H570      1.0  0.65418  0.04372  0.39286  1.0000
  C   C313      1.0  0.42412  0.48741  0.15073  1.0000
  C   C314      1.0  0.61951  0.40259  0.29050  1.0000
  H   H571      1.0  0.62177  0.00473  0.38384  1.0000
  C   C315      1.0  0.61601  0.42214  0.99900  1.0000
  H   H572      1.0  0.64230  0.46790  0.02311  1.0000
  H   H573      1.0  0.48326  0.49420  0.22214  1.0000
  H   H574      1.0  0.62520  0.00217  0.45152  1.0000
  N   N19       1.0  0.45042  0.49191  0.24955  1.0000
  H   H575      1.0  0.55119  0.49480  0.25299  1.0000
  H   H576      1.0  0.43468  0.99656  0.21910  1.0000
  H   H577      1.0  0.65791  0.47315  0.23590  1.0000
  C   C316      1.0  0.34625  0.18272  0.27380  1.0000
  H   H578      1.0  0.34556  0.19216  0.24841  1.0000
  C   C317      1.0  0.65745  0.04668  0.42267  1.0000
  H   H579      1.0  0.42045  0.00700  0.14325  1.0000
  C   C318      1.0  0.33620  0.21933  0.30957  1.0000
  H   H580      1.0  0.35858  0.00751  0.00610  1.0000
  C   C319      1.0  0.42509  0.01130  0.17250  1.0000
  H   H581      1.0  0.59878  0.00640  0.45877  1.0000
  H   H582      1.0  0.65194  0.46035  0.17002  1.0000
  H   H583      1.0  0.41319  0.49318  0.29943  1.0000
  Fe  Fe36      1.0  0.32676  0.42224  0.23367  1.0000
  H   H584      1.0  0.63689  0.43081  0.99752  1.0000
  C   C320      1.0  0.62879  0.99714  0.23321  1.0000
  H   H585      1.0  0.63971  0.99861  0.20910  1.0000
  C   C321      1.0  0.34952  0.01867  0.99710  1.0000
  H   H586      1.0  0.32801  0.40205  0.02821  1.0000
  C   C322      1.0  0.32867  0.49113  0.33659  1.0000
  H   H587      1.0  0.33062  0.49077  0.36658  1.0000
  H   H588      1.0  0.61989  0.12681  0.49493  1.0000
  H   H589      1.0  0.61933  0.04317  0.49526  1.0000
  Fe  Fe37      1.0  0.48464  0.11537  0.82398  1.0000
  S   S73       1.0  0.46451  0.11439  0.77252  1.0000
  S   S74       1.0  0.52245  0.11630  0.82737  1.0000
  Fe  Fe38      1.0  0.44408  0.11587  0.87245  1.0000
  S   S75       1.0  0.42097  0.11513  0.82347  1.0000
  S   S76       1.0  0.42882  0.11696  0.92931  1.0000
  Fe  Fe39      1.0  0.42929  0.08510  0.80149  1.0000
  S   S77       1.0  0.39828  0.05029  0.77168  1.0000
  Fe  Fe40      1.0  0.45799  0.14463  0.79823  1.0000
  S   S78       1.0  0.46978  0.18059  0.76290  1.0000
  S   S79       1.0  0.44998  0.08424  0.85164  1.0000
  S   S80       1.0  0.48046  0.14715  0.84846  1.0000
  Fe  Fe41      1.0  0.45030  0.30196  0.71679  1.0000
  S   S81       1.0  0.48015  0.31478  0.67326  1.0000
  S   S82       1.0  0.43481  0.26495  0.75021  1.0000
  Fe  Fe42      1.0  0.43887  0.34580  0.70023  1.0000
  S   S83       1.0  0.46752  0.36047  0.65448  1.0000
  S   S84       1.0  0.41791  0.36863  0.70634  1.0000
  Fe  Fe43      1.0  0.45285  0.32004  0.63749  1.0000
  S   S85       1.0  0.44090  0.30058  0.58182  1.0000
  Fe  Fe44      1.0  0.49250  0.35431  0.69357  1.0000
  S   S86       1.0  0.53380  0.38526  0.69570  1.0000
  S   S87       1.0  0.42225  0.30546  0.68031  1.0000
  S   S88       1.0  0.46472  0.34150  0.74010  1.0000
  S   S89       1.0  0.58175  0.45774  0.83221  1.0000
  Fe  Fe45      1.0  0.61836  0.11439  0.68815  1.0000
  S   S90       1.0  0.57940  0.11099  0.68547  1.0000
  C   C323      1.0  0.36221  0.03354  0.96240  1.0000
  S   S91       1.0  0.62242  0.08245  0.66393  1.0000
  Fe  Fe46      1.0  0.64548  0.08675  0.71387  1.0000
  S   S92       1.0  0.36210  0.45905  0.86789  1.0000
  C   C324      1.0  0.64353  0.12117  0.53352  1.0000
  H   H590      1.0  0.52034  0.46685  0.68884  1.0000
  H   H591      1.0  0.35957  0.32328  0.80627  1.0000
  C   C325      1.0  0.61612  0.02156  0.75193  1.0000
  C   C326      1.0  0.56898  0.05857  0.81475  1.0000
  H   H592      1.0  0.52795  0.06658  0.80722  1.0000
  C   C327      1.0  0.46466  0.38974  0.80419  1.0000
  C   C328      1.0  0.40307  0.37829  0.73983  1.0000
  C   C329      1.0  0.39282  0.39370  0.72909  1.0000
  C   C330      1.0  0.38049  0.40156  0.75435  1.0000
  C   C331      1.0  0.37803  0.39386  0.79075  1.0000
  C   C332      1.0  0.38852  0.37868  0.80154  1.0000
  C   C333      1.0  0.40090  0.37092  0.77632  1.0000
  H   H593      1.0  0.39417  0.39938  0.70088  1.0000
  H   H594      1.0  0.39545  0.00659  0.90281  1.0000
  H   H595      1.0  0.38666  0.37253  0.82959  1.0000
  H   H596      1.0  0.40835  0.35894  0.78515  1.0000
  C   C334      1.0  0.54696  0.40486  0.73417  1.0000
  C   C335      1.0  0.53576  0.39757  0.76863  1.0000
  C   C336      1.0  0.54672  0.41385  0.79856  1.0000
  C   C337      1.0  0.56907  0.43738  0.79432  1.0000
  C   C338      1.0  0.58032  0.44454  0.75991  1.0000
  C   C339      1.0  0.56934  0.42831  0.73002  1.0000
  H   H597      1.0  0.51870  0.37939  0.77222  1.0000
  H   H598      1.0  0.53791  0.40816  0.82510  1.0000
  H   H599      1.0  0.59755  0.46253  0.75627  1.0000
  H   H600      1.0  0.57824  0.43396  0.70351  1.0000
  C   C340      1.0  0.44741  0.31564  0.53819  1.0000
  H   H601      1.0  0.45260  0.37639  0.78274  1.0000
  C   C341      1.0  0.46160  0.34206  0.53409  1.0000
  C   C342      1.0  0.34551  0.46686  0.68322  1.0000
  H   H602      1.0  0.46895  0.35396  0.55788  1.0000
  C   C343      1.0  0.39232  0.01848  0.76630  1.0000
  H   H603      1.0  0.42049  0.32855  0.80310  1.0000
  C   C344      1.0  0.37910  0.29748  0.75823  1.0000
  H   H604      1.0  0.41798  0.02007  0.80787  1.0000
  H   H605      1.0  0.63177  0.01292  0.79891  1.0000
  C   C345      1.0  0.53802  0.11474  0.78772  1.0000
  C   C346      1.0  0.56371  0.12137  0.78959  1.0000
  C   C347      1.0  0.57658  0.12003  0.75854  1.0000
  C   C348      1.0  0.56381  0.11214  0.72536  1.0000
  C   C349      1.0  0.53809  0.10538  0.72355  1.0000
  C   C350      1.0  0.52517  0.10648  0.75469  1.0000
  H   H606      1.0  0.57372  0.12762  0.81516  1.0000
  H   H607      1.0  0.59643  0.12543  0.76018  1.0000
  H   H608      1.0  0.52806  0.09909  0.69801  1.0000
  H   H609      1.0  0.50519  0.10062  0.75323  1.0000
  C   C351      1.0  0.46015  0.20421  0.76099  1.0000
  C   C352      1.0  0.43866  0.20151  0.77932  1.0000
  C   C353      1.0  0.43133  0.22028  0.77579  1.0000
  C   C354      1.0  0.44538  0.24214  0.75413  1.0000
  C   C355      1.0  0.46698  0.24496  0.73599  1.0000
  C   C356      1.0  0.47419  0.22609  0.73927  1.0000
  H   H610      1.0  0.42757  0.18486  0.79606  1.0000
  H   H611      1.0  0.41463  0.21782  0.79009  1.0000
  H   H612      1.0  0.47814  0.26169  0.71947  1.0000
  H   H613      1.0  0.49077  0.22848  0.72482  1.0000
  H   H614      1.0  0.53234  0.01891  0.66653  1.0000
  C   C357      1.0  0.43811  0.11278  0.97377  1.0000
  H   H615      1.0  0.55906  0.06155  0.74672  1.0000
  C   C358      1.0  0.39375  0.22151  0.65953  1.0000
  H   H616      1.0  0.46548  0.10218  0.95638  1.0000
  N   N20       1.0  0.50419  0.44855  0.74065  1.0000
  H   H617      1.0  0.37284  0.28746  0.63887  1.0000
  H   H618      1.0  0.60429  0.48101  0.90901  1.0000
  C   C359      1.0  0.40403  0.00822  0.78798  1.0000
  H   H619      1.0  0.34248  0.28587  0.63203  1.0000
  S   S93       1.0  0.63983  0.11750  0.73918  1.0000
  C   C360      1.0  0.41784  0.04176  0.92990  1.0000
  C   C361      1.0  0.47548  0.41720  0.79132  1.0000
  H   H620      1.0  0.63200  0.11993  0.55680  1.0000
  H   H621      1.0  0.39023  0.22414  0.58197  1.0000
  C   C362      1.0  0.59735  0.06564  0.81414  1.0000
  H   H622      1.0  0.56838  0.07572  0.80520  1.0000
  H   H623      1.0  0.60974  0.39211  0.96073  1.0000
  H   H624      1.0  0.48311  0.42113  0.67373  1.0000
  H   H625      1.0  0.41631  0.30409  0.83488  1.0000
  C   C363      1.0  0.59944  0.47262  0.96769  1.0000
  H   H626      1.0  0.64759  0.19853  0.57029  1.0000
  H   H627      1.0  0.43546  0.24653  0.57448  1.0000
  H   H628      1.0  0.45528  0.47700  0.71157  1.0000
  H   H629      1.0  0.36317  0.22566  0.68310  1.0000
  H   H630      1.0  0.42761  0.20470  0.69232  1.0000
  H   H631      1.0  0.36188  0.99989  0.94093  1.0000
  H   H632      1.0  0.56526  0.03643  0.67963  1.0000
  C   C364      1.0  0.63668  0.12503  0.49834  1.0000
  C   C365      1.0  0.36197  0.30518  0.68185  1.0000
  C   C366      1.0  0.41298  0.30783  0.80640  1.0000
  H   H633      1.0  0.42708  0.28015  0.50946  1.0000
  H   H634      1.0  0.38862  0.28956  0.74104  1.0000
  H   H635      1.0  0.38968  0.31830  0.75269  1.0000
  H   H636      1.0  0.38180  0.31794  0.69027  1.0000
  H   H637      1.0  0.51337  0.26797  0.61869  1.0000
  H   H638      1.0  0.44931  0.19640  0.67148  1.0000
  H   H639      1.0  0.36491  0.01026  0.72373  1.0000
  H   H640      1.0  0.38837  0.19334  0.57961  1.0000
  H   H641      1.0  0.40548  0.20300  0.51657  1.0000
  N   N21       1.0  0.35152  0.28634  0.74742  1.0000
  H   H642      1.0  0.46864  0.22632  0.61518  1.0000
  N   N22       1.0  0.54945  0.19009  0.73045  1.0000
  C   C367      1.0  0.56075  0.21856  0.72767  1.0000
  C   C368      1.0  0.56786  0.18266  0.71452  1.0000
  C   C369      1.0  0.52586  0.17829  0.70704  1.0000
  C   C370      1.0  0.54227  0.18024  0.76902  1.0000
  C   C371      1.0  0.55926  0.19805  0.79994  1.0000
  C   C372      1.0  0.54225  0.22857  0.73716  1.0000
  C   C373      1.0  0.51280  0.14917  0.70160  1.0000
  C   C374      1.0  0.59383  0.19304  0.73373  1.0000
  C   C375      1.0  0.61159  0.18672  0.71215  1.0000
  C   C376      1.0  0.55586  0.18357  0.83543  1.0000
  C   C377      1.0  0.55645  0.25710  0.74470  1.0000
  C   C378      1.0  0.48694  0.13897  0.68326  1.0000
  H   H643      1.0  0.56778  0.22512  0.69946  1.0000
  H   H644      1.0  0.57784  0.22876  0.74486  1.0000
  H   H645      1.0  0.55962  0.16167  0.71528  1.0000
  H   H646      1.0  0.57142  0.18829  0.68527  1.0000
  H   H647      1.0  0.53017  0.18717  0.67945  1.0000
  H   H648      1.0  0.51110  0.18201  0.71892  1.0000
  H   H649      1.0  0.52250  0.17581  0.77560  1.0000
  H   H650      1.0  0.54169  0.16167  0.77182  1.0000
  H   H651      1.0  0.55414  0.21300  0.80527  1.0000
  H   H652      1.0  0.57972  0.20776  0.79323  1.0000
  H   H653      1.0  0.52933  0.22525  0.71386  1.0000
  H   H654      1.0  0.53029  0.21865  0.76121  1.0000
  H   H655      1.0  0.50991  0.13948  0.72812  1.0000
  H   H656      1.0  0.52445  0.14408  0.68384  1.0000
  H   H657      1.0  0.60366  0.21396  0.73681  1.0000
  H   H658      1.0  0.59107  0.18392  0.76088  1.0000
  H   H659      1.0  0.61585  0.19600  0.68497  1.0000
  H   H660      1.0  0.62975  0.19356  0.72706  1.0000
  H   H661      1.0  0.60291  0.16586  0.70854  1.0000
  H   H662      1.0  0.56680  0.19708  0.85745  1.0000
  H   H663      1.0  0.53557  0.17302  0.84359  1.0000
  H   H664      1.0  0.56301  0.16996  0.83231  1.0000
  H   H665      1.0  0.56878  0.26136  0.76898  1.0000
  H   H666      1.0  0.56824  0.26777  0.72084  1.0000
  H   H667      1.0  0.54252  0.26360  0.75016  1.0000
  H   H668      1.0  0.47786  0.11802  0.68033  1.0000
  H   H669      1.0  0.47417  0.14323  0.69992  1.0000
  H   H670      1.0  0.48918  0.14756  0.65583  1.0000
  C   C379      1.0  0.47618  0.26502  0.61270  1.0000
  C   C380      1.0  0.38305  0.23798  0.67374  1.0000
  H   H671      1.0  0.45289  0.42526  0.71827  1.0000
  H   H672      1.0  0.53804  0.00486  0.72687  1.0000
  C   C381      1.0  0.37418  0.00263  0.74060  1.0000
  C   C382      1.0  0.34921  0.28138  0.70686  1.0000
  N   N23       1.0  0.43224  0.22454  0.62294  1.0000
  C   C383      1.0  0.65641  0.18796  0.58242  1.0000
  H   H673      1.0  0.43328  0.24612  0.67090  1.0000
  H   H674      1.0  0.43774  0.02001  0.93174  1.0000
  C   C384      1.0  0.42735  0.22630  0.58303  1.0000
  H   H675      1.0  0.39281  0.20891  0.68218  1.0000
  H   H676      1.0  0.37237  0.41304  0.74550  1.0000
  C   C385      1.0  0.42168  0.19696  0.63334  1.0000
  C   C386      1.0  0.41278  0.16469  0.68400  1.0000
  C   C387      1.0  0.59615  0.01152  0.72688  1.0000
  H   H677      1.0  0.44211  0.99694  0.74141  1.0000
  H   H678      1.0  0.36586  0.08778  0.92044  1.0000
  C   C388      1.0  0.64003  0.47689  0.94894  1.0000
  H   H679      1.0  0.41940  0.16197  0.71096  1.0000
  S   S94       1.0  0.64079  0.05401  0.75067  1.0000
  H   H680      1.0  0.36305  0.47458  0.69988  1.0000
  C   C389      1.0  0.33905  0.23912  0.75546  1.0000
  C   C390      1.0  0.49009  0.42159  0.75490  1.0000
  H   H681      1.0  0.47624  0.02220  0.78410  1.0000
  H   H682      1.0  0.38082  0.20924  0.63804  1.0000
  H   H683      1.0  0.41422  0.15156  0.66433  1.0000
  H   H684      1.0  0.60473  0.06839  0.78593  1.0000
  C   C391      1.0  0.54987  0.00395  0.84082  1.0000
  H   H685      1.0  0.51965  0.05405  0.76185  1.0000
  H   H686      1.0  0.39093  0.06638  0.91385  1.0000
  H   H687      1.0  0.40069  0.18621  0.63162  1.0000
  H   H688      1.0  0.37956  0.09887  0.87595  1.0000
  S   S95       1.0  0.65261  0.14513  0.65925  1.0000
  H   H689      1.0  0.60778  0.08848  0.86352  1.0000
  H   H690      1.0  0.58258  0.46281  0.98591  1.0000
  C   C392      1.0  0.42927  0.19228  0.67173  1.0000
  H   H691      1.0  0.47573  0.40848  0.73522  1.0000
  C   C393      1.0  0.35765  0.05758  0.88141  1.0000
  C   C394      1.0  0.65102  0.03744  0.50441  1.0000
  C   C395      1.0  0.52421  0.02888  0.80133  1.0000
  C   C396      1.0  0.53831  0.02327  0.72491  1.0000
  H   H692      1.0  0.39262  0.15988  0.68674  1.0000
  C   C397      1.0  0.61380  0.09039  0.83460  1.0000
  H   H693      1.0  0.50683  0.41441  0.62470  1.0000
  H   H694      1.0  0.47728  0.26469  0.58254  1.0000
  H   H695      1.0  0.56266  0.05612  0.84364  1.0000
  H   H696      1.0  0.42965  0.44671  0.69713  1.0000
  H   H697      1.0  0.51052  0.01045  0.78866  1.0000
  H   H698      1.0  0.61250  0.10634  0.82177  1.0000
  N   N24       1.0  0.55119  0.03578  0.79235  1.0000
  C   C398      1.0  0.46073  0.23760  0.62802  1.0000
  C   C399      1.0  0.39939  0.02641  0.89884  1.0000
  C   C400      1.0  0.51679  0.44962  0.70449  1.0000
  C   C401      1.0  0.51678  0.43147  0.64221  1.0000
  H   H699      1.0  0.33558  0.22343  0.80999  1.0000
  C   C402      1.0  0.50311  0.42639  0.67885  1.0000
  H   H700      1.0  0.40989  0.03297  0.87254  1.0000
  H   H701      1.0  0.44266  0.49361  0.76945  1.0000
  H   H702      1.0  0.60002  0.05060  0.82724  1.0000
  H   H703      1.0  0.48384  0.05455  0.79225  1.0000
  H   H704      1.0  0.48486  0.03562  0.82931  1.0000
  C   C403      1.0  0.60581  0.43580  0.97402  1.0000
  C   C404      1.0  0.51662  0.04908  0.79116  1.0000
  C   C405      1.0  0.55724  0.04265  0.75264  1.0000
  H   H705      1.0  0.51693  0.44777  0.62806  1.0000
  H   H706      1.0  0.46540  0.23865  0.65746  1.0000
  H   H707      1.0  0.51392  0.29798  0.61535  1.0000
  H   H708      1.0  0.63397  0.09496  0.83357  1.0000
  H   H709      1.0  0.53589  0.45149  0.70894  1.0000
  C   C406      1.0  0.48865  0.03964  0.79977  1.0000
  C   C407      1.0  0.54591  0.03310  0.68599  1.0000
  C   C408      1.0  0.50344  0.27845  0.62690  1.0000
  C   C409      1.0  0.36262  0.08424  0.89077  1.0000
  H   H710      1.0  0.52076  0.02573  0.83112  1.0000
  H   H711      1.0  0.43722  0.21843  0.56633  1.0000
  H   H712      1.0  0.51707  0.46514  0.79428  1.0000
  C   C410      1.0  0.43808  0.30056  0.50673  1.0000
  C   C411      1.0  0.55456  0.01322  0.80068  1.0000
  H   H713      1.0  0.57620  0.04507  0.74575  1.0000
  H   H714      1.0  0.42327  0.25466  0.63100  1.0000
  Fe  Fe47      1.0  0.34477  0.42846  0.82516  1.0000
  C   C412      1.0  0.38459  0.29292  0.79804  1.0000
  C   C413      1.0  0.38087  0.05421  0.89032  1.0000
  H   H715      1.0  0.42813  0.18743  0.61348  1.0000
  H   H716      1.0  0.51874  0.01979  0.72925  1.0000
  H   H717      1.0  0.39440  0.24953  0.69711  1.0000
  H   H718      1.0  0.45933  0.42080  0.78773  1.0000
  H   H719      1.0  0.39451  0.06280  0.86725  1.0000
  C   C414      1.0  0.61641  0.00546  0.77944  1.0000
  S   S96       1.0  0.34499  0.45481  0.78154  1.0000
  H   H720      1.0  0.45286  0.38639  0.82895  1.0000
  H   H721      1.0  0.48027  0.38579  0.81078  1.0000
  H   H722      1.0  0.34951  0.46133  0.65627  1.0000
  H   H723      1.0  0.32721  0.33275  0.82704  1.0000
  H   H724      1.0  0.37114  0.02164  0.83825  1.0000
  H   H725      1.0  0.50358  0.41431  0.75801  1.0000
  H   H726      1.0  0.45518  0.05162  0.95026  1.0000
  C   C415      1.0  0.65804  0.04989  0.54186  1.0000
  H   H727      1.0  0.42348  0.06217  0.92847  1.0000
  H   H728      1.0  0.58332  0.38430  0.99123  1.0000
  N   N25       1.0  0.37486  0.02716  0.89667  1.0000
  H   H729      1.0  0.52945  0.99557  0.84789  1.0000
  C   C416      1.0  0.44215  0.04000  0.92814  1.0000
  C   C417      1.0  0.48706  0.45992  0.73767  1.0000
  H   H730      1.0  0.37844  0.27255  0.80251  1.0000
  H   H731      1.0  0.48779  0.42942  0.81343  1.0000
  H   H732      1.0  0.54137  0.99656  0.78415  1.0000
  H   H733      1.0  0.35769  0.26939  0.69929  1.0000
  H   H734      1.0  0.65313  0.18670  0.61227  1.0000
  H   H735      1.0  0.54567  0.05120  0.68220  1.0000
  H   H736      1.0  0.37463  0.29831  0.81826  1.0000
  H   H737      1.0  0.33599  0.26331  0.79615  1.0000
  C   C418      1.0  0.58924  0.46793  0.92817  1.0000
  H   H738      1.0  0.50365  0.27995  0.65702  1.0000
  C   C419      1.0  0.42165  0.23788  0.64595  1.0000
  C   C420      1.0  0.52502  0.46419  0.76750  1.0000
  H   H739      1.0  0.48028  0.46161  0.76515  1.0000
  H   H740      1.0  0.58262  0.44805  0.91969  1.0000
  H   H741      1.0  0.46715  0.27640  0.62017  1.0000
  H   H742      1.0  0.59581  0.02349  0.70529  1.0000
  H   H743      1.0  0.56118  0.01965  0.85994  1.0000
  H   H744      1.0  0.57787  0.49519  0.77950  1.0000
  H   H745      1.0  0.33021  0.44954  0.69668  1.0000
  S   S97       1.0  0.36078  0.40107  0.82345  1.0000
  H   H746      1.0  0.40903  0.03386  0.95669  1.0000
  H   H747      1.0  0.63311  0.46943  0.92117  1.0000
  H   H748      1.0  0.46105  0.01053  0.70068  1.0000
  H   H749      1.0  0.60625  0.42998  0.94540  1.0000
  H   H750      1.0  0.65830  0.45344  0.95119  1.0000
  H   H751      1.0  0.42850  0.48296  0.85034  1.0000
  H   H752      1.0  0.34037  0.04366  0.89635  1.0000
  H   H753      1.0  0.35150  0.31590  0.68288  1.0000
  H   H754      1.0  0.32989  0.29398  0.81248  1.0000
  H   H755      1.0  0.64104  0.04813  0.55611  1.0000
  H   H756      1.0  0.47010  0.44886  0.68363  1.0000
  H   H757      1.0  0.38315  0.25074  0.65189  1.0000
  H   H758      1.0  0.53666  0.45492  0.77274  1.0000
  H   H759      1.0  0.37170  0.31538  0.62514  1.0000
  H   H760      1.0  0.50321  0.40971  0.69116  1.0000
  H   H761      1.0  0.53661  0.43546  0.64611  1.0000
  H   H762      1.0  0.42358  0.30176  0.78813  1.0000
  H   H763      1.0  0.57382  0.01711  0.79242  1.0000
  C   C421      1.0  0.46377  0.44590  0.71245  1.0000
  C   C422      1.0  0.44546  0.45621  0.71687  1.0000
  C   C423      1.0  0.46639  0.35318  0.49906  1.0000
  H   H764      1.0  0.47743  0.37363  0.49631  1.0000
  C   C424      1.0  0.45627  0.10525  0.97948  1.0000
  C   C425      1.0  0.60437  0.39409  0.98895  1.0000
  C   C426      1.0  0.36062  0.01198  0.86363  1.0000
  H   H765      1.0  0.35469  0.32348  0.74193  1.0000
  C   C427      1.0  0.36218  0.29788  0.64211  1.0000
  C   C428      1.0  0.34023  0.31114  0.79524  1.0000
  H   H766      1.0  0.35335  0.04527  0.95575  1.0000
  C   C429      1.0  0.39927  0.21348  0.57088  1.0000
  Fe  Fe48      1.0  0.35973  0.48443  0.82535  1.0000
  C   C430      1.0  0.35875  0.01536  0.93030  1.0000
  H   H767      1.0  0.32983  0.20139  0.77363  1.0000
  H   H768      1.0  0.35347  0.05449  0.85182  1.0000
  N   N26       1.0  0.61873  0.46447  0.97649  1.0000
  C   C431      1.0  0.39734  0.21398  0.52944  1.0000
  C   C432      1.0  0.33722  0.48676  0.67824  1.0000
  H   H769      1.0  0.33054  0.23157  0.72840  1.0000
  H   H770      1.0  0.63817  0.01674  0.50861  1.0000
  H   H771      1.0  0.35963  0.24543  0.75373  1.0000
  H   H772      1.0  0.41696  0.46020  0.81381  1.0000
  H   H773      1.0  0.33506  0.34334  0.78067  1.0000
  C   C433      1.0  0.34203  0.30473  0.75499  1.0000
  H   H774      1.0  0.33814  0.00571  0.92349  1.0000
  C   C434      1.0  0.33445  0.26134  0.76616  1.0000
  H   H775      1.0  0.43715  0.45211  0.74471  1.0000
  H   H776      1.0  0.38238  0.04687  0.96871  1.0000
  H   H777      1.0  0.40759  0.23385  0.51911  1.0000
  H   H778      1.0  0.49783  0.47969  0.72701  1.0000
  H   H779      1.0  0.45210  0.04733  0.90175  1.0000
  H   H780      1.0  0.55090  0.45993  0.94209  1.0000
  C   C435      1.0  0.42435  0.48052  0.82074  1.0000
  H   H781      1.0  0.58519  0.42697  0.98069  1.0000
  H   H782      1.0  0.34599  0.08620  0.88293  1.0000
  H   H783      1.0  0.46237  0.49122  0.80437  1.0000
  H   H784      1.0  0.32891  0.00564  0.99261  1.0000
  H   H785      1.0  0.40927  0.48534  0.81461  1.0000
  H   H786      1.0  0.64698  0.16848  0.57082  1.0000
  H   H787      1.0  0.34189  0.01111  0.86141  1.0000
  H   H788      1.0  0.56044  0.47025  0.89593  1.0000
  H   H789      1.0  0.32881  0.27040  0.69884  1.0000
  C   C436      1.0  0.33189  0.49516  0.71539  1.0000
  H   H790      1.0  0.42715  0.99837  0.70006  1.0000
  C   C437      1.0  0.56707  0.47313  0.92455  1.0000
  H   H791      1.0  0.37708  0.20533  0.52140  1.0000
  H   H792      1.0  0.55116  0.49407  0.72866  1.0000
  C   C438      1.0  0.54345  0.49232  0.75655  1.0000
  C   C439      1.0  0.32681  0.21718  0.78272  1.0000
  Fe  Fe49      1.0  0.65861  0.11355  0.63890  1.0000
  H   H793      1.0  0.60749  0.49319  0.97309  1.0000
  H   H794      1.0  0.57316  0.49308  0.93220  1.0000
  S   S98       1.0  0.61603  0.53302  0.19288  1.0000
  S   S99       1.0  0.64587  0.59372  0.25636  1.0000
  H   H795      1.0  0.34416  0.51547  0.26997  1.0000
  C   C440      1.0  0.32917  0.51812  0.28322  1.0000
  S   S100      1.0  0.35958  0.88987  0.33136  1.0000
  C   C441      1.0  0.54653  0.65540  0.48497  1.0000
  Fe  Fe50      1.0  0.34554  0.85626  0.29413  1.0000
  S   S101      1.0  0.36986  0.85180  0.25063  1.0000
  C   C442      1.0  0.61745  0.71305  0.27335  1.0000
  Fe  Fe51      1.0  0.52423  0.87281  0.15084  1.0000
  S   S102      1.0  0.56244  0.87831  0.16680  1.0000
  S   S103      1.0  0.50705  0.86840  0.09375  1.0000
  Fe  Fe52      1.0  0.50882  0.87154  0.23113  1.0000
  S   S104      1.0  0.54625  0.87684  0.25183  1.0000
  S   S105      1.0  0.48123  0.86896  0.27539  1.0000
  Fe  Fe53      1.0  0.56359  0.90686  0.20798  1.0000
  S   S106      1.0  0.59833  0.94726  0.21199  1.0000
  Fe  Fe54      1.0  0.54153  0.84771  0.20970  1.0000
  S   S107      1.0  0.54745  0.81259  0.21351  1.0000
  S   S108      1.0  0.52636  0.90274  0.18948  1.0000
  S   S109      1.0  0.50313  0.84101  0.19148  1.0000
  Fe  Fe55      1.0  0.54274  0.64013  0.30466  1.0000
  S   S110      1.0  0.52018  0.61391  0.35014  1.0000
  S   S111      1.0  0.56079  0.62737  0.26027  1.0000
  Fe  Fe56      1.0  0.52642  0.67970  0.32510  1.0000
  S   S112      1.0  0.50247  0.65534  0.37233  1.0000
  S   S113      1.0  0.52940  0.71933  0.31861  1.0000
  Fe  Fe57      1.0  0.53498  0.64880  0.38533  1.0000
  S   S114      1.0  0.54763  0.64301  0.44159  1.0000
  Fe  Fe58      1.0  0.48922  0.62203  0.33431  1.0000
  S   S115      1.0  0.44870  0.58889  0.33811  1.0000
  S   S116      1.0  0.56012  0.67493  0.34057  1.0000
  S   S117      1.0  0.51051  0.64643  0.28633  1.0000
  S   S118      1.0  0.39017  0.51596  0.20561  1.0000
  C   C443      1.0  0.43325  0.56830  0.30121  1.0000
  C   C444      1.0  0.44272  0.57450  0.26573  1.0000
  C   C445      1.0  0.42926  0.55823  0.23679  1.0000
  C   C446      1.0  0.40636  0.53556  0.24307  1.0000
  C   C447      1.0  0.39717  0.52907  0.27864  1.0000
  C   C448      1.0  0.41045  0.54549  0.30755  1.0000
  H   H796      1.0  0.46020  0.59205  0.26049  1.0000
  H   H797      1.0  0.43655  0.56335  0.20933  1.0000
  H   H798      1.0  0.37994  0.51138  0.28387  1.0000
  H   H799      1.0  0.40308  0.54051  0.33497  1.0000
  H   H800      1.0  0.52927  0.83559  0.32962  1.0000
  C   C449      1.0  0.35618  0.56472  0.27308  1.0000
  H   H801      1.0  0.58172  0.96457  0.37643  1.0000
  H   H802      1.0  0.53315  0.68035  0.46624  1.0000
  H   H803      1.0  0.34329  0.51778  0.21034  1.0000
  C   C450      1.0  0.54095  0.78647  0.24340  1.0000
  C   C451      1.0  0.53897  0.76413  0.22852  1.0000
  C   C452      1.0  0.53459  0.74321  0.25078  1.0000
  C   C453      1.0  0.53282  0.74442  0.28864  1.0000
  C   C454      1.0  0.53453  0.76668  0.30354  1.0000
  C   C455      1.0  0.53844  0.78746  0.28120  1.0000
  H   H804      1.0  0.54071  0.76295  0.19940  1.0000
  H   H805      1.0  0.53263  0.72619  0.23853  1.0000
  H   H806      1.0  0.53327  0.76805  0.33272  1.0000
  H   H807      1.0  0.54030  0.80454  0.29333  1.0000
  C   C456      1.0  0.54680  0.88352  0.04343  1.0000
  C   C457      1.0  0.52099  0.87509  0.04935  1.0000
  C   C458      1.0  0.50541  0.87146  0.01897  1.0000
  H   H808      1.0  0.55907  0.88648  0.06642  1.0000
  H   H809      1.0  0.48543  0.86495  0.02313  1.0000
  C   C459      1.0  0.59341  0.97210  0.27328  1.0000
  C   C460      1.0  0.60708  0.97371  0.24166  1.0000
  C   C461      1.0  0.48749  0.53793  0.26072  1.0000
  H   H810      1.0  0.57677  0.95426  0.28037  1.0000
  C   C462      1.0  0.56478  0.55543  0.34465  1.0000
  C   C463      1.0  0.40117  0.85765  0.25789  1.0000
  C   C464      1.0  0.41544  0.85709  0.22805  1.0000
  C   C465      1.0  0.44025  0.86114  0.23277  1.0000
  C   C466      1.0  0.45087  0.86552  0.26755  1.0000
  C   C467      1.0  0.43666  0.86624  0.29734  1.0000
  C   C468      1.0  0.41198  0.86249  0.29255  1.0000
  H   H811      1.0  0.40713  0.85318  0.20119  1.0000
  H   H812      1.0  0.45096  0.86044  0.20965  1.0000
  H   H813      1.0  0.44475  0.86960  0.32434  1.0000
  H   H814      1.0  0.40119  0.86298  0.31571  1.0000
  C   C469      1.0  0.59899  0.77235  0.30670  1.0000
  C   C470      1.0  0.58061  0.69546  0.23298  1.0000
  C   C471      1.0  0.62095  0.60135  0.25791  1.0000
  C   C472      1.0  0.61820  0.61335  0.28900  1.0000
  C   C473      1.0  0.59947  0.62077  0.29074  1.0000
  C   C474      1.0  0.58341  0.61661  0.26111  1.0000
  C   C475      1.0  0.58598  0.60436  0.23020  1.0000
  C   C476      1.0  0.60446  0.59662  0.22866  1.0000
  H   H815      1.0  0.63086  0.61720  0.31179  1.0000
  H   H816      1.0  0.59784  0.63020  0.31470  1.0000
  H   H817      1.0  0.57381  0.60116  0.20699  1.0000
  H   H818      1.0  0.58739  0.68873  0.20958  1.0000
  C   C477      1.0  0.62627  0.53897  0.01387  1.0000
  C   C478      1.0  0.35227  0.97784  0.25246  1.0000
  C   C479      1.0  0.35602  0.96125  0.27530  1.0000
  C   C480      1.0  0.37984  0.97035  0.29157  1.0000
  H   H819      1.0  0.46930  0.72877  0.35528  1.0000
  H   H820      1.0  0.38308  0.95797  0.30932  1.0000
  H   H821      1.0  0.62818  0.67895  0.30965  1.0000
  H   H822      1.0  0.55967  0.54180  0.36746  1.0000
  H   H823      1.0  0.33825  0.55359  0.15577  1.0000
  H   H824      1.0  0.60669  0.53424  0.01759  1.0000
  H   H825      1.0  0.35101  0.59125  0.30784  1.0000
  H   H826      1.0  0.50013  0.55255  0.31551  1.0000
  C   C481      1.0  0.47248  0.59685  0.43319  1.0000
  H   H827      1.0  0.59648  0.53800  0.35593  1.0000
  H   H828      1.0  0.51640  0.57511  0.27944  1.0000
  Fe  Fe59      1.0  0.32695  0.89347  0.30907  1.0000
  C   C482      1.0  0.64093  0.68884  0.28620  1.0000
  H   H829      1.0  0.63701  0.55621  0.31905  1.0000
  Fe  Fe60      1.0  0.33138  0.86236  0.37242  1.0000
  H   H830      1.0  0.63832  0.75831  0.15012  1.0000
  H   H831      1.0  0.48660  0.76709  0.25191  1.0000
  H   H832      1.0  0.60644  0.58768  0.20438  1.0000
  H   H833      1.0  0.55666  0.53215  0.17147  1.0000
  H   H834      1.0  0.46401  0.51014  0.30171  1.0000
  N   N27       1.0  0.55862  0.51993  0.29883  1.0000
  H   H835      1.0  0.46008  0.74958  0.37713  1.0000
  C   C483      1.0  0.36165  0.58067  0.30834  1.0000
  H   H836      1.0  0.64032  0.70486  0.23446  1.0000
  H   H837      1.0  0.48436  0.58096  0.47567  1.0000
  H   H838      1.0  0.49835  0.80332  0.28894  1.0000
  H   H839      1.0  0.47046  0.58213  0.41343  1.0000
  H   H840      1.0  0.49153  0.61380  0.42927  1.0000
  C   C484      1.0  0.60157  0.99349  0.29618  1.0000
  H   H841      1.0  0.62201  0.75476  0.31020  1.0000
  H   H842      1.0  0.53428  0.53629  0.30549  1.0000
  H   H843      1.0  0.56481  0.55780  0.28727  1.0000
  H   H844      1.0  0.36025  0.57864  0.25058  1.0000
  H   H845      1.0  0.55977  0.71252  0.20561  1.0000
  H   H846      1.0  0.62550  0.77208  0.26851  1.0000
  H   H847      1.0  0.54957  0.54330  0.23299  1.0000
  H   H848      1.0  0.57934  0.73848  0.25380  1.0000
  N   N28       1.0  0.32987  0.54181  0.26883  1.0000
  C   C485      1.0  0.55397  0.57286  0.35380  1.0000
  H   H849      1.0  0.53340  0.56144  0.36026  1.0000
  H   H850      1.0  0.61099  0.67722  0.24753  1.0000
  C   C486      1.0  0.58654  0.52779  0.29791  1.0000
  N   N29       1.0  0.60210  0.71993  0.24804  1.0000
  H   H851      1.0  0.39646  0.61310  0.28745  1.0000
  H   H852      1.0  0.57891  0.72091  0.29209  1.0000
  H   H853      1.0  0.63469  0.73042  0.28298  1.0000
  H   H854      1.0  0.39321  0.61189  0.33630  1.0000
  C   C487      1.0  0.45623  0.77732  0.24664  1.0000
  S   S119      1.0  0.33028  0.92965  0.28276  1.0000
  H   H855      1.0  0.49262  0.76342  0.18656  1.0000
  H   H856      1.0  0.55661  0.58587  0.33080  1.0000
  C   C488      1.0  0.38988  0.60024  0.31150  1.0000
  H   H857      1.0  0.59697  0.82197  0.04041  1.0000
  H   H858      1.0  0.51890  0.85839  0.31982  1.0000
  H   H859      1.0  0.35706  0.92845  0.16635  1.0000
  H   H860      1.0  0.59416  0.73294  0.17335  1.0000
  C   C489      1.0  0.47998  0.77654  0.23263  1.0000
  Fe  Fe61      1.0  0.64983  0.56576  0.21862  1.0000
  H   H861      1.0  0.64104  0.49562  0.01292  1.0000
  H   H862      1.0  0.50210  0.53218  0.25690  1.0000
  H   H863      1.0  0.58920  0.77789  0.28609  1.0000
  H   H864      1.0  0.58580  0.56750  0.34328  1.0000
  H   H865      1.0  0.36309  0.55168  0.20802  1.0000
  H   H866      1.0  0.60617  0.70355  0.29823  1.0000
  C   C490      1.0  0.44402  0.49918  0.21340  1.0000
  C   C491      1.0  0.54780  0.96756  0.19862  1.0000
  C   C492      1.0  0.55601  0.69546  0.22137  1.0000
  C   C493      1.0  0.33308  0.51721  0.32466  1.0000
  H   H867      1.0  0.58499  0.75993  0.32753  1.0000
  H   H868      1.0  0.57838  0.54159  0.23064  1.0000
  C   C494      1.0  0.62695  0.69545  0.25739  1.0000
  H   H869      1.0  0.35061  0.53243  0.14721  1.0000
  H   H870      1.0  0.55305  0.96358  0.22577  1.0000
  N   N30       1.0  0.40429  0.94155  0.20361  1.0000
  C   C495      1.0  0.37732  0.92037  0.20967  1.0000
  C   C496      1.0  0.41905  0.94814  0.23886  1.0000
  C   C497      1.0  0.40292  0.96465  0.19092  1.0000
  C   C498      1.0  0.41765  0.93500  0.17443  1.0000
  C   C499      1.0  0.41995  0.91096  0.18094  1.0000
  S   S120      1.0  0.65346  0.51082  0.16959  1.0000
  H   H871      1.0  0.49097  0.62452  0.49461  1.0000
  C   C500      1.0  0.41261  0.92609  0.26596  1.0000
  C   C501      1.0  0.43182  0.93438  0.29692  1.0000
  C   C502      1.0  0.43060  0.90459  0.14733  1.0000
  C   C503      1.0  0.47492  0.76281  0.19620  1.0000
  H   H872      1.0  0.48449  0.56705  0.29167  1.0000
  H   H873      1.0  0.36822  0.92585  0.23162  1.0000
  H   H874      1.0  0.37669  0.90280  0.21987  1.0000
  H   H875      1.0  0.43987  0.95812  0.23324  1.0000
  H   H876      1.0  0.41561  0.96174  0.25483  1.0000
  H   H877      1.0  0.38933  0.96741  0.20826  1.0000
  H   H878      1.0  0.39533  0.96184  0.16276  1.0000
  H   H879      1.0  0.40849  0.93316  0.14758  1.0000
  H   H880      1.0  0.43743  0.95079  0.17067  1.0000
  H   H881      1.0  0.40133  0.89407  0.18730  1.0000
  H   H882      1.0  0.43342  0.91433  0.20344  1.0000
  H   H883      1.0  0.35295  0.53125  0.33188  1.0000
  H   H884      1.0  0.36729  0.90610  0.15354  1.0000
  Fe  Fe62      1.0  0.63008  0.50858  0.21825  1.0000
  H   H885      1.0  0.40133  0.59059  0.31369  1.0000
  H   H886      1.0  0.39372  0.92000  0.27812  1.0000
  H   H887      1.0  0.41181  0.90932  0.25294  1.0000
  H   H888      1.0  0.43264  0.95074  0.31173  1.0000
  H   H889      1.0  0.42597  0.91836  0.31642  1.0000
  H   H890      1.0  0.45098  0.93966  0.28621  1.0000
  H   H891      1.0  0.44956  0.92074  0.13993  1.0000
  H   H892      1.0  0.43281  0.88777  0.15314  1.0000
  H   H893      1.0  0.41748  0.89999  0.12393  1.0000
  H   H894      1.0  0.59857  0.96287  0.41562  1.0000
  H   H895      1.0  0.57677  0.89478  0.00353  1.0000
  C   C504      1.0  0.58826  0.97219  0.40418  1.0000
  H   H896      1.0  0.64711  0.67591  0.27435  1.0000
  H   H897      1.0  0.64399  0.78350  0.18176  1.0000
  C   C505      1.0  0.55737  0.53020  0.23034  1.0000
  N   N31       1.0  0.45741  0.78768  0.28453  1.0000
  C   C506      1.0  0.48384  0.80916  0.29279  1.0000
  C   C507      1.0  0.43980  0.79870  0.28517  1.0000
  C   C508      1.0  0.44828  0.76674  0.31259  1.0000
  C   C509      1.0  0.48812  0.82031  0.33185  1.0000
  C   C510      1.0  0.41148  0.77999  0.27624  1.0000
  H   H898      1.0  0.44850  0.52317  0.27539  1.0000
  C   C511      1.0  0.39654  0.79409  0.27222  1.0000
  H   H899      1.0  0.48921  0.82500  0.27300  1.0000
  H   H900      1.0  0.44676  0.81495  0.26568  1.0000
  H   H901      1.0  0.43968  0.80672  0.31223  1.0000
  H   H902      1.0  0.44537  0.77365  0.33924  1.0000
  H   H903      1.0  0.42921  0.75084  0.30519  1.0000
  H   H904      1.0  0.47562  0.82836  0.33789  1.0000
  H   H905      1.0  0.48467  0.80552  0.35244  1.0000
  H   H906      1.0  0.40246  0.76590  0.29855  1.0000
  H   H907      1.0  0.40936  0.76965  0.25048  1.0000
  C   C512      1.0  0.35962  0.91250  0.17603  1.0000
  C   C513      1.0  0.42830  0.99037  0.19085  1.0000
  H   H908      1.0  0.62076  0.77508  0.14629  1.0000
  C   C514      1.0  0.62926  0.76738  0.16581  1.0000
  H   H909      1.0  0.37609  0.78029  0.26797  1.0000
  H   H910      1.0  0.39840  0.80539  0.29696  1.0000
  H   H911      1.0  0.40354  0.80701  0.24831  1.0000
  C   C515      1.0  0.46162  0.51528  0.27340  1.0000
  H   H912      1.0  0.62575  0.72521  0.20100  1.0000
  H   H913      1.0  0.56383  0.58457  0.37797  1.0000
  H   H914      1.0  0.54513  0.69484  0.24610  1.0000
  H   H915      1.0  0.57131  0.96737  0.42126  1.0000
  Fe  Fe63      1.0  0.64281  0.53856  0.14605  1.0000
  S   S121      1.0  0.62680  0.53560  0.08857  1.0000
  C   C516      1.0  0.64115  0.54139  0.04460  1.0000
  H   H916      1.0  0.61359  0.78988  0.32029  1.0000
  C   C517      1.0  0.51541  0.84183  0.33690  1.0000
  H   H917      1.0  0.45299  0.78897  0.22599  1.0000
  H   H918      1.0  0.48552  0.76875  0.32125  1.0000
  H   H919      1.0  0.59989  0.75808  0.20505  1.0000
  H   H920      1.0  0.37098  0.55896  0.27044  1.0000
  H   H921      1.0  0.65798  0.70628  0.29596  1.0000
  H   H922      1.0  0.48533  0.54600  0.23472  1.0000
  C   C518      1.0  0.33366  0.86410  0.47500  1.0000
  H   H923      1.0  0.53516  0.65440  0.21251  1.0000
  C   C519      1.0  0.61164  0.75872  0.28863  1.0000
  S   S122      1.0  0.34118  0.85704  0.43108  1.0000
  C   C520      1.0  0.60853  0.74804  0.19096  1.0000
  C   C521      1.0  0.46516  0.75444  0.31835  1.0000
  C   C522      1.0  0.55484  0.54223  0.30751  1.0000
  C   C523      1.0  0.62718  0.53641  0.32970  1.0000
  H   H924      1.0  0.55904  0.96436  0.17745  1.0000
  H   H925      1.0  0.43710  0.72266  0.35089  1.0000
  H   H926      1.0  0.63741  0.75201  0.22945  1.0000
  H   H927      1.0  0.59788  0.54748  0.28691  1.0000
  C   C524      1.0  0.46966  0.58661  0.47196  1.0000
  C   C525      1.0  0.59881  0.52662  0.33443  1.0000
  C   C526      1.0  0.45731  0.73786  0.35256  1.0000
  H   H928      1.0  0.43970  0.75776  0.24428  1.0000
  H   H929      1.0  0.54831  0.67323  0.17175  1.0000
  C   C527      1.0  0.53864  0.67336  0.48967  1.0000
  H   H930      1.0  0.46915  0.77233  0.17545  1.0000
  H   H931      1.0  0.52804  0.50669  0.19127  1.0000
  H   H932      1.0  0.51844  0.84804  0.36573  1.0000
  H   H933      1.0  0.57401  0.68003  0.25379  1.0000
  H   H934      1.0  0.35600  0.56877  0.33318  1.0000
  C   C528      1.0  0.54749  0.51030  0.26159  1.0000
  H   H935      1.0  0.45768  0.60207  0.42717  1.0000
  C   C529      1.0  0.54908  0.51743  0.19322  1.0000
  C   C530      1.0  0.59167  0.73369  0.27027  1.0000
  H   H936      1.0  0.46287  0.74184  0.29508  1.0000
  C   C531      1.0  0.49768  0.55938  0.28861  1.0000
  C   C532      1.0  0.53904  0.67219  0.19828  1.0000
  H   H937      1.0  0.52064  0.67149  0.19309  1.0000
  H   H938      1.0  0.48788  0.79727  0.00995  1.0000
  H   H939      1.0  0.63570  0.53615  0.35630  1.0000
  H   H940      1.0  0.45988  0.74262  0.19912  1.0000
  H   H941      1.0  0.49572  0.79617  0.22826  1.0000
  H   H942      1.0  0.52735  0.95393  0.19409  1.0000
  C   C533      1.0  0.33695  0.53531  0.16395  1.0000
  C   C534      1.0  0.34346  0.53576  0.20418  1.0000
  C   C535      1.0  0.55677  0.88819  0.00767  1.0000
  C   C536      1.0  0.61953  0.73634  0.21794  1.0000
  H   H943      1.0  0.33396  0.97112  0.23974  1.0000
  H   H944      1.0  0.45066  0.56937  0.47411  1.0000
  H   H945      1.0  0.58313  0.79235  0.01598  1.0000
  H   H946      1.0  0.63009  0.52389  0.31066  1.0000
  H   H947      1.0  0.44360  0.98906  0.17625  1.0000
  C   C537      1.0  0.55242  0.99470  0.19676  1.0000
  H   H948      1.0  0.59009  0.51570  0.27857  1.0000
  H   H949      1.0  0.43242  0.50855  0.21741  1.0000
  H   H950      1.0  0.46158  0.51373  0.19954  1.0000
  H   H951      1.0  0.55659  0.50424  0.18855  1.0000
  H   H952      1.0  0.59099  0.99182  0.32070  1.0000
  H   H953      1.0  0.51795  0.82594  0.01547  1.0000
  H   H954      1.0  0.52647  0.50171  0.26238  1.0000
  H   H955      1.0  0.61122  0.82003  0.99834  1.0000
  H   H956      1.0  0.55870  0.81530  0.00884  1.0000
  C   C538      1.0  0.33321  0.89056  0.18525  1.0000
  C   C539      1.0  0.59288  0.81335  0.01287  1.0000
  H   H957      1.0  0.33439  0.87361  0.19410  1.0000
  H   H958      1.0  0.44162  0.50322  0.13845  1.0000
  H   H959      1.0  0.59033  0.50679  0.34451  1.0000
  H   H960      1.0  0.55124  0.50409  0.35357  1.0000
  C   C540      1.0  0.54359  0.49873  0.32567  1.0000
  H   H961      1.0  0.45745  0.61164  0.49367  1.0000
  S   S123      1.0  0.61913  0.53043  0.85107  1.0000
  S   S124      1.0  0.63052  0.57510  0.76218  1.0000
  C   C541      1.0  0.52411  0.74854  0.54574  1.0000
  Fe  Fe64      1.0  0.34613  0.89946  0.71975  1.0000
  S   S125      1.0  0.36275  0.89213  0.66938  1.0000
  S   S126      1.0  0.37056  0.93376  0.75678  1.0000
  Fe  Fe65      1.0  0.35271  0.85464  0.69523  1.0000
  S   S127      1.0  0.38068  0.84005  0.69432  1.0000
  C   C542      1.0  0.53919  0.80549  0.66896  1.0000
  Fe  Fe66      1.0  0.49024  0.86126  0.82728  1.0000
  S   S128      1.0  0.51234  0.86560  0.77612  1.0000
  S   S129      1.0  0.44871  0.85033  0.83129  1.0000
  Fe  Fe67      1.0  0.53654  0.88103  0.87618  1.0000
  S   S130      1.0  0.56230  0.88765  0.82774  1.0000
  S   S131      1.0  0.55479  0.89020  0.93279  1.0000
  Fe  Fe68      1.0  0.54074  0.90406  0.79891  1.0000
  S   S132      1.0  0.55149  0.93772  0.75961  1.0000
  Fe  Fe69      1.0  0.53210  0.84872  0.80869  1.0000
  S   S133      1.0  0.54714  0.82244  0.78814  1.0000
  S   S134      1.0  0.51735  0.90018  0.84864  1.0000
  S   S135      1.0  0.50770  0.84155  0.85861  1.0000
  Fe  Fe70      1.0  0.54266  0.64307  0.72574  1.0000
  S   S136      1.0  0.52537  0.62630  0.67133  1.0000
  S   S137      1.0  0.55918  0.62562  0.76586  1.0000
  Fe  Fe71      1.0  0.51763  0.67758  0.72760  1.0000
  S   S138      1.0  0.49810  0.66155  0.67434  1.0000
  S   S139      1.0  0.50539  0.70364  0.75677  1.0000
  Fe  Fe72      1.0  0.48962  0.62325  0.69444  1.0000
  S   S140      1.0  0.45274  0.58693  0.68258  1.0000
  Fe  Fe73      1.0  0.53524  0.66607  0.65481  1.0000
  S   S141      1.0  0.54429  0.68587  0.59919  1.0000
  S   S142      1.0  0.50606  0.63832  0.74922  1.0000
  S   S143      1.0  0.55559  0.68381  0.70779  1.0000
  S   S144      1.0  0.39206  0.52513  0.82253  1.0000
  C   C543      1.0  0.43460  0.56989  0.72080  1.0000
  C   C544      1.0  0.43830  0.58184  0.75444  1.0000
  C   C545      1.0  0.42463  0.56789  0.78508  1.0000
  C   C546      1.0  0.40714  0.54186  0.78244  1.0000
  C   C547      1.0  0.40323  0.52980  0.74875  1.0000
  C   C548      1.0  0.41668  0.54390  0.71783  1.0000
  H   H962      1.0  0.45170  0.60190  0.75694  1.0000
  H   H963      1.0  0.42780  0.57731  0.81109  1.0000
  H   H964      1.0  0.62475  0.54073  0.95507  1.0000
  H   H965      1.0  0.41385  0.53450  0.69189  1.0000
  C   C549      1.0  0.36106  0.80607  0.84280  1.0000
  C   C550      1.0  0.54524  0.67367  0.55560  1.0000
  C   C551      1.0  0.55299  0.65562  0.55088  1.0000
  C   C552      1.0  0.58571  0.75200  0.66856  1.0000
  H   H966      1.0  0.55892  0.64894  0.57419  1.0000
  C   C553      1.0  0.53483  0.78935  0.77888  1.0000
  C   C554      1.0  0.50902  0.77129  0.78223  1.0000
  C   C555      1.0  0.50048  0.74528  0.77540  1.0000
  C   C556      1.0  0.51747  0.73687  0.76480  1.0000
  C   C557      1.0  0.54322  0.75497  0.76103  1.0000
  C   C558      1.0  0.55178  0.78095  0.76800  1.0000
  H   H967      1.0  0.49567  0.77730  0.79051  1.0000
  H   H968      1.0  0.48051  0.73155  0.77849  1.0000
  H   H969      1.0  0.55662  0.74893  0.75320  1.0000
  H   H970      1.0  0.57178  0.79466  0.76531  1.0000
  C   C559      1.0  0.56618  0.50456  0.78227  1.0000
  H   H971      1.0  0.36874  0.80412  0.81633  1.0000
  H   H972      1.0  0.59539  0.57538  0.81766  1.0000
  C   C560      1.0  0.54115  0.88444  0.97730  1.0000
  H   H973      1.0  0.50310  0.87319  0.96025  1.0000
  C   C561      1.0  0.35528  0.98414  0.86214  1.0000
  C   C562      1.0  0.57694  0.96979  0.75723  1.0000
  C   C563      1.0  0.50578  0.73203  0.66258  1.0000
  H   H974      1.0  0.56142  0.97833  0.71001  1.0000
  H   H975      1.0  0.35395  0.56392  0.60839  1.0000
  C   C564      1.0  0.40031  0.84433  0.73217  1.0000
  C   C565      1.0  0.42141  0.84079  0.72807  1.0000
  C   C566      1.0  0.43717  0.84369  0.75789  1.0000
  C   C567      1.0  0.43148  0.84949  0.79220  1.0000
  C   C568      1.0  0.41057  0.85328  0.79616  1.0000
  C   C569      1.0  0.39522  0.85104  0.76621  1.0000
  H   H976      1.0  0.42555  0.83573  0.70174  1.0000
  H   H977      1.0  0.45318  0.84060  0.75459  1.0000
  H   H978      1.0  0.40625  0.85788  0.82265  1.0000
  H   H979      1.0  0.37931  0.85416  0.76959  1.0000
  C   C570      1.0  0.53826  0.68261  0.52476  1.0000
  C   C571      1.0  0.52923  0.82171  0.68661  1.0000
  C   C572      1.0  0.57735  0.60977  0.76292  1.0000
  C   C573      1.0  0.59128  0.61096  0.73187  1.0000
  C   C574      1.0  0.60695  0.59976  0.73199  1.0000
  C   C575      1.0  0.60867  0.58686  0.76286  1.0000
  C   C576      1.0  0.59418  0.58503  0.79360  1.0000
  C   C577      1.0  0.57880  0.59657  0.79367  1.0000
  H   H980      1.0  0.59056  0.62113  0.70807  1.0000
  H   H981      1.0  0.61810  0.60140  0.70807  1.0000
  H   H982      1.0  0.56831  0.59569  0.81798  1.0000
  H   H983      1.0  0.48800  0.61342  0.82512  1.0000
  H   H984      1.0  0.57831  0.52500  0.77531  1.0000
  C   C578      1.0  0.37893  0.96646  0.75889  1.0000
  C   C579      1.0  0.36767  0.97688  0.73667  1.0000
  H   H985      1.0  0.50390  0.74321  0.54177  1.0000
  H   H986      1.0  0.35358  0.96500  0.71692  1.0000
  Fe  Fe74      1.0  0.63974  0.55019  0.79957  1.0000
  C   C580      1.0  0.45902  0.52584  0.80757  1.0000
  C   C581      1.0  0.49013  0.57148  0.79725  1.0000
  H   H987      1.0  0.44195  0.56007  0.53291  1.0000
  H   H988      1.0  0.61957  0.88003  0.87814  1.0000
  C   C582      1.0  0.51884  0.77679  0.67061  1.0000
  C   C583      1.0  0.33617  0.96912  0.83231  1.0000
  H   H989      1.0  0.63809  0.68454  0.80692  1.0000
  C   C584      1.0  0.55377  0.64669  0.51578  1.0000
  H   H990      1.0  0.59839  0.89236  0.88783  1.0000
  H   H991      1.0  0.56014  0.63298  0.51242  1.0000
  H   H992      1.0  0.46010  0.64591  0.61281  1.0000
  H   H993      1.0  0.46421  0.68308  0.65199  1.0000
  H   H994      1.0  0.53180  0.59060  0.61256  1.0000
  H   H995      1.0  0.44374  0.53048  0.80195  1.0000
  H   H996      1.0  0.42425  0.87019  0.62840  1.0000
  C   C585      1.0  0.49105  0.59147  0.54586  1.0000
  H   H997      1.0  0.33431  0.94999  0.82977  1.0000
  C   C586      1.0  0.42589  0.88901  0.63364  1.0000
  H   H998      1.0  0.43568  0.90175  0.61016  1.0000
  C   C587      1.0  0.55160  0.76462  0.66257  1.0000
  C   C588      1.0  0.43755  0.56974  0.58745  1.0000
  H   H999      1.0  0.60872  0.85817  0.93863  1.0000
  H   H1000     1.0  0.64684  0.49769  0.94755  1.0000
  N   N32       1.0  0.52522  0.75867  0.65109  1.0000
  H   H1001     1.0  0.37515  0.56332  0.64222  1.0000
  H   H1002     1.0  0.50586  0.76118  0.60315  1.0000
  H   H1003     1.0  0.62595  0.90161  0.91557  1.0000
  S   S145      1.0  0.63647  0.51495  0.77376  1.0000
  H   H1004     1.0  0.52206  0.55369  0.78003  1.0000
  C   C589      1.0  0.40982  0.54880  0.59116  1.0000
  C   C590      1.0  0.47702  0.62233  0.56247  1.0000
  H   H1005     1.0  0.41899  0.95467  0.71107  1.0000
  C   C591      1.0  0.33481  0.53883  0.65415  1.0000
  C   C592      1.0  0.33998  0.85473  0.50605  1.0000
  H   H1006     1.0  0.50104  0.77528  0.65964  1.0000
  C   C593      1.0  0.49642  0.60508  0.84367  1.0000
  N   N33       1.0  0.55575  0.81792  0.92808  1.0000
  C   C594      1.0  0.53855  0.82544  0.94765  1.0000
  C   C595      1.0  0.57442  0.84013  0.90512  1.0000
  C   C596      1.0  0.53941  0.79650  0.90245  1.0000
  C   C597      1.0  0.56922  0.80897  0.95380  1.0000
  H   H1007     1.0  0.54797  0.54078  0.82035  1.0000
  C   C598      1.0  0.51542  0.80346  0.96761  1.0000
  C   C599      1.0  0.55366  0.78713  0.87715  1.0000
  H   H1008     1.0  0.43996  0.69107  0.66248  1.0000
  C   C600      1.0  0.57669  0.98586  0.72961  1.0000
  H   H1009     1.0  0.54451  0.84194  0.68711  1.0000
  H   H1010     1.0  0.34761  0.97415  0.88839  1.0000
  C   C601      1.0  0.53608  0.76001  0.86403  1.0000
  H   H1011     1.0  0.53066  0.83386  0.92814  1.0000
  H   H1012     1.0  0.54936  0.84094  0.96733  1.0000
  H   H1013     1.0  0.58502  0.83442  0.88628  1.0000
  H   H1014     1.0  0.56401  0.84687  0.88728  1.0000
  H   H1015     1.0  0.52805  0.80207  0.88460  1.0000
  H   H1016     1.0  0.52532  0.77961  0.91812  1.0000
  H   H1017     1.0  0.52165  0.50980  0.83200  1.0000
  H   H1018     1.0  0.58708  0.81170  0.94097  1.0000
  H   H1019     1.0  0.57779  0.99134  0.84391  1.0000
  H   H1020     1.0  0.51152  0.56461  0.58310  1.0000
  H   H1021     1.0  0.50039  0.79191  0.94756  1.0000
  H   H1022     1.0  0.49575  0.82417  0.98102  1.0000
  H   H1023     1.0  0.57003  0.78734  0.89088  1.0000
  H   H1024     1.0  0.56093  0.79963  0.85277  1.0000
  H   H1025     1.0  0.53358  0.50361  0.75798  1.0000
  H   H1026     1.0  0.56627  0.78038  0.64566  1.0000
  H   H1027     1.0  0.59707  0.76504  0.64612  1.0000
  H   H1028     1.0  0.51649  0.72455  0.59227  1.0000
  H   H1029     1.0  0.62619  0.63163  0.83368  1.0000
  C   C602      1.0  0.48472  0.57659  0.83673  1.0000
  C   C603      1.0  0.50333  0.59587  0.58412  1.0000
  C   C604      1.0  0.33697  0.54080  0.81266  1.0000
  H   H1030     1.0  0.50736  0.72990  0.69229  1.0000
  C   C605      1.0  0.34111  0.52996  0.77746  1.0000
  H   H1031     1.0  0.51871  0.75846  0.85154  1.0000
  H   H1032     1.0  0.54603  0.75474  0.84334  1.0000
  H   H1033     1.0  0.53045  0.74636  0.88706  1.0000
  H   H1034     1.0  0.33603  0.55307  0.70776  1.0000
  H   H1035     1.0  0.39612  0.81465  0.87001  1.0000
  H   H1036     1.0  0.54459  0.81224  0.64059  1.0000
  H   H1037     1.0  0.53240  0.69670  0.52803  1.0000
  H   H1038     1.0  0.45322  0.66350  0.57947  1.0000
  H   H1039     1.0  0.49250  0.60826  0.87212  1.0000
  C   C606      1.0  0.59525  0.86326  0.92586  1.0000
  H   H1040     1.0  0.54915  0.74960  0.58733  1.0000
  H   H1041     1.0  0.64774  0.62992  0.88623  1.0000
  H   H1042     1.0  0.33089  0.82847  0.87294  1.0000
  H   H1043     1.0  0.47158  0.55003  0.67505  1.0000
  C   C607      1.0  0.53131  0.53037  0.83864  1.0000
  H   H1044     1.0  0.50476  0.56920  0.66402  1.0000
  C   C608      1.0  0.45946  0.63391  0.55691  1.0000
  H   H1045     1.0  0.46388  0.56781  0.84120  1.0000
  H   H1046     1.0  0.44925  0.56209  0.59901  1.0000
  H   H1047     1.0  0.59203  0.76205  0.69498  1.0000
  H   H1048     1.0  0.43976  0.58596  0.60404  1.0000
  C   C609      1.0  0.55698  0.98331  0.84714  1.0000
  C   C610      1.0  0.52901  0.74490  0.58550  1.0000
  H   H1049     1.0  0.47695  0.61831  0.59198  1.0000
  H   H1050     1.0  0.49226  0.53635  0.67636  1.0000
  H   H1051     1.0  0.62942  0.67248  0.85303  1.0000
  H   H1052     1.0  0.58924  0.73567  0.66873  1.0000
  H   H1053     1.0  0.50040  0.52084  0.78324  1.0000
  H   H1054     1.0  0.47446  0.72468  0.62517  1.0000
  H   H1055     1.0  0.47158  0.73579  0.66957  1.0000
  H   H1056     1.0  0.59762  0.96769  0.80331  1.0000
  H   H1057     1.0  0.55174  0.73138  0.63733  1.0000
  H   H1058     1.0  0.48912  0.58683  0.60606  1.0000
  H   H1059     1.0  0.55543  0.77177  0.69098  1.0000
  C   C611      1.0  0.52430  0.76262  0.61071  1.0000
  C   C612      1.0  0.61071  0.88559  0.90013  1.0000
  C   C613      1.0  0.55742  0.74235  0.66283  1.0000
  H   H1060     1.0  0.40637  0.88613  0.63615  1.0000
  C   C614      1.0  0.52185  0.58562  0.58599  1.0000
  N   N34       1.0  0.45293  0.93676  0.71494  1.0000
  C   C615      1.0  0.45929  0.96425  0.71488  1.0000
  C   C616      1.0  0.47672  0.93527  0.72239  1.0000
  C   C617      1.0  0.44417  0.92669  0.67691  1.0000
  C   C618      1.0  0.43198  0.92046  0.74156  1.0000
  C   C619      1.0  0.43050  0.93342  0.77719  1.0000
  H   H1061     1.0  0.53823  0.53284  0.86710  1.0000
  C   C620      1.0  0.44078  0.90009  0.66871  1.0000
  C   C621      1.0  0.49119  0.94664  0.75857  1.0000
  C   C622      1.0  0.48592  0.92638  0.78760  1.0000
  C   C623      1.0  0.41101  0.91415  0.80374  1.0000
  H   H1062     1.0  0.48532  0.66939  0.58434  1.0000
  H   H1063     1.0  0.63498  0.64373  0.78804  1.0000
  C   C624      1.0  0.50364  0.81343  0.99521  1.0000
  H   H1064     1.0  0.35411  0.54777  0.83007  1.0000
  H   H1065     1.0  0.47267  0.91524  0.72152  1.0000
  H   H1066     1.0  0.49068  0.94494  0.69991  1.0000
  H   H1067     1.0  0.45771  0.94004  0.65619  1.0000
  H   H1068     1.0  0.42554  0.92546  0.67108  1.0000
  H   H1069     1.0  0.41291  0.91275  0.72868  1.0000
  H   H1070     1.0  0.43319  0.90327  0.74908  1.0000
  H   H1071     1.0  0.42463  0.94771  0.77121  1.0000
  H   H1072     1.0  0.44891  0.94321  0.79142  1.0000
  C   C625      1.0  0.47253  0.60690  0.50024  1.0000
  H   H1073     1.0  0.46258  0.69439  0.69687  1.0000
  H   H1074     1.0  0.43055  0.88673  0.69119  1.0000
  H   H1075     1.0  0.45958  0.90133  0.66523  1.0000
  H   H1076     1.0  0.51189  0.95597  0.75252  1.0000
  H   H1077     1.0  0.48837  0.96182  0.77019  1.0000
  H   H1078     1.0  0.49237  0.91311  0.77790  1.0000
  H   H1079     1.0  0.49666  0.93564  0.81270  1.0000
  H   H1080     1.0  0.46548  0.91511  0.79459  1.0000
  H   H1081     1.0  0.40813  0.92430  0.82675  1.0000
  H   H1082     1.0  0.39242  0.90238  0.79015  1.0000
  H   H1083     1.0  0.41796  0.90167  0.81481  1.0000
  C   C626      1.0  0.46008  0.69638  0.66730  1.0000
  C   C627      1.0  0.65818  0.61959  0.88054  1.0000
  H   H1084     1.0  0.50747  0.60221  0.52706  1.0000
  H   H1085     1.0  0.52071  0.79063  0.98192  1.0000
  H   H1086     1.0  0.52312  0.81548  0.71509  1.0000
  H   H1087     1.0  0.51290  0.82036  0.67107  1.0000
  N   N35       1.0  0.48295  0.54445  0.78760  1.0000
  H   H1088     1.0  0.64524  0.60792  0.82515  1.0000
  H   H1089     1.0  0.55663  0.80927  0.68389  1.0000
  C   C628      1.0  0.47726  0.54090  0.74733  1.0000
  C   C629      1.0  0.47759  0.72372  0.65470  1.0000
  H   H1090     1.0  0.43914  0.61924  0.55941  1.0000
  C   C630      1.0  0.35686  0.56306  0.63806  1.0000
  C   C631      1.0  0.49719  0.56165  0.72162  1.0000
  H   H1091     1.0  0.33891  0.85183  0.56492  1.0000
  H   H1092     1.0  0.52303  0.56071  0.84394  1.0000
  H   H1093     1.0  0.48339  0.57109  0.53879  1.0000
  H   H1094     1.0  0.58711  0.86995  0.94724  1.0000
  C   C632      1.0  0.49097  0.55370  0.68186  1.0000
  C   C633      1.0  0.51290  0.54064  0.83472  1.0000
  H   H1095     1.0  0.53654  0.76860  0.53709  1.0000
  H   H1096     1.0  0.51056  0.58462  0.79100  1.0000
  H   H1097     1.0  0.47946  0.57812  0.77999  1.0000
  H   H1098     1.0  0.45876  0.53999  0.74169  1.0000
  H   H1099     1.0  0.47508  0.52246  0.73808  1.0000
  H   H1100     1.0  0.53886  0.78227  0.60289  1.0000
  H   H1101     1.0  0.54692  0.72903  0.68551  1.0000
  H   H1102     1.0  0.35825  0.54259  0.70095  1.0000
  Fe  Fe75      1.0  0.61789  0.49583  0.82616  1.0000
  C   C634      1.0  0.62769  0.66713  0.82388  1.0000
  H   H1103     1.0  0.51439  0.61649  0.59005  1.0000
  H   H1104     1.0  0.51669  0.56523  0.72681  1.0000
  H   H1105     1.0  0.49725  0.57990  0.72497  1.0000
  H   H1106     1.0  0.50953  0.71757  0.65006  1.0000
  H   H1107     1.0  0.37260  0.78142  0.87027  1.0000
  H   H1108     1.0  0.53648  0.59423  0.56422  1.0000
  H   H1109     1.0  0.51511  0.77160  0.70002  1.0000
  H   H1110     1.0  0.51734  0.61499  0.83944  1.0000
  H   H1111     1.0  0.55754  0.78811  0.95872  1.0000
  H   H1112     1.0  0.35797  0.58015  0.65100  1.0000
  H   H1113     1.0  0.43022  0.58152  0.53537  1.0000
  H   H1114     1.0  0.40642  0.53158  0.57595  1.0000
  H   H1115     1.0  0.37303  0.98381  0.85571  1.0000
  C   C635      1.0  0.57607  0.82132  0.99221  1.0000
  C   C636      1.0  0.63644  0.54258  0.97833  1.0000
  C   C637      1.0  0.37545  0.80094  0.87269  1.0000
  H   H1116     1.0  0.52835  0.73621  0.52816  1.0000
  H   H1117     1.0  0.49667  0.63771  0.55658  1.0000
  S   S146      1.0  0.33842  0.86278  0.74650  1.0000
  C   C638      1.0  0.46494  0.65445  0.58515  1.0000
  C   C639      1.0  0.50467  0.53952  0.79468  1.0000
  N   N36       1.0  0.47114  0.59933  0.53980  1.0000
  H   H1118     1.0  0.36908  0.80336  0.90000  1.0000
  H   H1119     1.0  0.34618  0.51532  0.78512  1.0000
  H   H1120     1.0  0.35755  0.54558  0.76304  1.0000
  H   H1121     1.0  0.46280  0.64308  0.52972  1.0000
  H   H1122     1.0  0.34216  0.79936  0.77145  1.0000
  H   H1123     1.0  0.49222  0.56873  0.85732  1.0000
  C   C640      1.0  0.44477  0.57746  0.54714  1.0000
  H   H1124     1.0  0.34962  0.84386  0.50274  1.0000
  C   C641      1.0  0.43792  0.96912  0.70061  1.0000
  H   H1125     1.0  0.46152  0.52763  0.83747  1.0000
  C   C642      1.0  0.33207  0.78737  0.84537  1.0000
  C   C643      1.0  0.51538  0.87611  0.98321  1.0000
  H   H1126     1.0  0.39037  0.50957  0.74680  1.0000
  H   H1127     1.0  0.40598  0.97453  0.80192  1.0000
  H   H1128     1.0  0.35049  0.50452  0.72944  1.0000
  H   H1129     1.0  0.36536  0.82601  0.84583  1.0000
  H   H1130     1.0  0.60726  0.65767  0.81632  1.0000
  H   H1131     1.0  0.34046  0.83049  0.80430  1.0000
  C   C644      1.0  0.63792  0.64895  0.81722  1.0000
  C   C645      1.0  0.44825  0.49733  0.79843  1.0000
  H   H1132     1.0  0.39691  0.55550  0.58085  1.0000
  C   C646      1.0  0.59704  0.97976  0.78203  1.0000
  H   H1133     1.0  0.54687  0.96734  0.82777  1.0000
  H   H1134     1.0  0.43722  0.96813  0.67042  1.0000
  H   H1135     1.0  0.35302  0.50328  0.66417  1.0000
  C   C647      1.0  0.64205  0.59251  0.89504  1.0000
  H   H1136     1.0  0.34266  0.97899  0.80569  1.0000
  C   C648      1.0  0.33396  0.85925  0.54143  1.0000
  H   H1137     1.0  0.62346  0.58266  0.88084  1.0000
  H   H1138     1.0  0.49660  0.52925  0.85305  1.0000
  C   C649      1.0  0.39717  0.98234  0.78451  1.0000
  H   H1139     1.0  0.46464  0.97273  0.74230  1.0000
  C   C650      1.0  0.33807  0.53727  0.69581  1.0000
  H   H1140     1.0  0.40534  0.54361  0.62034  1.0000
  H   H1141     1.0  0.58620  0.84231  0.99107  1.0000
  H   H1142     1.0  0.47643  0.97587  0.69771  1.0000
  H   H1143     1.0  0.55166  0.97565  0.87523  1.0000
  H   H1144     1.0  0.63849  0.59296  0.92461  1.0000
  H   H1145     1.0  0.33295  0.79143  0.70519  1.0000
  H   H1146     1.0  0.33381  0.52248  0.63942  1.0000
  Fe  Fe76      1.0  0.65757  0.53927  0.87235  1.0000
  H   H1147     1.0  0.33374  0.55696  0.80670  1.0000
  H   H1148     1.0  0.65214  0.58157  0.89123  1.0000
  H   H1149     1.0  0.32966  0.76795  0.84392  1.0000
  H   H1150     1.0  0.55987  0.50298  0.81101  1.0000
  H   H1151     1.0  0.34507  0.86837  0.83706  1.0000
  S   S147      1.0  0.65455  0.50301  0.85138  1.0000
  C   C651      1.0  0.44249  0.99541  0.71138  1.0000
  S   S148      1.0  0.82844  0.46362  0.26337  1.0000
  C   C652      1.0  0.97155  0.39219  0.12414  1.0000
  S   S149      1.0  0.68237  0.11569  0.35055  1.0000
  H   H1152     1.0  0.89254  0.49271  0.40122  1.0000
  H   H1153     1.0  0.87021  0.27742  0.09310  1.0000
  C   C653      1.0  0.93329  0.33694  0.01529  1.0000
  Fe  Fe77      1.0  0.69228  0.14381  0.30368  1.0000
  S   S150      1.0  0.73482  0.17113  0.29040  1.0000
  C   C654      1.0  0.91865  0.31792  0.07535  1.0000
  Fe  Fe78      1.0  0.90665  0.33917  0.19472  1.0000
  S   S151      1.0  0.90869  0.37346  0.16842  1.0000
  S   S152      1.0  0.94534  0.34138  0.20115  1.0000
  Fe  Fe79      1.0  0.84758  0.31126  0.19873  1.0000
  S   S153      1.0  0.84728  0.34495  0.17206  1.0000
  S   S154      1.0  0.80659  0.28095  0.21576  1.0000
  Fe  Fe80      1.0  0.87651  0.34608  0.13292  1.0000
  S   S155      1.0  0.87999  0.35896  0.07324  1.0000
  Fe  Fe81      1.0  0.87949  0.36921  0.20942  1.0000
  S   S156      1.0  0.88859  0.40331  0.24519  1.0000
  S   S157      1.0  0.87554  0.31139  0.15707  1.0000
  S   S158      1.0  0.87880  0.33597  0.23792  1.0000
  C   C655      1.0  0.97038  0.36301  0.23004  1.0000
  H   H1154     1.0  0.98205  0.39963  0.30570  1.0000
  H   H1155     1.0  0.94683  0.37147  0.26451  1.0000
  H   H1156     1.0  0.87486  0.48307  0.19244  1.0000
  C   C656      1.0  0.87405  0.34339  0.03030  1.0000
  H   H1157     1.0  0.92400  0.31667  0.10394  1.0000
  C   C657      1.0  0.86529  0.31732  0.02707  1.0000
  H   H1158     1.0  0.91793  0.34194  0.01518  1.0000
  H   H1159     1.0  0.86054  0.30566  0.05129  1.0000
  C   C658      1.0  0.75431  0.20186  0.26974  1.0000
  C   C659      1.0  0.74432  0.21649  0.25520  1.0000
  C   C660      1.0  0.76057  0.24044  0.23886  1.0000
  C   C661      1.0  0.78711  0.25036  0.23678  1.0000
  C   C662      1.0  0.79711  0.23584  0.25157  1.0000
  C   C663      1.0  0.78086  0.21186  0.26782  1.0000
  H   H1160     1.0  0.72404  0.20924  0.25627  1.0000
  H   H1161     1.0  0.75244  0.25129  0.22750  1.0000
  H   H1162     1.0  0.81737  0.24299  0.25036  1.0000
  H   H1163     1.0  0.78895  0.20088  0.27887  1.0000
  H   H1164     1.0  0.92795  0.47053  0.21699  1.0000
  H   H1165     1.0  0.89723  0.46681  0.21713  1.0000
  H   H1166     1.0  0.90446  0.32451  0.07729  1.0000
  H   H1167     1.0  0.68487  0.12629  0.44941  1.0000
  H   H1168     1.0  0.67341  0.45171  0.14883  1.0000
  C   C664      1.0  0.84430  0.44589  0.25979  1.0000
  C   C665      1.0  0.83763  0.42796  0.23181  1.0000
  C   C666      1.0  0.85060  0.41424  0.22741  1.0000
  C   C667      1.0  0.87015  0.41819  0.25126  1.0000
  C   C668      1.0  0.87640  0.43568  0.27973  1.0000
  C   C669      1.0  0.86357  0.44950  0.28397  1.0000
  H   H1169     1.0  0.82277  0.42512  0.21294  1.0000
  H   H1170     1.0  0.84609  0.40132  0.20485  1.0000
  H   H1171     1.0  0.89147  0.43877  0.29835  1.0000
  H   H1172     1.0  0.86859  0.46295  0.30594  1.0000
  C   C670      1.0  0.98990  0.34998  0.05221  1.0000
  H   H1173     1.0  0.94456  0.42379  0.21731  1.0000
  C   C671      1.0  0.88499  0.27199  0.08815  1.0000
  C   C672      1.0  0.91639  0.47828  0.20479  1.0000
  H   H1174     1.0  0.96790  0.37753  0.05645  1.0000
  H   H1175     1.0  0.96483  0.37446  0.99783  1.0000
  H   H1176     1.0  0.97830  0.43970  0.26257  1.0000
  H   H1177     1.0  0.91905  0.49445  0.32789  1.0000
  H   H1178     1.0  0.97443  0.39259  0.15401  1.0000
  N   N37       1.0  0.68149  0.46815  0.27583  1.0000
  C   C673      1.0  0.96589  0.37497  0.25936  1.0000
  H   H1179     1.0  0.74740  0.20758  0.47176  1.0000
  C   C674      1.0  0.98594  0.39093  0.28275  1.0000
  C   C675      1.0  0.95585  0.36461  0.11175  1.0000
  H   H1180     1.0  0.69747  0.45957  0.20523  1.0000
  H   H1181     1.0  0.66413  0.03330  0.43104  1.0000
  H   H1182     1.0  0.96027  0.31870  0.08155  1.0000
  C   C676      1.0  0.90469  0.29021  0.06082  1.0000
  H   H1183     1.0  0.71854  0.09823  0.40854  1.0000
  H   H1184     1.0  0.96588  0.35426  0.11994  1.0000
  C   C677      1.0  0.91447  0.47203  0.16360  1.0000
  H   H1185     1.0  0.91825  0.28332  0.05527  1.0000
  H   H1186     1.0  0.93387  0.47907  0.27556  1.0000
  H   H1187     1.0  0.66747  0.07449  0.21346  1.0000
  H   H1188     1.0  0.99047  0.40158  0.11069  1.0000
  N   N38       1.0  0.79919  0.33952  0.28986  1.0000
  C   C678      1.0  0.78285  0.31882  0.31669  1.0000
  C   C679      1.0  0.79866  0.36376  0.29803  1.0000
  C   C680      1.0  0.78772  0.33040  0.25262  1.0000
  C   C681      1.0  0.82617  0.34437  0.28899  1.0000
  C   C682      1.0  0.84094  0.35275  0.32530  1.0000
  C   C683      1.0  0.78101  0.29257  0.31046  1.0000
  C   C684      1.0  0.79808  0.35042  0.22153  1.0000
  C   C685      1.0  0.79728  0.37016  0.33855  1.0000
  C   C686      1.0  0.80289  0.39759  0.34264  1.0000
  C   C687      1.0  0.86582  0.35216  0.32344  1.0000
  C   C688      1.0  0.76474  0.27339  0.33974  1.0000
  C   C689      1.0  0.78566  0.33845  0.18527  1.0000
  H   H1189     1.0  0.76314  0.31578  0.31633  1.0000
  H   H1190     1.0  0.78939  0.32437  0.34501  1.0000
  H   H1191     1.0  0.81539  0.38034  0.28520  1.0000
  H   H1192     1.0  0.78163  0.36316  0.28549  1.0000
  H   H1193     1.0  0.76674  0.32249  0.25362  1.0000
  H   H1194     1.0  0.79070  0.31458  0.24345  1.0000
  H   H1195     1.0  0.82677  0.32743  0.27851  1.0000
  H   H1196     1.0  0.83778  0.35965  0.26912  1.0000
  H   H1197     1.0  0.82990  0.34028  0.34825  1.0000
  H   H1198     1.0  0.84600  0.37267  0.33127  1.0000
  H   H1199     1.0  0.77202  0.28439  0.28397  1.0000
  H   H1200     1.0  0.80004  0.29414  0.31115  1.0000
  H   H1201     1.0  0.81878  0.35847  0.21846  1.0000
  H   H1202     1.0  0.79430  0.36629  0.22668  1.0000
  H   H1203     1.0  0.77783  0.35742  0.34932  1.0000
  H   H1204     1.0  0.81075  0.36773  0.35599  1.0000
  H   H1205     1.0  0.78957  0.40101  0.32597  1.0000
  H   H1206     1.0  0.80073  0.40144  0.37156  1.0000
  H   H1207     1.0  0.82268  0.41111  0.33392  1.0000
  H   H1208     1.0  0.86211  0.33263  0.31754  1.0000
  H   H1209     1.0  0.87851  0.36547  0.30220  1.0000
  H   H1210     1.0  0.87579  0.35819  0.34993  1.0000
  H   H1211     1.0  0.76354  0.25479  0.33408  1.0000
  H   H1212     1.0  0.77331  0.27990  0.36703  1.0000
  H   H1213     1.0  0.74516  0.27053  0.33966  1.0000
  H   H1214     1.0  0.78899  0.32245  0.17847  1.0000
  H   H1215     1.0  0.76488  0.33127  0.18644  1.0000
  H   H1216     1.0  0.79402  0.35291  0.16325  1.0000
  H   H1217     1.0  0.93754  0.35597  0.12675  1.0000
  H   H1218     1.0  0.93355  0.48147  0.15069  1.0000
  C   C690      1.0  0.96375  0.42756  0.20891  1.0000
  C   C691      1.0  0.90297  0.44347  0.15742  1.0000
  C   C692      1.0  0.95059  0.36272  0.07027  1.0000
  C   C693      1.0  0.67663  0.47395  0.23768  1.0000
  S   S159      1.0  0.66442  0.11280  0.26632  1.0000
  H   H1219     1.0  0.68587  0.07813  0.45634  1.0000
  H   H1220     1.0  0.67528  0.47752  0.33050  1.0000
  C   C694      1.0  0.72658  0.19799  0.47663  1.0000
  H   H1221     1.0  0.91402  0.43600  0.17189  1.0000
  H   H1222     1.0  0.88301  0.43315  0.16713  1.0000
  H   H1223     1.0  0.90306  0.43961  0.12792  1.0000
  C   C695      1.0  0.67986  0.07410  0.42751  1.0000
  H   H1224     1.0  0.66661  0.43714  0.31455  1.0000
  S   S160      1.0  0.66444  0.15635  0.32120  1.0000
  H   H1225     1.0  0.71978  0.21182  0.47255  1.0000
  H   H1226     1.0  0.96398  0.40936  0.21016  1.0000
  N   N39       1.0  0.94172  0.33683  0.05391  1.0000
  H   H1227     1.0  0.93603  0.36866  0.06585  1.0000
  H   H1228     1.0  0.71160  0.46055  0.26045  1.0000
  C   C696      1.0  0.66153  0.07673  0.18577  1.0000
  H   H1229     1.0  0.90898  0.47986  0.42674  1.0000
  H   H1230     1.0  0.71702  0.18255  0.45632  1.0000
  H   H1231     1.0  0.96144  0.40283  0.11785  1.0000
  H   H1232     1.0  0.87553  0.25236  0.07717  1.0000
  C   C697      1.0  0.70297  0.07831  0.40525  1.0000
  C   C698      1.0  0.70868  0.47381  0.27801  1.0000
  C   C699      1.0  0.67640  0.48429  0.30201  1.0000
  C   C700      1.0  0.74669  0.48105  0.31584  1.0000
  H   H1233     1.0  0.96721  0.43465  0.18042  1.0000
  C   C701      1.0  0.87961  0.35809  0.99831  1.0000
  C   C702      1.0  0.71813  0.47160  0.31634  1.0000
  H   H1234     1.0  0.95791  0.31439  0.03387  1.0000
  H   H1235     1.0  0.68515  0.48400  0.16338  1.0000
  H   H1236     1.0  0.89413  0.27209  0.11437  1.0000
  H   H1237     1.0  0.98283  0.46493  0.23194  1.0000
  H   H1238     1.0  0.89426  0.28894  0.03543  1.0000
  C   C703      1.0  0.67173  0.46376  0.17014  1.0000
  H   H1239     1.0  0.70986  0.06533  0.41461  1.0000
  C   C704      1.0  0.96164  0.32872  0.05541  1.0000
  H   H1240     1.0  0.69815  0.07497  0.37587  1.0000
  C   C705      1.0  0.67805  0.45695  0.20723  1.0000
  H   H1241     1.0  0.70830  0.45147  0.32549  1.0000
  C   C706      1.0  0.98373  0.44714  0.23436  1.0000
  H   H1242     1.0  0.92499  0.31774  0.00302  1.0000
  H   H1243     1.0  0.67412  0.07470  0.16568  1.0000
  C   C707      1.0  0.67304  0.12442  0.47256  1.0000
  C   C708      1.0  0.66412  0.44059  0.28549  1.0000
  H   H1244     1.0  0.67444  0.08812  0.41823  1.0000
  H   H1245     1.0  0.66443  0.43656  0.21218  1.0000
  H   H1246     1.0  0.90233  0.47819  0.14927  1.0000
  H   H1247     1.0  0.66937  0.42810  0.26996  1.0000
  H   H1248     1.0  0.75297  0.47873  0.34325  1.0000
  H   H1249     1.0  0.75133  0.47010  0.29606  1.0000
  H   H1250     1.0  0.72185  0.49307  0.26670  1.0000
  H   H1251     1.0  0.88627  0.37823  0.00037  1.0000
  H   H1252     1.0  0.71473  0.48294  0.33690  1.0000
  H   H1253     1.0  0.66874  0.04023  0.49143  1.0000
  H   H1254     1.0  0.66403  0.09612  0.18299  1.0000
  H   H1255     1.0  0.99333  0.36286  0.02892  1.0000
  H   H1256     1.0  0.69068  0.49384  0.23021  1.0000
  S   S161      1.0  0.84074  0.45507  0.69118  1.0000
  H   H1257     1.0  0.92006  0.48231  0.84123  1.0000
  S   S162      1.0  0.68258  0.11548  0.68739  1.0000
  C   C709      1.0  0.77236  0.45905  0.78807  1.0000
  H   H1258     1.0  0.72779  0.49149  0.73651  1.0000
  H   H1259     1.0  0.80875  0.47405  0.56286  1.0000
  S   S163      1.0  0.70240  0.18570  0.73301  1.0000
  H   H1260     1.0  0.83397  0.40477  0.69360  1.0000
  H   H1261     1.0  0.96777  0.35201  0.79119  1.0000
  Fe  Fe82      1.0  0.86969  0.32382  0.86090  1.0000
  S   S164      1.0  0.88102  0.30921  0.81165  1.0000
  S   S165      1.0  0.86745  0.30673  0.91756  1.0000
  Fe  Fe83      1.0  0.85800  0.35822  0.81361  1.0000
  S   S166      1.0  0.86746  0.34542  0.76159  1.0000
  S   S167      1.0  0.84819  0.38964  0.82076  1.0000
  Fe  Fe84      1.0  0.84557  0.30566  0.78528  1.0000
  S   S168      1.0  0.82085  0.26890  0.75237  1.0000
  Fe  Fe85      1.0  0.90210  0.34997  0.79154  1.0000
  S   S169      1.0  0.93994  0.37669  0.76196  1.0000
  S   S170      1.0  0.83366  0.31850  0.83539  1.0000
  S   S171      1.0  0.89323  0.36443  0.84284  1.0000
  C   C710      1.0  0.97213  0.38340  0.75845  1.0000
  H   H1262     1.0  0.95328  0.33355  0.65797  1.0000
  H   H1263     1.0  0.76949  0.46682  0.71428  1.0000
  H   H1264     1.0  0.71841  0.48118  0.64487  1.0000
  H   H1265     1.0  0.69911  0.17664  0.51767  1.0000
  C   C711      1.0  0.86904  0.32118  0.96045  1.0000
  C   C712      1.0  0.78541  0.38620  0.81657  1.0000
  H   H1266     1.0  0.88149  0.35871  0.93940  1.0000
  H   H1267     1.0  0.73416  0.39332  0.82227  1.0000
  H   H1268     1.0  0.72941  0.42506  0.76018  1.0000
  C   C713      1.0  0.73553  0.20839  0.73797  1.0000
  C   C714      1.0  0.74257  0.23222  0.75360  1.0000
  C   C715      1.0  0.76840  0.25092  0.75814  1.0000
  C   C716      1.0  0.78775  0.24614  0.74710  1.0000
  C   C717      1.0  0.78074  0.22233  0.73139  1.0000
  C   C718      1.0  0.75490  0.20355  0.72709  1.0000
  H   H1269     1.0  0.72787  0.23631  0.76213  1.0000
  H   H1270     1.0  0.77330  0.26915  0.76979  1.0000
  H   H1271     1.0  0.79544  0.21828  0.72274  1.0000
  H   H1272     1.0  0.74999  0.18528  0.71557  1.0000
  H   H1273     1.0  0.80252  0.43747  0.79501  1.0000
  H   H1274     1.0  0.73489  0.39928  0.75441  1.0000
  C   C719      1.0  0.98947  0.40445  0.73743  1.0000
  H   H1275     1.0  0.75844  0.38416  0.77740  1.0000
  H   H1276     1.0  0.79071  0.40022  0.76164  1.0000
  C   C720      1.0  0.84450  0.43773  0.72694  1.0000
  C   C721      1.0  0.85147  0.44792  0.76185  1.0000
  C   C722      1.0  0.85279  0.43305  0.79028  1.0000
  C   C723      1.0  0.84789  0.40816  0.78382  1.0000
  C   C724      1.0  0.84146  0.39816  0.74876  1.0000
  C   C725      1.0  0.83943  0.41279  0.72054  1.0000
  H   H1277     1.0  0.85527  0.46704  0.76713  1.0000
  H   H1278     1.0  0.85744  0.44078  0.81746  1.0000
  H   H1279     1.0  0.83743  0.37894  0.74359  1.0000
  C   C726      1.0  0.72716  0.40548  0.81007  1.0000
  H   H1280     1.0  0.77048  0.24775  0.66612  1.0000
  H   H1281     1.0  0.94739  0.35818  0.67455  1.0000
  H   H1282     1.0  0.77671  0.24382  0.58354  1.0000
  H   H1283     1.0  0.78602  0.36913  0.80692  1.0000
  C   C727      1.0  0.87692  0.34706  0.96363  1.0000
  C   C728      1.0  0.96206  0.35240  0.67143  1.0000
  H   H1284     1.0  0.76845  0.45759  0.64909  1.0000
  H   H1285     1.0  0.69675  0.11892  0.51118  1.0000
  H   H1286     1.0  0.96715  0.44453  0.86406  1.0000
  C   C729      1.0  0.76595  0.44773  0.70636  1.0000
  H   H1287     1.0  0.96854  0.35066  0.69899  1.0000
  H   H1288     1.0  0.76733  0.14462  0.83886  1.0000
  N   N40       1.0  0.93520  0.44838  0.80968  1.0000
  C   C730      1.0  0.92547  0.44836  0.77180  1.0000
  H   H1289     1.0  0.76770  0.45681  0.81762  1.0000
  C   C731      1.0  0.95156  0.43590  0.80794  1.0000
  C   C732      1.0  0.91250  0.43354  0.83410  1.0000
  C   C733      1.0  0.91791  0.43220  0.87492  1.0000
  C   C734      1.0  0.91202  0.42233  0.75197  1.0000
  C   C735      1.0  0.67985  0.12049  0.50773  1.0000
  H   H1290     1.0  0.80289  0.48918  0.75536  1.0000
  S   S172      1.0  0.67481  0.11399  0.58213  1.0000
  C   C736      1.0  0.89326  0.41947  0.89709  1.0000
  C   C737      1.0  0.90482  0.42538  0.71321  1.0000
  H   H1291     1.0  0.74514  0.43490  0.70430  1.0000
  H   H1292     1.0  0.94139  0.46186  0.75399  1.0000
  H   H1293     1.0  0.91132  0.45502  0.77227  1.0000
  C   C738      1.0  0.95390  0.35468  0.98782  1.0000
  H   H1294     1.0  0.74178  0.13985  0.80901  1.0000
  H   H1295     1.0  0.96107  0.43925  0.78088  1.0000
  H   H1296     1.0  0.93944  0.41485  0.81028  1.0000
  H   H1297     1.0  0.89882  0.44068  0.83161  1.0000
  H   H1298     1.0  0.90168  0.41357  0.82490  1.0000
  H   H1299     1.0  0.93001  0.45131  0.88662  1.0000
  H   H1300     1.0  0.92715  0.42047  0.87863  1.0000
  H   H1301     1.0  0.92436  0.41372  0.74987  1.0000
  H   H1302     1.0  0.89437  0.40868  0.76636  1.0000
  H   H1303     1.0  0.85872  0.49139  0.50484  1.0000
  C   C739      1.0  0.97353  0.44464  0.83585  1.0000
  H   H1304     1.0  0.83805  0.22350  0.96829  1.0000
  C   C740      1.0  0.93671  0.49129  0.82266  1.0000
  H   H1305     1.0  0.88292  0.43027  0.89456  1.0000
  H   H1306     1.0  0.88070  0.39969  0.88771  1.0000
  H   H1307     1.0  0.89764  0.41874  0.92625  1.0000
  H   H1308     1.0  0.89308  0.43479  0.71324  1.0000
  H   H1309     1.0  0.92214  0.43685  0.69653  1.0000
  H   H1310     1.0  0.89363  0.40636  0.70053  1.0000
  H   H1311     1.0  0.97707  0.37245  0.62126  1.0000
  H   H1312     1.0  0.80442  0.39993  0.82743  1.0000
  C   C741      1.0  0.95078  0.47573  0.82150  1.0000
  N   N41       1.0  0.79205  0.22155  0.86181  1.0000
  C   C742      1.0  0.77836  0.19285  0.86392  1.0000
  C   C743      1.0  0.80504  0.23322  0.89753  1.0000
  C   C744      1.0  0.77216  0.22923  0.85503  1.0000
  C   C745      1.0  0.81090  0.23162  0.83087  1.0000
  C   C746      1.0  0.83205  0.22439  0.83120  1.0000
  C   C747      1.0  0.76394  0.17841  0.82911  1.0000
  C   C748      1.0  0.78179  0.25822  0.85456  1.0000
  C   C749      1.0  0.81536  0.21860  0.92014  1.0000
  H   H1313     1.0  0.69006  0.40077  0.79610  1.0000
  C   C750      1.0  0.84721  0.23228  0.79565  1.0000
  C   C751      1.0  0.78169  0.42429  0.79589  1.0000
  C   C752      1.0  0.75963  0.26355  0.85420  1.0000
  H   H1314     1.0  0.76435  0.18623  0.88675  1.0000
  H   H1315     1.0  0.79157  0.18576  0.87062  1.0000
  H   H1316     1.0  0.82106  0.25296  0.89300  1.0000
  H   H1317     1.0  0.79175  0.23537  0.91633  1.0000
  H   H1318     1.0  0.75671  0.22027  0.87577  1.0000
  H   H1319     1.0  0.76296  0.22230  0.82813  1.0000
  H   H1320     1.0  0.80088  0.22575  0.80443  1.0000
  H   H1321     1.0  0.82093  0.25277  0.83025  1.0000
  H   H1322     1.0  0.82427  0.20366  0.83439  1.0000
  H   H1323     1.0  0.84560  0.23458  0.85353  1.0000
  H   H1324     1.0  0.74807  0.18195  0.82271  1.0000
  H   H1325     1.0  0.77687  0.18403  0.80526  1.0000
  H   H1326     1.0  0.79316  0.26678  0.82958  1.0000
  H   H1327     1.0  0.79372  0.26808  0.87847  1.0000
  H   H1328     1.0  0.79923  0.20114  0.93202  1.0000
  H   H1329     1.0  0.82690  0.21286  0.90353  1.0000
  C   C753      1.0  0.66353  0.47359  0.95500  1.0000
  H   H1330     1.0  0.97107  0.40750  0.84053  1.0000
  C   C754      1.0  0.69830  0.38925  0.80682  1.0000
  H   H1331     1.0  0.86245  0.22716  0.79660  1.0000
  H   H1332     1.0  0.77280  0.43073  0.65848  1.0000
  H   H1333     1.0  0.85619  0.25313  0.79144  1.0000
  H   H1334     1.0  0.81448  0.47709  0.79053  1.0000
  H   H1335     1.0  0.75922  0.46489  0.77580  1.0000
  C   C755      1.0  0.77820  0.39795  0.78518  1.0000
  H   H1336     1.0  0.68988  0.38181  0.83406  1.0000
  H   H1337     1.0  0.74690  0.25401  0.83077  1.0000
  H   H1338     1.0  0.74851  0.25676  0.87985  1.0000
  N   N42       1.0  0.72588  0.19892  0.58313  1.0000
  C   C756      1.0  0.69753  0.18670  0.58860  1.0000
  C   C757      1.0  0.73390  0.17957  0.59190  1.0000
  C   C758      1.0  0.73860  0.22168  0.60791  1.0000
  C   C759      1.0  0.73330  0.20761  0.54433  1.0000
  H   H1339     1.0  0.78030  0.47342  0.54688  1.0000
  C   C760      1.0  0.68486  0.20180  0.57394  1.0000
  C   C761      1.0  0.76802  0.23493  0.61004  1.0000
  C   C762      1.0  0.73118  0.17117  0.63228  1.0000
  C   C763      1.0  0.74031  0.15197  0.63783  1.0000
  H   H1340     1.0  0.84912  0.25179  0.94096  1.0000
  H   H1341     1.0  0.98469  0.35371  0.50877  1.0000
  H   H1342     1.0  0.77649  0.42388  0.82505  1.0000
  H   H1343     1.0  0.69291  0.18351  0.61807  1.0000
  H   H1344     1.0  0.68751  0.16739  0.57639  1.0000
  H   H1345     1.0  0.72244  0.16190  0.57597  1.0000
  H   H1346     1.0  0.75386  0.18647  0.58313  1.0000
  H   H1347     1.0  0.73085  0.21648  0.63612  1.0000
  H   H1348     1.0  0.73404  0.23657  0.59925  1.0000
  H   H1349     1.0  0.72999  0.22371  0.53790  1.0000
  H   H1350     1.0  0.75408  0.21543  0.54041  1.0000
  H   H1351     1.0  0.77308  0.27061  0.63212  1.0000
  Fe  Fe86      1.0  0.67514  0.14606  0.70867  1.0000
  H   H1352     1.0  0.69336  0.22091  0.58645  1.0000
  H   H1353     1.0  0.96750  0.48587  0.80314  1.0000
  H   H1354     1.0  0.74738  0.48835  0.66801  1.0000
  H   H1355     1.0  0.77465  0.22145  0.61751  1.0000
  H   H1356     1.0  0.74259  0.18749  0.65037  1.0000
  H   H1357     1.0  0.71106  0.16211  0.64114  1.0000
  H   H1358     1.0  0.72832  0.13439  0.62206  1.0000
  H   H1359     1.0  0.76045  0.16017  0.62921  1.0000
  H   H1360     1.0  0.73889  0.14680  0.66708  1.0000
  C   C764      1.0  0.83189  0.23476  0.95158  1.0000
  H   H1361     1.0  0.82112  0.24101  0.96926  1.0000
  H   H1362     1.0  0.85690  0.28635  0.99041  1.0000
  H   H1363     1.0  0.68691  0.20414  0.54398  1.0000
  C   C765      1.0  0.77823  0.25585  0.63881  1.0000
  C   C766      1.0  0.98549  0.42758  0.83455  1.0000
  H   H1364     1.0  0.79889  0.45003  0.73367  1.0000
  C   C767      1.0  0.75228  0.14969  0.83404  1.0000
  H   H1365     1.0  0.98304  0.41624  0.72429  1.0000
  H   H1366     1.0  0.95893  0.47718  0.84893  1.0000
  H   H1367     1.0  0.73868  0.14284  0.85723  1.0000
  C   C768      1.0  0.73963  0.41581  0.77236  1.0000
  H   H1368     1.0  0.76709  0.28435  0.85171  1.0000
  H   H1369     1.0  0.93008  0.33614  0.94042  1.0000
  H   H1370     1.0  0.83466  0.22247  0.77216  1.0000
  H   H1371     1.0  0.79784  0.46249  0.66839  1.0000
  H   H1372     1.0  0.67815  0.48184  0.89943  1.0000
  H   H1373     1.0  0.77471  0.41893  0.72325  1.0000
  C   C769      1.0  0.94196  0.35557  0.95160  1.0000
  C   C770      1.0  0.77697  0.44974  0.66829  1.0000
  H   H1374     1.0  0.77124  0.38040  0.83893  1.0000
  H   H1375     1.0  0.79927  0.26502  0.64008  1.0000
  C   C771      1.0  0.98077  0.36829  0.77506  1.0000
  N   N43       1.0  0.76791  0.43411  0.77253  1.0000
  C   C772      1.0  0.77791  0.43740  0.73416  1.0000
  H   H1376     1.0  0.92994  0.36452  0.95523  1.0000
  C   C773      1.0  0.79964  0.48202  0.78381  1.0000
  H   H1377     1.0  0.73133  0.42125  0.82908  1.0000
  C   C774      1.0  0.98429  0.37220  0.64875  1.0000
  C   C775      1.0  0.72008  0.18671  0.51495  1.0000
  H   H1378     1.0  0.69312  0.37285  0.78849  1.0000
  H   H1379     1.0  0.95712  0.36705  0.93153  1.0000
  H   H1380     1.0  0.96704  0.34730  0.98205  1.0000
  H   H1381     1.0  0.98272  0.35264  0.57552  1.0000
  H   H1382     1.0  0.93015  0.49312  0.79525  1.0000
  C   C776      1.0  0.80085  0.48594  0.55242  1.0000
  H   H1383     1.0  0.98874  0.46431  0.82933  1.0000
  C   C777      1.0  0.86314  0.30639  0.99241  1.0000
  C   C778      1.0  0.68451  0.48909  0.92737  1.0000
  H   H1384     1.0  0.66628  0.04056  0.55878  1.0000
  H   H1385     1.0  0.70158  0.48743  0.93349  1.0000
  H   H1386     1.0  0.99067  0.39109  0.66125  1.0000
  H   H1387     1.0  0.67189  0.48011  0.98231  1.0000
  H   H1388     1.0  0.72643  0.17242  0.51706  1.0000
  H   H1389     1.0  0.67244  0.07034  0.53918  1.0000
  C   C779      1.0  0.66514  0.11879  0.53843  1.0000
  H   H1390     1.0  0.75308  0.49288  0.60085  1.0000
  H   H1391     1.0  0.81073  0.49502  0.52656  1.0000
  C   C780      1.0  0.86010  0.52365  0.47769  1.0000
  S   S173      1.0  0.86037  0.53748  0.27119  1.0000
  Fe  Fe87      1.0  0.85399  0.52159  0.37581  1.0000
  S   S174      1.0  0.87027  0.56129  0.35396  1.0000
  H   H1392     1.0  0.70241  0.54815  0.32670  1.0000
  Fe  Fe88      1.0  0.83746  0.54450  0.31369  1.0000
  S   S175      1.0  0.81185  0.56242  0.30664  1.0000
  Fe  Fe89      1.0  0.89162  0.55086  0.31317  1.0000
  S   S176      1.0  0.93505  0.56871  0.31015  1.0000
  C   C781      1.0  0.75141  0.61444  0.20126  1.0000
  C   C782      1.0  0.67664  0.55124  0.00375  1.0000
  H   H1393     1.0  0.89817  0.61048  0.42508  1.0000
  Fe  Fe90      1.0  0.68563  0.54450  0.19725  1.0000
  H   H1394     1.0  0.83901  0.63544  0.25039  1.0000
  S   S177      1.0  0.72215  0.54177  0.19567  1.0000
  H   H1395     1.0  0.85461  0.62560  0.21770  1.0000
  H   H1396     1.0  0.83141  0.64393  0.18628  1.0000
  H   H1397     1.0  0.94178  0.52326  0.44523  1.0000
  H   H1398     1.0  0.90847  0.54019  0.43232  1.0000
  H   H1399     1.0  0.80822  0.66988  0.21374  1.0000
  H   H1400     1.0  0.72573  0.62258  0.28232  1.0000
  N   N44       1.0  0.77659  0.62091  0.18376  1.0000
  C   C783      1.0  0.91925  0.59024  0.42961  1.0000
  C   C784      1.0  0.96014  0.58921  0.28021  1.0000
  C   C785      1.0  0.95651  0.60177  0.25082  1.0000
  H   H1401     1.0  0.75472  0.61359  0.11118  1.0000
  H   H1402     1.0  0.93778  0.59905  0.24545  1.0000
  H   H1403     1.0  0.97589  0.55826  0.41220  1.0000
  C   C786      1.0  0.78563  0.55438  0.27699  1.0000
  C   C787      1.0  0.76852  0.56313  0.28514  1.0000
  C   C788      1.0  0.74841  0.55861  0.26137  1.0000
  C   C789      1.0  0.74543  0.54572  0.22862  1.0000
  C   C790      1.0  0.76240  0.53683  0.22057  1.0000
  C   C791      1.0  0.78218  0.54086  0.24471  1.0000
  H   H1404     1.0  0.77100  0.57366  0.30996  1.0000
  H   H1405     1.0  0.73557  0.56558  0.26803  1.0000
  H   H1406     1.0  0.76041  0.52692  0.19528  1.0000
  H   H1407     1.0  0.79520  0.53413  0.23786  1.0000
  C   C792      1.0  0.69565  0.51318  0.30092  1.0000
  C   C793      1.0  0.68895  0.52742  0.32911  1.0000
  H   H1408     1.0  0.91345  0.60960  0.38343  1.0000
  H   H1409     1.0  0.86240  0.55853  0.45957  1.0000
  H   H1410     1.0  0.78451  0.59981  0.22388  1.0000
  C   C794      1.0  0.93919  0.50487  0.31871  1.0000
  H   H1411     1.0  0.96482  0.56770  0.37372  1.0000
  H   H1412     1.0  0.97272  0.54939  0.24380  1.0000
  H   H1413     1.0  0.81835  0.61057  0.17615  1.0000
  C   C795      1.0  0.93283  0.55770  0.49262  1.0000
  H   H1414     1.0  0.90158  0.57205  0.42469  1.0000
  H   H1415     1.0  0.83014  0.69614  0.15937  1.0000
  H   H1416     1.0  0.66941  0.52402  0.32461  1.0000
  H   H1417     1.0  0.95545  0.52069  0.17102  1.0000
  H   H1418     1.0  0.71886  0.62823  0.23667  1.0000
  H   H1419     1.0  0.75718  0.61145  0.25972  1.0000
  C   C796      1.0  0.83583  0.62174  0.22824  1.0000
  H   H1420     1.0  0.74122  0.55749  0.11430  1.0000
  H   H1421     1.0  0.77938  0.66993  0.20092  1.0000
  H   H1422     1.0  0.87923  0.50295  0.23110  1.0000
  H   H1423     1.0  0.82587  0.60213  0.23963  1.0000
  C   C797      1.0  0.82034  0.62437  0.19744  1.0000
  C   C798      1.0  0.95471  0.52016  0.20127  1.0000
  H   H1424     1.0  0.81716  0.71105  0.18797  1.0000
  C   C799      1.0  0.77164  0.60138  0.15462  1.0000
  C   C800      1.0  0.87139  0.51584  0.18119  1.0000
  C   C801      1.0  0.66648  0.54764  0.03932  1.0000
  H   H1425     1.0  0.75749  0.50155  0.30847  1.0000
  C   C802      1.0  0.97736  0.61841  0.22874  1.0000
  H   H1426     1.0  0.77519  0.64734  0.14547  1.0000
  C   C803      1.0  0.78854  0.64662  0.16551  1.0000
  S   S178      1.0  0.82007  0.50537  0.33842  1.0000
  C   C804      1.0  0.75166  0.62251  0.24142  1.0000
  H   H1427     1.0  0.91677  0.51923  0.16596  1.0000
  H   H1428     1.0  0.76516  0.64286  0.24596  1.0000
  H   H1429     1.0  0.92007  0.53711  0.20552  1.0000
  H   H1430     1.0  0.93108  0.52824  0.26217  1.0000
  C   C805      1.0  0.79654  0.66982  0.19057  1.0000
  H   H1431     1.0  0.93208  0.63039  0.41994  1.0000
  C   C806      1.0  0.92994  0.52095  0.42102  1.0000
  C   C807      1.0  0.75019  0.59622  0.12697  1.0000
  C   C808      1.0  0.72525  0.61714  0.25338  1.0000
  H   H1432     1.0  0.78903  0.60702  0.13807  1.0000
  H   H1433     1.0  0.96898  0.56632  0.47058  1.0000
  S   S179      1.0  0.67637  0.57288  0.17074  1.0000
  C   C809      1.0  0.94247  0.59012  0.41235  1.0000
  H   H1434     1.0  0.74137  0.62214  0.18462  1.0000
  H   H1435     1.0  0.80535  0.64984  0.14912  1.0000
  H   H1436     1.0  0.73162  0.58947  0.14073  1.0000
  S   S180      1.0  0.87664  0.51178  0.33715  1.0000
  C   C810      1.0  0.95480  0.57251  0.46489  1.0000
  H   H1437     1.0  0.98772  0.58334  0.30909  1.0000
  N   N45       1.0  0.92746  0.50602  0.21418  1.0000
  H   H1438     1.0  0.71521  0.51723  0.30695  1.0000
  C   C811      1.0  0.74665  0.57563  0.09985  1.0000
  H   H1439     1.0  0.79778  0.63229  0.23454  1.0000
  C   C812      1.0  0.79402  0.61914  0.21150  1.0000
  C   C813      1.0  0.81221  0.69470  0.16964  1.0000
  H   H1440     1.0  0.94703  0.52554  0.32342  1.0000
  H   H1441     1.0  0.92210  0.59391  0.45921  1.0000
  H   H1442     1.0  0.67820  0.54960  0.06260  1.0000
  H   H1443     1.0  0.97443  0.62834  0.20642  1.0000
  H   H1444     1.0  0.76694  0.58284  0.16732  1.0000
  S   S181      1.0  0.85241  0.50813  0.43471  1.0000
  C   C814      1.0  0.97025  0.57226  0.40287  1.0000
  H   H1445     1.0  0.73861  0.59349  0.20177  1.0000
  H   H1446     1.0  0.96493  0.50992  0.20949  1.0000
  H   H1447     1.0  0.94011  0.51944  0.39680  1.0000
  H   H1448     1.0  0.71121  0.59657  0.25078  1.0000
  H   H1449     1.0  0.91950  0.54362  0.38736  1.0000
  C   C815      1.0  0.97070  0.54818  0.21381  1.0000
  H   H1450     1.0  0.69562  0.52112  0.27378  1.0000
  H   H1451     1.0  0.95888  0.60926  0.41804  1.0000
  H   H1452     1.0  0.76439  0.58156  0.08410  1.0000
  H   H1453     1.0  0.73121  0.57225  0.08052  1.0000
  C   C816      1.0  0.92542  0.54390  0.41612  1.0000
  H   H1454     1.0  0.80121  0.69597  0.14635  1.0000
  H   H1455     1.0  0.93988  0.58913  0.38226  1.0000
  C   C817      1.0  0.91560  0.61150  0.41344  1.0000
  H   H1456     1.0  0.85063  0.50559  0.18692  1.0000
  H   H1457     1.0  0.96193  0.55964  0.20515  1.0000
  N   N46       1.0  0.94791  0.56952  0.42492  1.0000
  H   H1458     1.0  0.87935  0.53589  0.19002  1.0000
  C   C818      1.0  0.91308  0.51735  0.19579  1.0000
  C   C819      1.0  0.98472  0.59313  0.28673  1.0000
  C   C820      1.0  0.88386  0.50303  0.20190  1.0000
  C   C821      1.0  0.86415  0.54831  0.48252  1.0000
  H   H1459     1.0  0.69624  0.55602  1.00000  1.0000
  H   H1460     1.0  0.96455  0.59298  0.47250  1.0000
  H   H1461     1.0  0.87429  0.51533  0.15144  1.0000
  C   C822      1.0  0.92563  0.50837  0.25476  1.0000
  S   S182      1.0  0.66261  0.54091  0.24671  1.0000
  H   H1462     1.0  0.69029  0.52115  0.35704  1.0000
  H   H1463     1.0  0.91620  0.56003  0.48721  1.0000
  C   C823      1.0  0.94120  0.49978  0.27848  1.0000
  H   H1464     1.0  0.92620  0.53705  0.49154  1.0000
  H   H1465     1.0  0.95017  0.49831  0.33527  1.0000
  Fe  Fe91      1.0  0.84447  0.49912  0.29823  1.0000
  H   H1466     1.0  0.96161  0.50999  0.27101  1.0000
  H   H1467     1.0  0.99201  0.61235  0.38627  1.0000
  H   H1468     1.0  0.90561  0.49678  0.26401  1.0000
  C   C824      1.0  0.90503  0.49587  0.42498  1.0000
  H   H1469     1.0  0.89486  0.49593  0.45014  1.0000
  Fe  Fe92      1.0  0.87553  0.54428  0.64742  1.0000
  S   S183      1.0  0.88392  0.56991  0.69631  1.0000
  S   S184      1.0  0.88087  0.56211  0.59056  1.0000
  H   H1470     1.0  0.73621  0.51116  0.66776  1.0000
  S   S185      1.0  0.86247  0.51950  0.74734  1.0000
  Fe  Fe93      1.0  0.84544  0.54009  0.71744  1.0000
  S   S186      1.0  0.81991  0.55458  0.74207  1.0000
  Fe  Fe94      1.0  0.90041  0.54757  0.72248  1.0000
  S   S187      1.0  0.93352  0.55968  0.76277  1.0000
  H   H1471     1.0  0.66032  0.62974  0.76998  1.0000
  S   S188      1.0  0.89497  0.52423  0.67209  1.0000
  Fe  Fe95      1.0  0.67391  0.52477  0.80032  1.0000
  C   C825      1.0  0.72435  0.68401  0.81943  1.0000
  S   S189      1.0  0.70092  0.51391  0.77052  1.0000
  H   H1472     1.0  0.97072  0.52857  0.81780  1.0000
  C   C826      1.0  0.78004  0.53009  0.62481  1.0000
  H   H1473     1.0  0.86927  0.51142  0.56593  1.0000
  S   S190      1.0  0.67885  0.56176  0.82224  1.0000
  H   H1474     1.0  0.81032  0.53521  0.54266  1.0000
  H   H1475     1.0  0.70548  0.61601  0.71962  1.0000
  H   H1476     1.0  0.97974  0.49797  0.71897  1.0000
  H   H1477     1.0  0.96176  0.53714  0.72497  1.0000
  H   H1478     1.0  0.81619  0.59247  0.62171  1.0000
  H   H1479     1.0  0.76389  0.71336  0.82411  1.0000
  C   C827      1.0  0.97853  0.59616  0.72949  1.0000
  C   C828      1.0  0.96681  0.58131  0.76034  1.0000
  H   H1480     1.0  0.71500  0.63885  0.77786  1.0000
  H   H1481     1.0  0.96720  0.59456  0.70588  1.0000
  H   H1482     1.0  0.82516  0.51633  0.58787  1.0000
  C   C829      1.0  0.73422  0.52560  0.76382  1.0000
  C   C830      1.0  0.74204  0.51016  0.74554  1.0000
  C   C831      1.0  0.76803  0.51869  0.73855  1.0000
  C   C832      1.0  0.78672  0.54279  0.74995  1.0000
  C   C833      1.0  0.77896  0.55817  0.76844  1.0000
  C   C834      1.0  0.75296  0.54969  0.77538  1.0000
  S   S191      1.0  0.67534  0.55285  0.92879  1.0000
  H   H1483     1.0  0.74907  0.69880  0.86680  1.0000
  H   H1484     1.0  0.70453  0.64518  0.71464  1.0000
  H   H1485     1.0  0.68757  0.65990  0.76614  1.0000
  H   H1486     1.0  0.87380  0.57892  0.52052  1.0000
  C   C835      1.0  0.87226  0.54656  0.54763  1.0000
  C   C836      1.0  0.86786  0.52180  0.54289  1.0000
  H   H1487     1.0  0.92571  0.55479  0.55080  1.0000
  H   H1488     1.0  0.94348  0.52880  0.83699  1.0000
  H   H1489     1.0  0.75799  0.68184  0.83482  1.0000
  C   C837      1.0  0.78503  0.55789  0.57313  1.0000
  C   C838      1.0  0.85421  0.60227  0.63547  1.0000
  C   C839      1.0  0.97798  0.64134  0.82630  1.0000
  H   H1490     1.0  0.95804  0.56424  0.53869  1.0000
  H   H1491     1.0  0.71798  0.69825  0.82189  1.0000
  H   H1492     1.0  0.97312  0.57257  0.81487  1.0000
  H   H1493     1.0  0.74741  0.56184  0.78947  1.0000
  N   N47       1.0  0.79620  0.54349  0.59196  1.0000
  C   C840      1.0  0.75275  0.50834  0.61650  1.0000
  C   C841      1.0  0.70496  0.65853  0.83773  1.0000
  S   S192      1.0  0.83653  0.51587  0.66757  1.0000
  H   H1494     1.0  0.70395  0.66301  0.86680  1.0000
  C   C842      1.0  0.69493  0.62822  0.76891  1.0000
  C   C843      1.0  0.94143  0.56646  0.53157  1.0000
  H   H1495     1.0  0.85622  0.61640  0.65629  1.0000
  H   H1496     1.0  0.95995  0.65348  0.78563  1.0000
  C   C844      1.0  0.87041  0.55974  0.51722  1.0000
  C   C845      1.0  0.67980  0.64148  0.78097  1.0000
  C   C846      1.0  0.98195  0.58375  0.79076  1.0000
  H   H1497     1.0  0.67530  0.61493  0.71706  1.0000
  C   C847      1.0  0.82295  0.56117  0.60442  1.0000
  H   H1498     1.0  0.96098  0.51794  0.86423  1.0000
  H   H1499     1.0  0.86528  0.59315  0.64440  1.0000
  C   C848      1.0  0.66365  0.61950  0.83928  1.0000
  H   H1500     1.0  0.79317  0.57685  0.77751  1.0000
  H   H1501     1.0  0.97646  0.62294  0.83431  1.0000
  C   C849      1.0  0.69504  0.62605  0.72750  1.0000
  H   H1502     1.0  0.71324  0.64569  0.83811  1.0000
  H   H1503     1.0  0.94227  0.50318  0.72811  1.0000
  C   C850      1.0  0.66163  0.54846  0.97301  1.0000
  H   H1504     1.0  0.86222  0.61234  0.60932  1.0000
  C   C851      1.0  0.75037  0.69510  0.83751  1.0000
  H   H1505     1.0  0.76686  0.54440  0.55963  1.0000
  H   H1506     1.0  0.81939  0.59311  0.55582  1.0000
  C   C852      1.0  0.80203  0.57730  0.54358  1.0000
  H   H1507     1.0  0.68624  0.60868  0.78016  1.0000
  Fe  Fe96      1.0  0.85647  0.49758  0.69579  1.0000
  H   H1508     1.0  0.94646  0.58664  0.53492  1.0000
  H   H1509     1.0  0.81863  0.57408  0.65836  1.0000
  H   H1510     1.0  0.80297  0.49833  0.83773  1.0000
  H   H1511     1.0  0.77965  0.56818  0.59317  1.0000
  C   C853      1.0  0.96122  0.63633  0.79284  1.0000
  H   H1512     1.0  0.72698  0.68151  0.79018  1.0000
  N   N48       1.0  0.67872  0.64522  0.82138  1.0000
  C   C854      1.0  0.95417  0.51827  0.83631  1.0000
  H   H1513     1.0  0.66851  0.66763  0.85633  1.0000
  H   H1514     1.0  0.80059  0.60303  0.50371  1.0000
  H   H1515     1.0  0.77366  0.50673  0.72431  1.0000
  C   C855      1.0  0.66645  0.66136  0.82749  1.0000
  H   H1516     1.0  0.83068  0.55038  0.61886  1.0000
  H   H1517     1.0  0.67373  0.60846  0.83642  1.0000
  H   H1518     1.0  0.96988  0.64744  0.84854  1.0000
  H   H1519     1.0  0.83592  0.56987  0.58069  1.0000
  H   H1520     1.0  0.69000  0.50952  0.92849  1.0000
  H   H1521     1.0  0.78889  0.50931  0.80401  1.0000
  C   C856      1.0  0.82620  0.58240  0.63108  1.0000
  C   C857      1.0  0.80475  0.50605  0.58061  1.0000
  H   H1522     1.0  0.94176  0.62042  0.79854  1.0000
  H   H1523     1.0  0.67642  0.67923  0.81129  1.0000
  H   H1524     1.0  0.77800  0.54390  0.64247  1.0000
  H   H1525     1.0  0.82255  0.52072  0.80327  1.0000
  H   H1526     1.0  0.78213  0.59906  0.54421  1.0000
  C   C858      1.0  0.95993  0.51884  0.71600  1.0000
  C   C859      1.0  0.79673  0.52489  0.56519  1.0000
  H   H1527     1.0  0.98342  0.51729  0.75830  1.0000
  C   C860      1.0  0.80365  0.50386  0.80875  1.0000
  C   C861      1.0  0.86196  0.51052  0.50813  1.0000
  C   C862      1.0  0.78792  0.58904  0.52438  1.0000
  H   H1528     1.0  0.67612  0.62855  0.89629  1.0000
  H   H1529     1.0  0.77080  0.57415  0.51032  1.0000
  C   C863      1.0  0.98293  0.51672  0.72821  1.0000
  H   H1530     1.0  0.80792  0.56814  0.52257  1.0000
  H   H1531     1.0  0.78961  0.52244  0.64253  1.0000
  H   H1532     1.0  0.74205  0.51555  0.60067  1.0000
  H   H1533     1.0  0.96897  0.63094  0.76923  1.0000
  H   H1534     1.0  0.95807  0.51758  0.68592  1.0000
  H   H1535     1.0  0.77794  0.51371  0.55171  1.0000
  C   C864      1.0  0.73788  0.49660  0.65152  1.0000
  H   H1536     1.0  0.79370  0.49587  0.60510  1.0000
