data_image0
_chemical_formula_structural       H2SCSCH2C2H2C2H6C2H2CHCH3C2HCFeS2HCH3CNC2H2C2FeH4SCH3C2HCH2CFeS2FeHFeHS2H2SNCHC3HFeH2CH4CHC2H2CH2CHCHCH2C3H2CH2SH2C2HSH2CH2SHSC2HC2H4NCH2CH2CFeHCH4C3HC2H2C2HCH2C2HS2H5SFeSH2C3H8C2H2FeS2FeS2FeS2CSHC2HNC6H4C6H2FeCH2CH9CH2CH9CHC3H2CH2CH3NCH2CH6CHCHCH3C2HCH2SH5CH3C4H4CHNH5CH2CHCSCHCH4CHCHFeSHFeS2FeCFeS3FeS2CHCH2C6H9CH2CSH3CH3CHC3H4NCHC2H3CH4C2HCHCNH7CH2CH2C2HC3H3CH4CH2NH3C2H2CH6CH2CH3CHCH4FeHC2H2CH4C2HCSH3CH2CNHCH4CSC2H2CFeH3CH3C2H2C3H8S2C2HCH3CHC2H2SHCHCH2CH5CHC2HCFeH5CS2C4H3C2FeH3C3HCSH5CH8C3H4SCHSCSCH3C2H5CH2CHSFe2C2H2NCFeCHNC2H3CH2CH3CH4C3H2C3FeS2FeSHFeSFeS3FeS2C6H3CHCH4C5H2CHC2H2CH2NCHC5H3CH3CH4CHCH3CH3NC3HCHC2H5CH4CSH11FeH5C2H6CSHCH5C2H6CH2CHSCH2NHC2HCHSHCSH5CFeH2CH3CHCH2C2H2CH2CH5FeC2H4S3FeSFeSH2C3HC4HCH2C2H2NC4HC3H2CH10CH10C2H6C2H2C2H6SCH2CH3C2HCHS2CH2SH6C2H3C2H2NCH2CH7CHCHCFeH2NHCFeH3SC2H2C
_chemical_formula_sum              "H576 S72 C324 Fe36 N18"
_cell_length_a       36.0968
_cell_length_b       36.5812
_cell_length_c       31.5496
_cell_angle_alpha    89.1028
_cell_angle_beta     91.3562
_cell_angle_gamma    119.562

_space_group_name_H-M_alt    "P 1"
_space_group_IT_number       1

loop_
  _space_group_symop_operation_xyz
  'x, y, z'

loop_
  _atom_site_type_symbol
  _atom_site_label
  _atom_site_symmetry_multiplicity
  _atom_site_fract_x
  _atom_site_fract_y
  _atom_site_fract_z
  _atom_site_occupancy
  H   H1        1.0  0.26827  0.18676  0.15979  1.0000
  H   H2        1.0  0.29122  0.18451  0.04461  1.0000
  S   S1        1.0  0.28729  0.05481  0.08961  1.0000
  C   C1        1.0  0.20906  0.10766  0.14048  1.0000
  S   S2        1.0  0.08199  0.15399  0.05884  1.0000
  C   C2        1.0  0.09822  0.12620  0.02577  1.0000
  H   H3        1.0  0.21199  0.11946  0.17346  1.0000
  H   H4        1.0  0.24428  0.23121  0.11844  1.0000
  C   C3        1.0  0.10146  0.09218  0.04252  1.0000
  C   C4        1.0  0.26061  0.15815  0.03307  1.0000
  H   H5        1.0  0.29129  0.20293  0.10945  1.0000
  H   H6        1.0  0.09109  0.08151  0.07447  1.0000
  C   C5        1.0  0.29846  0.04964  0.14365  1.0000
  C   C6        1.0  0.11786  0.07178  0.01815  1.0000
  H   H7        1.0  0.11890  0.04488  0.03098  1.0000
  H   H8        1.0  0.03545  0.29235  0.42843  1.0000
  H   H9        1.0  0.15457  0.06671  0.09868  1.0000
  H   H10       1.0  0.25130  0.10669  0.07463  1.0000
  H   H11       1.0  0.14867  0.04705  0.19410  1.0000
  H   H12       1.0  0.24043  0.17049  0.01900  1.0000
  C   C7        1.0  0.19494  0.22543  0.07519  1.0000
  C   C8        1.0  0.33568  0.08207  0.16245  1.0000
  H   H13       1.0  0.17865  0.20883  0.04544  1.0000
  H   H14       1.0  0.24999  0.21932  0.06499  1.0000
  C   C9        1.0  0.27097  0.13705  0.99738  1.0000
  H   H15       1.0  0.34011  0.20300  0.18944  1.0000
  C   C10       1.0  0.30454  0.15760  0.13955  1.0000
  H   H16       1.0  0.07682  0.28415  0.47320  1.0000
  H   H17       1.0  0.20444  0.10423  0.05446  1.0000
  H   H18       1.0  0.22476  0.08794  0.14106  1.0000
  C   C11       1.0  0.16085  0.07735  0.13189  1.0000
  C   C12       1.0  0.32043  0.04388  0.22927  1.0000
  H   H19       1.0  0.31250  0.14683  0.11020  1.0000
  C   C13       1.0  0.22676  0.21176  0.09043  1.0000
  Fe  Fe1       1.0  0.03366  0.17024  0.03072  1.0000
  S   S3        1.0  0.33403  0.03822  0.28237  1.0000
  S   S4        1.0  0.02741  0.22770  0.04202  1.0000
  H   H20       1.0  0.17061  0.21848  0.09962  1.0000
  C   C14       1.0  0.02043  0.30986  0.44111  1.0000
  H   H21       1.0  0.14188  0.09293  0.13844  1.0000
  H   H22       1.0  0.17825  0.14678  0.07910  1.0000
  H   H23       1.0  0.18706  0.16305  0.13285  1.0000
  C   C15       1.0  0.23607  0.12630  0.06864  1.0000
  N   N1        1.0  0.23113  0.14399  0.10971  1.0000
  C   C16       1.0  0.27358  0.17470  0.12959  1.0000
  C   C17       1.0  0.20383  0.16451  0.10311  1.0000
  H   H24       1.0  0.29061  0.13109  0.16247  1.0000
  H   H25       1.0  0.21183  0.25975  0.06866  1.0000
  C   C18       1.0  0.27205  0.01430  0.16791  1.0000
  C   C19       1.0  0.34625  0.19168  0.15935  1.0000
  Fe  Fe2       1.0  0.23069  0.00938  0.04830  1.0000
  H   H26       1.0  0.03883  0.34298  0.43010  1.0000
  H   H27       1.0  0.16087  0.02036  0.15340  1.0000
  H   H28       1.0  0.10685  0.35762  0.46675  1.0000
  H   H29       1.0  0.29204  0.12483  0.00932  1.0000
  S   S5        1.0  0.16776  0.00756  0.04898  1.0000
  C   C20       1.0  0.34646  0.07941  0.20512  1.0000
  H   H30       1.0  0.02483  0.01683  0.03766  1.0000
  H   H31       1.0  0.17970  0.41863  0.47777  1.0000
  H   H32       1.0  0.04461  0.43777  0.47546  1.0000
  C   C21       1.0  0.28308  0.01145  0.21055  1.0000
  C   C22       1.0  0.14413  0.03822  0.16007  1.0000
  H   H33       1.0  0.10958  0.01737  0.15348  1.0000
  C   C23       1.0  0.09354  0.36242  0.49632  1.0000
  H   H34       1.0  0.23682  0.41203  0.78648  1.0000
  H   H35       1.0  0.25187  0.41690  0.84088  1.0000
  C   C24       1.0  0.11250  0.29219  0.53039  1.0000
  Fe  Fe3       1.0  0.10066  0.40051  0.71116  1.0000
  S   S6        1.0  0.12039  0.39940  0.64409  1.0000
  S   S7        1.0  0.06600  0.33518  0.74148  1.0000
  Fe  Fe4       1.0  0.18280  0.45542  0.66195  1.0000
  H   H36       1.0  0.17846  0.29616  0.76738  1.0000
  Fe  Fe5       1.0  0.09735  0.44488  0.62852  1.0000
  H   H37       1.0  0.20508  0.30889  0.83203  1.0000
  S   S8        1.0  0.16570  0.45316  0.73011  1.0000
  S   S9        1.0  0.07291  0.44252  0.69434  1.0000
  H   H38       1.0  0.15306  0.28986  0.69342  1.0000
  H   H39       1.0  0.03012  0.04090  0.97329  1.0000
  S   S10       1.0  0.03514  0.28474  0.93744  1.0000
  N   N2        1.0  0.19181  0.36067  0.82577  1.0000
  C   C25       1.0  0.04077  0.27938  0.80839  1.0000
  H   H40       1.0  0.16289  0.47093  0.85612  1.0000
  C   C26       1.0  0.13121  0.39153  0.52633  1.0000
  C   C27       1.0  0.01812  0.03853  0.90667  1.0000
  C   C28       1.0  0.05468  0.32121  0.79578  1.0000
  H   H41       1.0  0.04020  0.10296  0.92634  1.0000
  Fe  Fe6       1.0  0.17389  0.01722  0.97887  1.0000
  H   H42       1.0  0.26920  0.02961  0.62286  1.0000
  H   H43       1.0  0.05114  0.04495  0.90153  1.0000
  C   C29       1.0  0.06093  0.35078  0.82668  1.0000
  H   H44       1.0  0.05880  0.36180  0.89341  1.0000
  H   H45       1.0  0.11166  0.28261  0.72916  1.0000
  H   H46       1.0  0.14656  0.25784  0.54194  1.0000
  H   H47       1.0  0.30351  0.42165  0.75575  1.0000
  C   C30       1.0  0.01848  0.41436  0.49381  1.0000
  H   H48       1.0  0.14973  0.41203  0.81093  1.0000
  C   C31       1.0  0.23698  0.39347  0.81484  1.0000
  C   C32       1.0  0.12813  0.11933  0.96001  1.0000
  H   H49       1.0  0.14108  0.33168  0.70059  1.0000
  H   H50       1.0  0.13873  0.13020  0.92815  1.0000
  C   C33       1.0  0.17451  0.42106  0.83619  1.0000
  H   H51       1.0  0.20733  0.34548  0.73880  1.0000
  H   H52       1.0  0.13241  0.30111  0.88785  1.0000
  C   C34       1.0  0.14347  0.30576  0.71693  1.0000
  H   H53       1.0  0.26721  0.47609  0.72127  1.0000
  C   C35       1.0  0.16422  0.34578  0.78623  1.0000
  H   H54       1.0  0.21196  0.33697  0.87937  1.0000
  C   C36       1.0  0.05392  0.33871  0.86972  1.0000
  H   H55       1.0  0.13295  0.42227  0.88462  1.0000
  H   H56       1.0  0.32513  0.02912  0.65753  1.0000
  C   C37       1.0  0.04073  0.29709  0.88244  1.0000
  C   C38       1.0  0.17407  0.38105  0.85414  1.0000
  C   C39       1.0  0.01887  0.08050  0.90190  1.0000
  H   H57       1.0  0.04542  0.29998  0.64575  1.0000
  H   H58       1.0  0.04703  0.35183  0.56403  1.0000
  C   C40       1.0  0.02366  0.41203  0.53791  1.0000
  H   H59       1.0  0.11266  0.29805  0.56474  1.0000
  H   H60       1.0  0.08943  0.22537  0.54133  1.0000
  S   S11       1.0  0.15592  0.06267  0.94698  1.0000
  H   H61       1.0  0.02052  0.25834  0.57925  1.0000
  H   H62       1.0  0.13050  0.32499  0.79460  1.0000
  C   C41       1.0  0.11100  0.13935  0.98415  1.0000
  C   C42       1.0  0.17645  0.32301  0.75314  1.0000
  H   H63       1.0  0.16442  0.37266  0.76906  1.0000
  S   S12       1.0  0.24289  0.46425  0.63174  1.0000
  H   H64       1.0  0.14018  0.35894  0.86135  1.0000
  H   H65       1.0  0.07109  0.38291  0.81746  1.0000
  C   C43       1.0  0.16564  0.42917  0.50243  1.0000
  H   H66       1.0  0.12459  0.27504  0.83771  1.0000
  H   H67       1.0  0.11960  0.40428  0.55118  1.0000
  S   S13       1.0  0.01954  0.16726  0.96091  1.0000
  H   H68       1.0  0.18932  0.45538  0.89577  1.0000
  S   S14       1.0  0.07261  0.44821  0.56215  1.0000
  C   C44       1.0  0.34063  0.06041  0.57309  1.0000
  C   C45       1.0  0.14687  0.28920  0.86506  1.0000
  H   H69       1.0  0.33346  0.40145  0.78413  1.0000
  C   C46       1.0  0.31021  0.41272  0.78767  1.0000
  C   C47       1.0  0.19123  0.32461  0.85046  1.0000
  H   H70       1.0  0.14632  0.37518  0.54262  1.0000
  H   H71       1.0  0.08252  0.33405  0.57947  1.0000
  H   H72       1.0  0.19148  0.38914  0.88528  1.0000
  H   H73       1.0  0.17163  0.26586  0.91617  1.0000
  N   N3        1.0  0.06011  0.32056  0.51403  1.0000
  C   C48       1.0  0.01849  0.30755  0.49040  1.0000
  H   H74       1.0  0.11839  0.22929  0.89817  1.0000
  H   H75       1.0  0.20568  0.44399  0.82280  1.0000
  C   C49       1.0  0.26924  0.37791  0.80696  1.0000
  H   H76       1.0  0.19137  0.44980  0.52508  1.0000
  H   H77       1.0  0.32490  0.44095  0.80828  1.0000
  C   C50       1.0  0.01661  0.28640  0.58211  1.0000
  Fe  Fe7       1.0  0.13938  0.49528  0.70926  1.0000
  H   H78       1.0  0.27788  0.36830  0.83756  1.0000
  C   C51       1.0  0.16430  0.44367  0.87042  1.0000
  H   H79       1.0  0.04479  0.25541  0.51604  1.0000
  H   H80       1.0  0.16297  0.23892  0.86604  1.0000
  H   H81       1.0  0.25628  0.35066  0.78537  1.0000
  H   H82       1.0  0.20420  0.01520  0.66166  1.0000
  C   C52       1.0  0.01553  0.29452  0.62937  1.0000
  C   C53       1.0  0.07177  0.28673  0.50735  1.0000
  C   C54       1.0  0.03397  0.26737  0.85148  1.0000
  H   H83       1.0  0.14105  0.31841  0.51569  1.0000
  C   C55       1.0  0.05332  0.32520  0.56024  1.0000
  C   C56       1.0  0.15044  0.25376  0.88768  1.0000
  H   H84       1.0  0.03084  0.09421  0.87015  1.0000
  H   H85       1.0  0.03575  0.25621  0.78473  1.0000
  C   C57       1.0  0.11659  0.25276  0.52605  1.0000
  C   C58       1.0  0.13235  0.08592  0.97721  1.0000
  H   H86       1.0  0.29706  0.00488  0.53903  1.0000
  C   C59       1.0  0.29267  0.48956  0.65849  1.0000
  H   H87       1.0  0.31710  0.07154  0.57418  1.0000
  H   H88       1.0  0.10884  0.16575  0.97100  1.0000
  C   C60       1.0  0.31748  0.01194  0.56808  1.0000
  C   C61       1.0  0.29584  0.49078  0.70275  1.0000
  H   H89       1.0  0.02378  0.23524  0.86078  1.0000
  S   S15       1.0  0.16134  0.50110  0.64264  1.0000
  S   S16       1.0  0.23942  0.02386  0.97834  1.0000
  H   H90       1.0  0.15213  0.44784  0.48744  1.0000
  H   H91       1.0  0.28751  0.16011  0.97164  1.0000
  H   H92       1.0  0.07871  0.38193  0.48701  1.0000
  H   H93       1.0  0.11755  0.24564  0.49211  1.0000
  H   H94       1.0  0.24133  0.11063  0.98390  1.0000
  S   S17       1.0  0.20064  0.93960  0.03897  1.0000
  Fe  Fe8       1.0  0.13809  0.93920  0.03279  1.0000
  S   S18       1.0  0.07598  0.89622  0.06507  1.0000
  H   H95       1.0  0.32906  0.82845  0.47689  1.0000
  H   H96       1.0  0.30304  0.97803  0.09633  1.0000
  C   C62       1.0  0.34142  0.80599  0.47850  1.0000
  C   C63       1.0  0.02963  0.87474  0.03264  1.0000
  C   C64       1.0  0.02493  0.78161  0.09344  1.0000
  H   H97       1.0  0.26270  0.98385  0.22908  1.0000
  H   H98       1.0  0.04488  0.79928  0.06605  1.0000
  H   H99       1.0  0.34315  0.95676  0.22007  1.0000
  H   H100      1.0  0.03231  0.97164  0.04019  1.0000
  H   H101      1.0  0.24336  0.98906  0.15379  1.0000
  H   H102      1.0  0.33387  0.91806  0.46773  1.0000
  H   H103      1.0  0.33226  0.95676  0.06998  1.0000
  H   H104      1.0  0.03057  0.75498  0.10097  1.0000
  C   C65       1.0  0.33173  0.98605  0.07751  1.0000
  C   C66       1.0  0.02892  0.85909  0.99228  1.0000
  H   H105      1.0  0.03509  0.80335  0.12089  1.0000
  H   H106      1.0  0.32925  0.00080  0.04730  1.0000
  Fe  Fe9       1.0  0.26397  0.78530  0.66760  1.0000
  S   S19       1.0  0.29277  0.81205  0.73115  1.0000
  S   S20       1.0  0.20518  0.72344  0.65250  1.0000
  Fe  Fe10      1.0  0.29596  0.87194  0.70784  1.0000
  S   S21       1.0  0.26858  0.91006  0.73694  1.0000
  S   S22       1.0  0.26272  0.84321  0.64622  1.0000
  Fe  Fe11      1.0  0.20596  0.95385  0.96858  1.0000
  S   S23       1.0  0.23242  0.91798  0.93272  1.0000
  S   S24       1.0  0.14100  0.94843  0.96234  1.0000
  C   C67       1.0  0.27382  0.94074  0.59629  1.0000
  S   S25       1.0  0.15756  0.55288  0.74927  1.0000
  H   H107      1.0  0.25889  0.60573  0.74615  1.0000
  C   C68       1.0  0.16146  0.78547  0.71433  1.0000
  C   C69       1.0  0.18849  0.98280  0.64869  1.0000
  H   H108      1.0  0.26707  0.75893  0.86641  1.0000
  N   N4        1.0  0.29126  0.98682  0.60524  1.0000
  C   C70       1.0  0.19354  0.67669  0.67981  1.0000
  C   C71       1.0  0.17022  0.63822  0.65873  1.0000
  C   C72       1.0  0.15929  0.60018  0.67974  1.0000
  C   C73       1.0  0.17090  0.60029  0.72231  1.0000
  C   C74       1.0  0.19349  0.63876  0.74378  1.0000
  C   C75       1.0  0.20519  0.67694  0.72244  1.0000
  H   H109      1.0  0.16056  0.63781  0.62592  1.0000
  H   H110      1.0  0.14122  0.57071  0.66315  1.0000
  H   H111      1.0  0.20232  0.63900  0.77682  1.0000
  H   H112      1.0  0.22251  0.70646  0.73906  1.0000
  C   C76       1.0  0.26060  0.91375  0.79170  1.0000
  C   C77       1.0  0.27667  0.89772  0.82315  1.0000
  C   C78       1.0  0.26817  0.89986  0.86614  1.0000
  C   C79       1.0  0.24415  0.91862  0.87830  1.0000
  C   C80       1.0  0.22867  0.93529  0.84690  1.0000
  C   C81       1.0  0.23680  0.93275  0.80382  1.0000
  H   H113      1.0  0.21004  0.94968  0.85579  1.0000
  H   H114      1.0  0.22438  0.94544  0.77977  1.0000
  Fe  Fe12      1.0  0.32720  0.86529  0.61959  1.0000
  C   C82       1.0  0.15910  0.81229  0.67782  1.0000
  H   H115      1.0  0.29555  0.88356  0.81440  1.0000
  H   H116      1.0  0.18070  0.83669  0.75856  1.0000
  C   C83       1.0  0.12699  0.73566  0.79924  1.0000
  H   H117      1.0  0.18519  0.84537  0.68087  1.0000
  H   H118      1.0  0.16248  0.79965  0.64723  1.0000
  H   H119      1.0  0.12797  0.81156  0.67735  1.0000
  H   H120      1.0  0.08761  0.83036  0.88035  1.0000
  H   H121      1.0  0.14486  0.85799  0.88513  1.0000
  H   H122      1.0  0.09702  0.73229  0.78475  1.0000
  H   H123      1.0  0.18712  0.83697  0.83567  1.0000
  H   H124      1.0  0.02797  0.94152  0.97336  1.0000
  H   H125      1.0  0.10318  0.63610  0.76258  1.0000
  C   C84       1.0  0.03261  0.97000  0.95547  1.0000
  H   H126      1.0  0.34266  0.67070  0.62034  1.0000
  H   H127      1.0  0.32030  0.59104  0.60160  1.0000
  C   C85       1.0  0.25869  0.76810  0.83546  1.0000
  H   H128      1.0  0.30427  0.58728  0.79154  1.0000
  H   H129      1.0  0.20335  0.93516  0.63172  1.0000
  H   H130      1.0  0.29080  0.70912  0.75581  1.0000
  H   H131      1.0  0.05275  0.91083  0.91911  1.0000
  H   H132      1.0  0.25209  0.74313  0.81205  1.0000
  H   H133      1.0  0.26120  0.93543  0.52751  1.0000
  H   H134      1.0  0.08400  0.98669  0.91090  1.0000
  H   H135      1.0  0.05761  0.86112  0.98000  1.0000
  H   H136      1.0  0.30159  0.68760  0.66181  1.0000
  C   C86       1.0  0.26658  0.58189  0.73459  1.0000
  H   H137      1.0  0.25995  0.57183  0.63338  1.0000
  C   C87       1.0  0.24316  0.92309  0.55726  1.0000
  C   C88       1.0  0.22144  0.87518  0.55566  1.0000
  C   C89       1.0  0.29793  0.66455  0.68712  1.0000
  H   H138      1.0  0.24838  0.54902  0.79472  1.0000
  H   H139      1.0  0.08947  0.77806  0.83244  1.0000
  C   C90       1.0  0.25785  0.62369  0.60068  1.0000
  H   H140      1.0  0.26548  0.65346  0.69926  1.0000
  H   H141      1.0  0.21668  0.56512  0.56726  1.0000
  C   C91       1.0  0.32997  0.50780  0.63468  1.0000
  H   H142      1.0  0.32297  0.74508  0.71452  1.0000
  H   H143      1.0  0.22843  0.79896  0.86404  1.0000
  H   H144      1.0  0.16089  0.78914  0.86479  1.0000
  N   N5        1.0  0.30151  0.62853  0.66887  1.0000
  C   C92       1.0  0.30416  0.60072  0.70322  1.0000
  H   H145      1.0  0.14847  0.71095  0.74660  1.0000
  H   H146      1.0  0.11432  0.80521  0.90605  1.0000
  C   C93       1.0  0.04865  0.96786  0.91051  1.0000
  H   H147      1.0  0.12513  0.79979  0.75608  1.0000
  H   H148      1.0  0.33491  0.61749  0.72121  1.0000
  H   H149      1.0  0.28643  0.79812  0.82512  1.0000
  H   H150      1.0  0.03800  0.98161  0.88498  1.0000
  H   H151      1.0  0.28474  0.63181  0.57920  1.0000
  H   H152      1.0  0.30016  0.93416  0.59032  1.0000
  C   C94       1.0  0.11633  0.82664  0.87976  1.0000
  H   H153      1.0  0.21765  0.93156  0.55762  1.0000
  C   C95       1.0  0.21691  0.59450  0.57619  1.0000
  H   H154      1.0  0.32773  0.50653  0.60042  1.0000
  C   C96       1.0  0.11874  0.80891  0.83695  1.0000
  H   H155      1.0  0.11932  0.83120  0.81231  1.0000
  H   H156      1.0  0.23309  0.59321  0.66044  1.0000
  H   H157      1.0  0.16385  0.96160  0.67132  1.0000
  C   C97       1.0  0.27638  0.56279  0.77367  1.0000
  C   C98       1.0  0.13577  0.70219  0.77894  1.0000
  H   H158      1.0  0.31512  0.77491  0.48863  1.0000
  C   C99       1.0  0.09542  0.65931  0.77625  1.0000
  H   H159      1.0  0.25776  0.92142  0.62471  1.0000
  H   H160      1.0  0.30478  0.57338  0.68900  1.0000
  S   S26       1.0  0.32591  0.80465  0.63607  1.0000
  H   H161      1.0  0.11900  0.72554  0.83286  1.0000
  H   H162      1.0  0.23767  0.55665  0.71862  1.0000
  H   H163      1.0  0.18856  0.58640  0.59554  1.0000
  H   H164      1.0  0.21465  0.61042  0.54678  1.0000
  H   H165      1.0  0.08213  0.64815  0.80826  1.0000
  C   C100      1.0  0.26227  0.60235  0.64188  1.0000
  H   H166      1.0  0.15952  0.69808  0.79834  1.0000
  H   H167      1.0  0.25685  0.65275  0.60808  1.0000
  H   H168      1.0  0.20946  0.76716  0.77228  1.0000
  C   C101      1.0  0.33062  0.68986  0.72278  1.0000
  C   C102      1.0  0.20600  0.78564  0.79781  1.0000
  C   C103      1.0  0.15712  0.80237  0.75749  1.0000
  C   C104      1.0  0.15928  0.80455  0.83465  1.0000
  H   H169      1.0  0.20192  0.86100  0.58425  1.0000
  H   H170      1.0  0.23028  0.81869  0.79057  1.0000
  H   H171      1.0  0.28033  0.88694  0.89022  1.0000
  H   H172      1.0  0.19355  0.74406  0.85361  1.0000
  C   C105      1.0  0.21973  0.77360  0.84044  1.0000
  H   H173      1.0  0.13475  0.75312  0.70923  1.0000
  N   N6        1.0  0.16208  0.78106  0.79689  1.0000
  H   H174      1.0  0.19218  0.78575  0.71207  1.0000
  H   H175      1.0  0.07110  0.66099  0.75535  1.0000
  H   H176      1.0  0.20021  0.86355  0.52718  1.0000
  H   H177      1.0  0.28296  0.53751  0.76451  1.0000
  H   H178      1.0  0.04838  0.92394  0.86491  1.0000
  C   C106      1.0  0.32218  0.72368  0.74028  1.0000
  H   H179      1.0  0.24546  0.86474  0.55361  1.0000
  H   H180      1.0  0.32887  0.66949  0.74991  1.0000
  C   C107      1.0  0.03696  0.92330  0.89743  1.0000
  H   H181      1.0  0.23512  0.96831  0.67477  1.0000
  C   C108      1.0  0.34153  0.64671  0.64323  1.0000
  S   S27       1.0  0.33521  0.88593  0.55052  1.0000
  C   C109      1.0  0.22102  0.96810  0.64308  1.0000
  H   H182      1.0  0.29926  0.97540  0.67140  1.0000
  C   C110      1.0  0.33621  0.51036  0.72300  1.0000
  H   H183      1.0  0.33860  0.51098  0.75725  1.0000
  H   H184      1.0  0.05990  0.99663  0.97208  1.0000
  H   H185      1.0  0.34707  0.74250  0.76439  1.0000
  H   H186      1.0  0.17252  0.98210  0.61793  1.0000
  C   C111      1.0  0.31773  0.99769  0.64566  1.0000
  H   H187      1.0  0.23995  0.99629  0.58047  1.0000
  C   C112      1.0  0.25586  0.99681  0.61129  1.0000
  H   H188      1.0  0.34128  0.00230  0.56010  1.0000
  Fe  Fe13      1.0  0.39735  0.08201  0.31564  1.0000
  S   S28       1.0  0.39781  0.10866  0.37980  1.0000
  H   H189      1.0  0.64637  0.16425  0.40168  1.0000
  Fe  Fe14      1.0  0.49401  0.12004  0.31691  1.0000
  S   S29       1.0  0.50138  0.14899  0.38073  1.0000
  S   S30       1.0  0.55004  0.12894  0.27769  1.0000
  Fe  Fe15      1.0  0.44456  0.08766  0.39968  1.0000
  C   C113      1.0  0.66139  0.34429  0.40045  1.0000
  Fe  Fe16      1.0  0.45443  0.16781  0.35618  1.0000
  S   S31       1.0  0.46526  0.23171  0.37649  1.0000
  S   S32       1.0  0.44076  0.05689  0.33720  1.0000
  S   S33       1.0  0.45023  0.14284  0.29043  1.0000
  Fe  Fe17      1.0  0.62357  0.46116  0.31259  1.0000
  S   S34       1.0  0.57589  0.40275  0.27715  1.0000
  S   S35       1.0  0.64711  0.45796  0.37767  1.0000
  C   C114      1.0  0.60059  0.15155  0.30347  1.0000
  H   H190      1.0  0.36808  0.40054  0.44834  1.0000
  C   C115      1.0  0.60402  0.15052  0.34763  1.0000
  H   H191      1.0  0.47157  0.09181  0.22423  1.0000
  H   H192      1.0  0.57560  0.13605  0.36645  1.0000
  C   C116      1.0  0.49874  0.27782  0.34799  1.0000
  C   C117      1.0  0.52660  0.31436  0.37040  1.0000
  C   C118      1.0  0.55133  0.35247  0.34886  1.0000
  C   C119      1.0  0.54759  0.35466  0.30483  1.0000
  C   C120      1.0  0.52002  0.31804  0.28232  1.0000
  C   C121      1.0  0.49582  0.27966  0.30378  1.0000
  H   H193      1.0  0.52892  0.31312  0.40459  1.0000
  H   H194      1.0  0.57265  0.38019  0.36647  1.0000
  H   H195      1.0  0.51696  0.31944  0.24823  1.0000
  H   H196      1.0  0.47406  0.25171  0.28631  1.0000
  H   H197      1.0  0.47559  0.37025  0.27355  1.0000
  H   H198      1.0  0.64852  0.33561  0.25021  1.0000
  H   H199      1.0  0.44448  0.07645  0.12986  1.0000
  H   H200      1.0  0.42728  0.32145  0.28243  1.0000
  H   H201      1.0  0.37514  0.10466  0.21923  1.0000
  C   C122      1.0  0.66452  0.37524  0.43423  1.0000
  H   H202      1.0  0.51156  0.42018  0.33591  1.0000
  H   H203      1.0  0.50305  0.14869  0.14537  1.0000
  C   C123      1.0  0.43680  0.06790  0.16362  1.0000
  S   S36       1.0  0.44886  0.06585  0.46694  1.0000
  H   H204      1.0  0.46439  0.42428  0.33259  1.0000
  H   H205      1.0  0.39327  0.03142  0.22947  1.0000
  H   H206      1.0  0.42549  0.36983  0.27852  1.0000
  C   C124      1.0  0.49883  0.49322  0.37483  1.0000
  H   H207      1.0  0.57634  0.28526  0.26781  1.0000
  H   H208      1.0  0.51631  0.47529  0.43467  1.0000
  H   H209      1.0  0.46825  0.34312  0.34794  1.0000
  C   C125      1.0  0.46150  0.01106  0.11329  1.0000
  H   H210      1.0  0.46407  0.48128  0.37649  1.0000
  C   C126      1.0  0.51242  0.46540  0.40109  1.0000
  C   C127      1.0  0.44469  0.35547  0.29019  1.0000
  C   C128      1.0  0.63790  0.16988  0.27947  1.0000
  H   H211      1.0  0.44334  0.45887  0.44447  1.0000
  H   H212      1.0  0.37140  0.04633  0.10580  1.0000
  H   H213      1.0  0.47135  0.15198  0.18736  1.0000
  H   H214      1.0  0.53865  0.20742  0.26728  1.0000
  N   N7        1.0  0.65675  0.33360  0.31864  1.0000
  C   C129      1.0  0.65430  0.35543  0.27847  1.0000
  H   H215      1.0  0.42547  0.36924  0.42308  1.0000
  C   C130      1.0  0.37226  0.01664  0.10181  1.0000
  C   C131      1.0  0.54171  0.38442  0.48200  1.0000
  H   H216      1.0  0.52817  0.35083  0.47337  1.0000
  H   H217      1.0  0.59207  0.29932  0.34175  1.0000
  H   H218      1.0  0.62062  0.27149  0.34645  1.0000
  C   C132      1.0  0.47945  0.40819  0.34998  1.0000
  H   H219      1.0  0.52455  0.16162  0.19860  1.0000
  H   H220      1.0  0.41352  0.07830  0.17108  1.0000
  H   H221      1.0  0.35651  0.10928  0.14374  1.0000
  H   H222      1.0  0.63127  0.31446  0.40556  1.0000
  C   C133      1.0  0.61531  0.29315  0.32512  1.0000
  C   C134      1.0  0.45209  0.36097  0.33814  1.0000
  H   H223      1.0  0.63550  0.17060  0.24528  1.0000
  C   C135      1.0  0.55498  0.22494  0.29654  1.0000
  H   H224      1.0  0.63884  0.37287  0.35321  1.0000
  C   C136      1.0  0.64422  0.16650  0.36756  1.0000
  N   N8        1.0  0.48383  0.41853  0.39674  1.0000
  H   H225      1.0  0.56799  0.20729  0.31431  1.0000
  H   H226      1.0  0.62628  0.36036  0.27963  1.0000
  H   H227      1.0  0.54523  0.47445  0.39121  1.0000
  H   H228      1.0  0.53764  0.40841  0.40343  1.0000
  H   H229      1.0  0.42050  0.34628  0.35327  1.0000
  H   H230      1.0  0.61139  0.26424  0.26236  1.0000
  H   H231      1.0  0.53147  0.22717  0.31670  1.0000
  C   C137      1.0  0.59080  0.26843  0.28484  1.0000
  H   H232      1.0  0.50333  0.08815  0.18292  1.0000
  H   H233      1.0  0.66498  0.36243  0.46625  1.0000
  C   C138      1.0  0.44007  0.40320  0.41459  1.0000
  H   H234      1.0  0.63660  0.38028  0.43174  1.0000
  H   H235      1.0  0.41831  0.40491  0.38997  1.0000
  C   C139      1.0  0.50582  0.39683  0.41778  1.0000
  C   C140      1.0  0.47794  0.09581  0.18978  1.0000
  H   H236      1.0  0.65918  0.42009  0.22696  1.0000
  C   C141      1.0  0.43699  0.42692  0.45367  1.0000
  C   C142      1.0  0.66309  0.36245  0.35522  1.0000
  C   C143      1.0  0.49513  0.14234  0.17945  1.0000
  H   H237      1.0  0.48776  0.36242  0.41222  1.0000
  H   H238      1.0  0.57378  0.40305  0.46795  1.0000
  H   H239      1.0  0.66809  0.26405  0.28840  1.0000
  C   C144      1.0  0.51239  0.40113  0.46645  1.0000
  H   H240      1.0  0.50698  0.49359  0.34101  1.0000
  H   H241      1.0  0.39970  0.02393  0.08171  1.0000
  H   H242      1.0  0.52698  0.43414  0.47694  1.0000
  H   H243      1.0  0.47452  0.04401  0.10246  1.0000
  C   C145      1.0  0.67832  0.18658  0.29954  1.0000
  H   H244      1.0  0.52513  0.02081  0.12799  1.0000
  H   H245      1.0  0.47494  0.01876  0.18096  1.0000
  N   N9        1.0  0.41662  0.02107  0.17067  1.0000
  H   H246      1.0  0.43727  0.02295  0.23628  1.0000
  H   H247      1.0  0.50550  0.02288  0.47676  1.0000
  H   H248      1.0  0.36770  0.17864  0.16663  1.0000
  C   C146      1.0  0.40724  0.01251  0.21744  1.0000
  C   C147      1.0  0.44632  0.00482  0.15958  1.0000
  H   H249      1.0  0.36269  0.21857  0.13711  1.0000
  H   H250      1.0  0.38514  0.37219  0.48410  1.0000
  C   C148      1.0  0.39248  0.40384  0.47243  1.0000
  H   H251      1.0  0.46008  0.43070  0.47920  1.0000
  H   H252      1.0  0.48134  0.38230  0.48224  1.0000
  H   H253      1.0  0.54543  0.38720  0.51703  1.0000
  H   H254      1.0  0.38399  0.11690  0.53857  1.0000
  H   H255      1.0  0.44758  0.03477  0.55083  1.0000
  H   H256      1.0  0.36066  0.07082  0.60236  1.0000
  C   C149      1.0  0.41555  0.01610  0.48997  1.0000
  H   H257      1.0  0.54423  0.00942  0.49727  1.0000
  H   H258      1.0  0.38213  0.02049  0.62036  1.0000
  C   C150      1.0  0.42240  0.00940  0.53279  1.0000
  H   H259      1.0  0.35175  0.07237  0.50509  1.0000
  H   H260      1.0  0.41323  0.00587  0.68423  1.0000
  H   H261      1.0  0.39610  0.07493  0.53544  1.0000
  C   C151      1.0  0.36974  0.08231  0.53570  1.0000
  H   H262      1.0  0.39127  0.03915  0.69686  1.0000
  C   C152      1.0  0.38323  0.00714  0.68653  1.0000
  H   H263      1.0  0.56255  0.49760  0.53245  1.0000
  H   H264      1.0  0.39091  0.42196  0.49962  1.0000
  H   H265      1.0  0.43466  0.98983  0.09210  1.0000
  H   H266      1.0  0.60237  0.56477  0.11882  1.0000
  Fe  Fe18      1.0  0.63989  0.51381  0.39299  1.0000
  H   H267      1.0  0.51220  0.55792  0.37063  1.0000
  C   C153      1.0  0.64654  0.72410  0.10684  1.0000
  C   C154      1.0  0.60764  0.58062  0.46461  1.0000
  H   H268      1.0  0.34896  0.99900  0.16413  1.0000
  H   H269      1.0  0.49496  0.91573  0.47236  1.0000
  C   C155      1.0  0.37638  0.95944  0.27800  1.0000
  H   H270      1.0  0.43105  0.97049  0.16565  1.0000
  H   H271      1.0  0.62815  0.51436  0.10791  1.0000
  H   H272      1.0  0.51534  0.54069  0.42380  1.0000
  H   H273      1.0  0.35383  0.92610  0.28591  1.0000
  C   C156      1.0  0.64894  0.65870  0.08605  1.0000
  C   C157      1.0  0.52237  0.53874  0.39006  1.0000
  H   H274      1.0  0.42351  0.86336  0.46421  1.0000
  C   C158      1.0  0.63379  0.69021  0.07304  1.0000
  S   S37       1.0  0.60938  0.50603  0.45746  1.0000
  H   H275      1.0  0.62558  0.59059  0.43566  1.0000
  H   H276      1.0  0.55728  0.55216  0.38665  1.0000
  H   H277      1.0  0.63678  0.74723  0.09617  1.0000
  C   C159      1.0  0.51383  0.99741  0.47895  1.0000
  H   H278      1.0  0.37771  0.98791  0.43380  1.0000
  H   H279      1.0  0.63466  0.52998  0.16275  1.0000
  C   C160      1.0  0.37488  0.99851  0.14600  1.0000
  N   N10       1.0  0.64046  0.62460  0.05461  1.0000
  H   H280      1.0  0.63296  0.64503  0.11652  1.0000
  C   C161      1.0  0.38323  0.98310  0.46677  1.0000
  H   H281      1.0  0.63064  0.70987  0.13723  1.0000
  H   H282      1.0  0.57453  0.59639  0.07288  1.0000
  H   H283      1.0  0.36602  0.97938  0.29445  1.0000
  H   H284      1.0  0.48522  0.96654  0.11831  1.0000
  C   C162      1.0  0.37634  0.96598  0.23004  1.0000
  S   S38       1.0  0.61112  0.51362  0.32888  1.0000
  C   C163      1.0  0.49663  0.99965  0.10848  1.0000
  C   C164      1.0  0.65610  0.59669  0.07463  1.0000
  H   H285      1.0  0.65247  0.60117  0.14368  1.0000
  H   H286      1.0  0.36523  0.96472  0.14223  1.0000
  C   C165      1.0  0.59331  0.59829  0.04457  1.0000
  Fe  Fe19      1.0  0.67872  0.55652  0.30813  1.0000
  H   H287      1.0  0.59854  0.67383  0.07029  1.0000
  H   H288      1.0  0.51823  0.98951  0.44627  1.0000
  H   H289      1.0  0.64764  0.70608  0.04260  1.0000
  C   C166      1.0  0.57556  0.61225  0.00593  1.0000
  H   H290      1.0  0.40866  0.96720  0.28985  1.0000
  H   H291      1.0  0.58457  0.56510  0.03810  1.0000
  H   H292      1.0  0.51484  0.55375  0.00251  1.0000
  C   C167      1.0  0.63727  0.57714  0.11842  1.0000
  C   C168      1.0  0.64566  0.54109  0.13003  1.0000
  H   H293      1.0  0.58597  0.64619  0.00627  1.0000
  H   H294      1.0  0.64916  0.57007  0.05326  1.0000
  C   C169      1.0  0.66671  0.64463  0.01574  1.0000
  C   C170      1.0  0.52689  0.58812  0.00444  1.0000
  C   C171      1.0  0.59533  0.54079  0.48144  1.0000
  H   H295      1.0  0.60723  0.63888  0.47257  1.0000
  H   H296      1.0  0.38492  0.94401  0.21522  1.0000
  H   H297      1.0  0.51396  0.59491  0.03304  1.0000
  H   H298      1.0  0.65628  0.66490  0.99885  1.0000
  H   H299      1.0  0.44860  0.94977  0.48177  1.0000
  H   H300      1.0  0.68024  0.55174  0.12895  1.0000
  H   H301      1.0  0.35156  0.80274  0.44647  1.0000
  H   H302      1.0  0.50614  0.00323  0.07477  1.0000
  S   S39       1.0  0.40752  0.82774  0.73052  1.0000
  S   S40       1.0  0.42375  0.55329  0.72537  1.0000
  C   C172      1.0  0.37355  0.52931  0.69913  1.0000
  C   C173      1.0  0.42687  0.79928  0.70275  1.0000
  H   H303      1.0  0.53279  0.89019  0.55993  1.0000
  C   C174      1.0  0.42298  0.79602  0.65864  1.0000
  H   H304      1.0  0.40742  0.81040  0.64127  1.0000
  H   H305      1.0  0.37018  0.66436  0.66404  1.0000
  H   H306      1.0  0.39872  0.54158  0.63616  1.0000
  C   C175      1.0  0.38444  0.63617  0.58695  1.0000
  H   H307      1.0  0.41426  0.65988  0.60286  1.0000
  C   C176      1.0  0.37025  0.52788  0.65488  1.0000
  C   C177      1.0  0.44747  0.78055  0.72492  1.0000
  H   H308      1.0  0.44991  0.78242  0.75912  1.0000
  H   H309      1.0  0.39064  0.61258  0.57172  1.0000
  S   S41       1.0  0.36125  0.89839  0.67964  1.0000
  H   H310      1.0  0.41960  0.86062  0.58339  1.0000
  C   C178      1.0  0.44392  0.89052  0.56887  1.0000
  H   H311      1.0  0.42827  0.91014  0.56639  1.0000
  C   C179      1.0  0.39754  0.96994  0.55215  1.0000
  H   H312      1.0  0.58409  0.67458  0.81246  1.0000
  H   H313      1.0  0.43980  0.89268  0.65685  1.0000
  C   C180      1.0  0.44074  0.77547  0.63673  1.0000
  H   H314      1.0  0.43802  0.77342  0.60259  1.0000
  H   H315      1.0  0.45278  0.82696  0.55312  1.0000
  H   H316      1.0  0.40397  0.96488  0.58470  1.0000
  H   H317      1.0  0.56368  0.54250  0.64967  1.0000
  H   H318      1.0  0.35432  0.96556  0.63401  1.0000
  C   C181      1.0  0.63919  0.80797  0.82028  1.0000
  H   H319      1.0  0.49130  0.88747  0.61102  1.0000
  C   C182      1.0  0.59157  0.83563  0.80176  1.0000
  C   C183      1.0  0.46496  0.75954  0.70292  1.0000
  H   H320      1.0  0.64843  0.80395  0.74274  1.0000
  C   C184      1.0  0.46245  0.75790  0.65863  1.0000
  Fe  Fe20      1.0  0.47997  0.60477  0.69055  1.0000
  H   H321      1.0  0.58499  0.83305  0.83630  1.0000
  H   H322      1.0  0.36593  0.82190  0.54181  1.0000
  H   H323      1.0  0.64774  0.78326  0.81379  1.0000
  H   H324      1.0  0.51201  0.86152  0.77816  1.0000
  H   H325      1.0  0.59220  0.79499  0.63826  1.0000
  C   C185      1.0  0.62776  0.69956  0.86616  1.0000
  S   S42       1.0  0.50936  0.66911  0.72013  1.0000
  S   S43       1.0  0.57194  0.70022  0.63917  1.0000
  C   C186      1.0  0.57475  0.59589  0.52379  1.0000
  C   C187      1.0  0.64891  0.71125  0.79233  1.0000
  C   C188      1.0  0.56885  0.75955  0.79112  1.0000
  C   C189      1.0  0.50781  0.70063  0.83115  1.0000
  H   H326      1.0  0.49322  0.69019  0.86278  1.0000
  H   H327      1.0  0.52485  0.80151  0.77834  1.0000
  H   H328      1.0  0.48124  0.74561  0.72002  1.0000
  C   C190      1.0  0.36022  0.99701  0.64341  1.0000
  C   C191      1.0  0.48853  0.92275  0.50477  1.0000
  Fe  Fe21      1.0  0.53940  0.63411  0.61497  1.0000
  H   H329      1.0  0.61683  0.54507  0.60066  1.0000
  H   H330      1.0  0.61664  0.61033  0.61135  1.0000
  H   H331      1.0  0.65416  0.63906  0.92604  1.0000
  C   C192      1.0  0.59319  0.79282  0.70697  1.0000
  C   C193      1.0  0.59153  0.54035  0.66228  1.0000
  C   C194      1.0  0.56187  0.55579  0.54032  1.0000
  H   H332      1.0  0.62745  0.80230  0.85331  1.0000
  C   C195      1.0  0.52737  0.83088  0.54489  1.0000
  S   S44       1.0  0.54304  0.60749  0.67894  1.0000
  H   H333      1.0  0.51382  0.81674  0.57609  1.0000
  H   H334      1.0  0.48380  0.70150  0.80906  1.0000
  H   H335      1.0  0.58028  0.73775  0.78127  1.0000
  H   H336      1.0  0.36302  0.98386  0.71080  1.0000
  H   H337      1.0  0.56584  0.89600  0.79637  1.0000
  C   C196      1.0  0.46615  0.92140  0.64247  1.0000
  H   H338      1.0  0.53717  0.76574  0.84749  1.0000
  H   H339      1.0  0.51520  0.59794  0.97598  1.0000
  H   H340      1.0  0.52884  0.85356  0.83001  1.0000
  H   H341      1.0  0.45527  0.94455  0.63574  1.0000
  H   H342      1.0  0.51347  0.80611  0.52020  1.0000
  H   H343      1.0  0.56942  0.74131  0.85798  1.0000
  H   H344      1.0  0.54315  0.75419  0.76793  1.0000
  H   H345      1.0  0.50807  0.93963  0.58985  1.0000
  C   C197      1.0  0.48074  0.91037  0.60194  1.0000
  C   C198      1.0  0.54737  0.74410  0.83474  1.0000
  C   C199      1.0  0.51850  0.86679  0.53425  1.0000
  H   H346      1.0  0.47444  0.96917  0.53265  1.0000
  H   H347      1.0  0.64337  0.68074  0.63035  1.0000
  H   H348      1.0  0.37512  0.65193  0.56194  1.0000
  H   H349      1.0  0.61815  0.86827  0.79723  1.0000
  S   S45       1.0  0.56528  0.63289  0.54999  1.0000
  C   C200      1.0  0.57216  0.52839  0.51919  1.0000
  H   H350      1.0  0.38886  0.79704  0.51155  1.0000
  S   S46       1.0  0.63699  0.70796  0.73713  1.0000
  C   C201      1.0  0.62852  0.56118  0.63162  1.0000
  S   S47       1.0  0.47429  0.62615  0.62486  1.0000
  C   C202      1.0  0.61702  0.69311  0.82261  1.0000
  H   H351      1.0  0.62557  0.84521  0.66281  1.0000
  H   H352      1.0  0.56228  0.84304  0.54679  1.0000
  H   H353      1.0  0.51950  0.93621  0.52211  1.0000
  C   C203      1.0  0.36551  0.93686  0.52879  1.0000
  C   C204      1.0  0.47001  0.85042  0.52776  1.0000
  H   H354      1.0  0.35894  0.59737  0.64204  1.0000
  H   H355      1.0  0.65611  0.66074  0.55712  1.0000
  H   H356      1.0  0.51640  0.67729  0.81960  1.0000
  H   H357      1.0  0.60096  0.55548  0.69393  1.0000
  H   H358      1.0  0.60280  0.68598  0.88932  1.0000
  C   C205      1.0  0.41550  0.86513  0.49777  1.0000
  H   H359      1.0  0.54429  0.54607  0.56947  1.0000
  H   H360      1.0  0.58279  0.75878  0.70699  1.0000
  C   C206      1.0  0.64417  0.60894  0.62649  1.0000
  H   H361      1.0  0.56116  0.84370  0.74413  1.0000
  S   S48       1.0  0.48887  0.73769  0.62881  1.0000
  Fe  Fe22      1.0  0.50740  0.69046  0.65356  1.0000
  Fe  Fe23      1.0  0.57188  0.67355  0.70376  1.0000
  C   C207      1.0  0.55281  0.83350  0.77747  1.0000
  C   C208      1.0  0.62400  0.81410  0.74529  1.0000
  H   H362      1.0  0.56429  0.79592  0.70781  1.0000
  H   H363      1.0  0.64132  0.84865  0.73951  1.0000
  N   N11       1.0  0.60503  0.80432  0.78916  1.0000
  C   C209      1.0  0.67046  0.72356  0.87996  1.0000
  Fe  Fe24      1.0  0.35535  0.83580  0.69807  1.0000
  C   C210      1.0  0.53924  0.86303  0.79685  1.0000
  H   H364      1.0  0.49297  0.93531  0.66587  1.0000
  N   N12       1.0  0.45528  0.88270  0.52551  1.0000
  C   C211      1.0  0.61503  0.81114  0.66488  1.0000
  C   C212      1.0  0.37855  0.82102  0.51038  1.0000
  H   H365      1.0  0.58179  0.50657  0.66604  1.0000
  H   H366      1.0  0.67525  0.87586  0.83348  1.0000
  H   H367      1.0  0.63650  0.58404  0.98123  1.0000
  C   C213      1.0  0.47806  0.95904  0.50082  1.0000
  H   H368      1.0  0.36348  0.70558  0.71053  1.0000
  H   H369      1.0  0.64387  0.72197  0.56685  1.0000
  C   C214      1.0  0.35845  0.94361  0.48611  1.0000
  H   H370      1.0  0.58661  0.60592  0.97583  1.0000
  H   H371      1.0  0.46156  0.83202  0.49777  1.0000
  H   H372      1.0  0.64289  0.80632  0.66141  1.0000
  C   C215      1.0  0.67112  0.73499  0.58986  1.0000
  H   H373      1.0  0.65645  0.59741  0.54517  1.0000
  H   H374      1.0  0.66620  0.75476  0.61295  1.0000
  H   H375      1.0  0.64779  0.62257  0.65870  1.0000
  H   H376      1.0  0.40160  0.88629  0.49754  1.0000
  C   C216      1.0  0.67370  0.69943  0.61339  1.0000
  C   C217      1.0  0.66764  0.61342  0.98348  1.0000
  C   C218      1.0  0.68111  0.85093  0.82118  1.0000
  H   H377      1.0  0.65395  0.55493  0.64323  1.0000
  H   H378      1.0  0.53543  0.88194  0.50452  1.0000
  C   C219      1.0  0.67916  0.63249  0.93906  1.0000
  C   C220      1.0  0.34906  0.61438  0.61914  1.0000
  C   C221      1.0  0.59725  0.60794  0.48565  1.0000
  Fe  Fe25      1.0  0.79629  0.25196  0.35278  1.0000
  S   S49       1.0  0.82464  0.28093  0.28990  1.0000
  S   S50       1.0  0.73063  0.19986  0.37045  1.0000
  Fe  Fe26      1.0  0.87627  0.31280  0.40365  1.0000
  S   S51       1.0  0.91083  0.34708  0.34506  1.0000
  H   H379      1.0  0.01384  0.41088  0.22979  1.0000
  Fe  Fe27      1.0  0.84887  0.34259  0.32363  1.0000
  S   S52       1.0  0.84748  0.39669  0.28892  1.0000
  Fe  Fe28      1.0  0.88450  0.28298  0.31533  1.0000
  S   S53       1.0  0.93352  0.27425  0.27884  1.0000
  S   S54       1.0  0.81627  0.31346  0.38447  1.0000
  S   S55       1.0  0.85434  0.24897  0.37593  1.0000
  Fe  Fe29      1.0  0.95815  0.18308  0.05431  1.0000
  S   S56       1.0  0.91074  0.18194  0.10221  1.0000
  S   S57       1.0  0.96652  0.12640  0.04958  1.0000
  C   C222      1.0  0.92659  0.24839  0.22976  1.0000
  C   C223      1.0  0.96253  0.25852  0.20528  1.0000
  C   C224      1.0  0.95847  0.23855  0.16617  1.0000
  C   C225      1.0  0.91834  0.20801  0.15129  1.0000
  C   C226      1.0  0.88246  0.19769  0.17594  1.0000
  C   C227      1.0  0.88652  0.21760  0.21503  1.0000
  H   H380      1.0  0.99375  0.28194  0.21664  1.0000
  H   H381      1.0  0.98636  0.24672  0.14761  1.0000
  H   H382      1.0  0.85877  0.20894  0.23395  1.0000
  C   C228      1.0  0.87769  0.36998  0.17868  1.0000
  H   H383      1.0  0.86426  0.35974  0.21098  1.0000
  C   C229      1.0  0.77705  0.07983  0.20432  1.0000
  H   H384      1.0  0.77541  0.05585  0.22741  1.0000
  H   H385      1.0  0.73450  0.27483  0.25774  1.0000
  H   H386      1.0  0.76253  0.32801  0.27669  1.0000
  H   H387      1.0  0.82895  0.46105  0.25932  1.0000
  C   C230      1.0  0.78005  0.46007  0.35082  1.0000
  C   C231      1.0  0.78282  0.42739  0.37171  1.0000
  C   C232      1.0  0.80238  0.40712  0.35243  1.0000
  C   C233      1.0  0.81973  0.41955  0.31219  1.0000
  C   C234      1.0  0.81571  0.45130  0.29056  1.0000
  H   H388      1.0  0.99713  0.35628  0.24105  1.0000
  H   H389      1.0  0.80451  0.38227  0.36894  1.0000
  C   C235      1.0  0.84424  0.37386  0.14986  1.0000
  H   H390      1.0  0.93980  0.39649  0.23709  1.0000
  C   C236      1.0  0.98996  0.38210  0.24634  1.0000
  C   C237      1.0  0.82271  0.39420  0.17367  1.0000
  H   H391      1.0  0.80417  0.28986  0.18221  1.0000
  H   H392      1.0  0.97817  0.29354  0.38583  1.0000
  C   C238      1.0  0.90119  0.01446  0.01907  1.0000
  H   H393      1.0  0.88856  0.45380  0.39480  1.0000
  H   H394      1.0  0.92210  0.34270  0.24972  1.0000
  N   N13       1.0  0.89510  0.34245  0.16343  1.0000
  C   C239      1.0  0.89904  0.34509  0.11576  1.0000
  H   H395      1.0  0.75792  0.03811  0.15066  1.0000
  C   C240      1.0  0.86804  0.29761  0.17809  1.0000
  C   C241      1.0  0.82037  0.27564  0.16492  1.0000
  C   C242      1.0  0.91908  0.32040  0.09579  1.0000
  C   C243      1.0  0.79772  0.22892  0.17630  1.0000
  C   C244      1.0  0.92270  0.32688  0.04776  1.0000
  H   H396      1.0  0.75778  0.35391  0.44664  1.0000
  H   H397      1.0  0.86760  0.33368  0.09977  1.0000
  H   H398      1.0  0.70680  0.19946  0.28086  1.0000
  C   C245      1.0  0.69376  0.39861  0.26858  1.0000
  H   H399      1.0  0.88164  0.27799  0.16760  1.0000
  H   H400      1.0  0.81610  0.27800  0.13030  1.0000
  H   H401      1.0  0.83351  0.05753  0.18649  1.0000
  C   C246      1.0  0.94746  0.45724  0.37856  1.0000
  H   H402      1.0  0.89922  0.28611  0.10151  1.0000
  H   H403      1.0  0.80069  0.39877  0.15189  1.0000
  H   H404      1.0  0.79414  0.49692  0.29355  1.0000
  H   H405      1.0  0.76322  0.21462  0.16837  1.0000
  C   C247      1.0  0.97969  0.38675  0.47329  1.0000
  H   H406      1.0  0.93381  0.42620  0.46085  1.0000
  C   C248      1.0  0.69373  0.29688  0.28304  1.0000
  H   H407      1.0  0.93699  0.30881  0.03438  1.0000
  H   H408      1.0  0.96675  0.49187  0.38228  1.0000
  H   H409      1.0  0.81089  0.21243  0.15796  1.0000
  C   C249      1.0  0.93937  0.35870  0.18244  1.0000
  H   H410      1.0  0.86857  0.07521  0.03088  1.0000
  H   H411      1.0  0.83385  0.40581  0.43764  1.0000
  H   H412      1.0  0.99267  0.38845  0.28092  1.0000
  N   N14       1.0  0.83413  0.05101  0.11813  1.0000
  C   C250      1.0  0.82820  0.07114  0.15690  1.0000
  C   C251      1.0  0.88054  0.06318  0.11603  1.0000
  C   C252      1.0  0.82359  0.06958  0.07961  1.0000
  H   H413      1.0  0.72429  0.35542  0.31808  1.0000
  C   C253      1.0  0.83368  0.05799  0.03591  1.0000
  H   H414      1.0  0.80309  0.11131  0.21419  1.0000
  C   C254      1.0  0.79575  0.47144  0.30975  1.0000
  C   C255      1.0  0.89850  0.04703  0.15219  1.0000
  H   H415      1.0  0.69421  0.40594  0.43061  1.0000
  H   H416      1.0  0.96357  0.09962  0.14938  1.0000
  H   H417      1.0  0.68846  0.33843  0.40608  1.0000
  H   H418      1.0  0.91851  0.37866  0.10598  1.0000
  H   H419      1.0  0.85305  0.10503  0.15824  1.0000
  C   C256      1.0  0.68782  0.41618  0.22628  1.0000
  H   H420      1.0  0.88674  0.05103  0.08673  1.0000
  H   H421      1.0  0.90053  0.09806  0.11445  1.0000
  H   H422      1.0  0.84066  0.10450  0.08142  1.0000
  H   H423      1.0  0.78908  0.05972  0.07867  1.0000
  C   C257      1.0  0.94647  0.06473  0.14772  1.0000
  S   S58       1.0  0.68891  0.50363  0.28663  1.0000
  H   H424      1.0  0.72288  0.39584  0.26640  1.0000
  H   H425      1.0  0.80117  0.22433  0.21075  1.0000
  H   H426      1.0  0.78375  0.09316  0.13770  1.0000
  H   H427      1.0  0.77044  0.41828  0.40333  1.0000
  H   H428      1.0  0.90389  0.40309  0.18220  1.0000
  H   H429      1.0  0.74107  0.28452  0.31401  1.0000
  H   H430      1.0  0.89333  0.05639  0.18377  1.0000
  H   H431      1.0  0.86031  0.39403  0.12197  1.0000
  H   H432      1.0  0.93767  0.45021  0.34467  1.0000
  H   H433      1.0  0.95165  0.33093  0.10862  1.0000
  H   H434      1.0  0.95865  0.05261  0.17385  1.0000
  Fe  Fe30      1.0  0.71163  0.50363  0.35372  1.0000
  H   H435      1.0  0.84890  0.37260  0.46501  1.0000
  H   H436      1.0  0.77834  0.05348  0.00160  1.0000
  H   H437      1.0  0.88353  0.01230  0.15061  1.0000
  H   H438      1.0  0.74644  0.08012  0.20487  1.0000
  H   H439      1.0  0.71608  0.44744  0.22041  1.0000
  C   C258      1.0  0.90784  0.43952  0.40584  1.0000
  C   C259      1.0  0.91991  0.44685  0.45383  1.0000
  H   H440      1.0  0.88896  0.40525  0.39945  1.0000
  H   H441      1.0  0.77206  0.32006  0.47676  1.0000
  H   H442      1.0  0.68956  0.30776  0.25126  1.0000
  H   H443      1.0  0.86899  0.29560  0.21311  1.0000
  H   H444      1.0  0.81893  0.34332  0.13772  1.0000
  H   H445      1.0  0.97600  0.38887  0.43937  1.0000
  C   C260      1.0  0.73561  0.29613  0.28302  1.0000
  S   S59       1.0  0.89485  0.32430  0.47368  1.0000
  H   H446      1.0  0.85133  0.17402  0.16474  1.0000
  C   C261      1.0  0.78455  0.06948  0.15967  1.0000
  H   H447      1.0  0.95621  0.25739  0.42960  1.0000
  H   H448      1.0  0.92939  0.04142  0.03127  1.0000
  H   H449      1.0  0.89076  0.31546  0.03273  1.0000
  H   H450      1.0  0.82553  0.10512  0.00022  1.0000
  H   H451      1.0  0.94349  0.36062  0.03984  1.0000
  C   C262      1.0  0.81360  0.07072  0.99956  1.0000
  C   C263      1.0  0.69376  0.32537  0.31872  1.0000
  H   H452      1.0  0.95016  0.33520  0.17839  1.0000
  H   H453      1.0  0.80396  0.37373  0.20037  1.0000
  H   H454      1.0  0.96275  0.38770  0.16550  1.0000
  H   H455      1.0  0.82181  0.02373  0.03358  1.0000
  H   H456      1.0  0.96723  0.44265  0.38750  1.0000
  H   H457      1.0  0.84680  0.42530  0.18649  1.0000
  C   C264      1.0  0.94492  0.36963  0.23050  1.0000
  H   H458      1.0  0.69886  0.42210  0.29311  1.0000
  H   H459      1.0  0.95349  0.05502  0.11708  1.0000
  C   C265      1.0  0.97586  0.29110  0.42094  1.0000
  H   H460      1.0  0.95953  0.30826  0.43132  1.0000
  S   S60       1.0  0.76248  0.48957  0.37935  1.0000
  C   C266      1.0  0.86682  0.49268  0.45176  1.0000
  H   H461      1.0  0.83889  0.46759  0.43504  1.0000
  H   H462      1.0  0.69451  0.39151  0.35352  1.0000
  N   N15       1.0  0.88461  0.43739  0.48451  1.0000
  H   H463      1.0  0.69509  0.30972  0.34875  1.0000
  C   C267      1.0  0.84368  0.39994  0.46929  1.0000
  C   C268      1.0  0.76569  0.34678  0.47885  1.0000
  H   H464      1.0  0.94648  0.47965  0.45820  1.0000
  C   C269      1.0  0.68153  0.18451  0.34373  1.0000
  H   H465      1.0  0.68432  0.39494  0.19985  1.0000
  S   S61       1.0  0.93836  0.17966  0.98551  1.0000
  H   H466      1.0  0.87447  0.42444  0.55188  1.0000
  C   C270      1.0  0.94776  0.44575  0.59022  1.0000
  S   S62       1.0  0.90748  0.06322  0.94856  1.0000
  H   H467      1.0  0.73770  0.33709  0.49929  1.0000
  H   H468      1.0  0.97637  0.02380  0.96015  1.0000
  H   H469      1.0  0.01142  0.32236  0.63408  1.0000
  H   H470      1.0  0.93693  0.41183  0.59491  1.0000
  H   H471      1.0  0.92902  0.45470  0.61083  1.0000
  C   C271      1.0  0.98984  0.38168  0.56137  1.0000
  Fe  Fe31      1.0  0.95153  0.12570  0.98056  1.0000
  H   H472      1.0  0.85627  0.46929  0.51651  1.0000
  H   H473      1.0  0.98633  0.07609  0.90506  1.0000
  C   C272      1.0  0.95078  0.35465  0.54100  1.0000
  H   H474      1.0  0.92440  0.33184  0.55952  1.0000
  H   H475      1.0  0.98529  0.27936  0.56809  1.0000
  H   H476      1.0  0.96580  0.45063  0.52528  1.0000
  C   C273      1.0  0.00385  0.01971  0.95145  1.0000
  H   H477      1.0  0.81034  0.37633  0.52990  1.0000
  C   C274      1.0  0.89641  0.42574  0.52697  1.0000
  H   H478      1.0  0.89239  0.39349  0.52579  1.0000
  H   H479      1.0  0.00480  0.32737  0.50033  1.0000
  C   C275      1.0  0.94260  0.45518  0.54375  1.0000
  C   C276      1.0  0.94543  0.35725  0.49699  1.0000
  H   H480      1.0  0.79587  0.41047  0.50060  1.0000
  H   H481      1.0  0.99651  0.01757  0.88151  1.0000
  C   C277      1.0  0.80441  0.38533  0.49778  1.0000
  H   H482      1.0  0.95173  0.48879  0.54147  1.0000
  H   H483      1.0  0.98188  0.46401  0.60005  1.0000
  C   C278      1.0  0.88501  0.01623  0.97883  1.0000
  H   H484      1.0  0.90983  0.50226  0.50314  1.0000
  H   H485      1.0  0.98842  0.26686  0.64431  1.0000
  H   H486      1.0  0.82249  0.06298  0.96883  1.0000
  H   H487      1.0  0.99435  0.27472  0.49877  1.0000
  H   H488      1.0  0.99346  0.37970  0.59535  1.0000
  Fe  Fe32      1.0  0.00819  0.22163  0.97246  1.0000
  C   C279      1.0  0.87958  0.47549  0.49115  1.0000
  C   C280      1.0  0.97806  0.76577  0.08221  1.0000
  H   H489      1.0  0.85088  0.63747  0.13158  1.0000
  H   H490      1.0  0.84703  0.60452  0.20048  1.0000
  H   H491      1.0  0.70442  0.68952  0.22587  1.0000
  H   H492      1.0  0.87540  0.65492  0.22613  1.0000
  S   S63       1.0  0.70672  0.55993  0.37399  1.0000
  S   S64       1.0  0.84100  0.80692  0.05146  1.0000
  S   S65       1.0  0.73955  0.77287  0.03907  1.0000
  Fe  Fe33      1.0  0.80010  0.83473  0.03160  1.0000
  S   S66       1.0  0.81779  0.89734  0.06104  1.0000
  Fe  Fe34      1.0  0.78132  0.74424  0.05191  1.0000
  S   S67       1.0  0.77357  0.68877  0.09267  1.0000
  H   H493      1.0  0.89245  0.97722  0.07558  1.0000
  H   H494      1.0  0.97047  0.74650  0.05313  1.0000
  C   C281      1.0  0.85335  0.63747  0.19943  1.0000
  C   C282      1.0  0.75133  0.67007  0.14331  1.0000
  C   C283      1.0  0.74921  0.63290  0.15905  1.0000
  H   H495      1.0  0.70047  0.66672  0.02510  1.0000
  C   C284      1.0  0.71450  0.63624  0.22290  1.0000
  C   C285      1.0  0.71684  0.67355  0.20719  1.0000
  C   C286      1.0  0.73519  0.69046  0.16764  1.0000
  C   C287      1.0  0.73085  0.61599  0.19860  1.0000
  H   H496      1.0  0.79737  0.92499  0.14139  1.0000
  C   C288      1.0  0.87298  0.65770  0.15698  1.0000
  H   H497      1.0  0.73682  0.71920  0.15609  1.0000
  H   H498      1.0  0.96724  0.93515  0.08589  1.0000
  C   C289      1.0  0.77391  0.93286  0.15461  1.0000
  C   C290      1.0  0.95416  0.85240  0.02419  1.0000
  H   H499      1.0  0.92603  0.85120  0.03635  1.0000
  H   H500      1.0  0.97461  0.79359  0.07525  1.0000
  N   N16       1.0  0.90276  0.72823  0.11474  1.0000
  C   C291      1.0  0.89816  0.76712  0.11377  1.0000
  C   C292      1.0  0.88138  0.70143  0.07600  1.0000
  C   C293      1.0  0.88005  0.70316  0.15368  1.0000
  C   C294      1.0  0.94878  0.73895  0.11851  1.0000
  H   H501      1.0  0.89395  0.50784  0.42978  1.0000
  C   C295      1.0  0.91959  0.79837  0.15096  1.0000
  C   C296      1.0  0.99210  0.87122  0.04851  1.0000
  C   C297      1.0  0.88277  0.72449  0.03375  1.0000
  H   H502      1.0  0.72927  0.58730  0.21029  1.0000
  H   H503      1.0  0.82205  0.99041  0.18208  1.0000
  C   C298      1.0  0.91031  0.83484  0.14749  1.0000
  H   H504      1.0  0.92652  0.85710  0.17400  1.0000
  H   H505      1.0  0.86369  0.75770  0.11270  1.0000
  H   H506      1.0  0.91149  0.78584  0.08457  1.0000
  H   H507      1.0  0.89435  0.67995  0.07028  1.0000
  H   H508      1.0  0.84675  0.68054  0.08148  1.0000
  H   H509      1.0  0.84795  0.70050  0.15566  1.0000
  H   H510      1.0  0.89772  0.71956  0.18303  1.0000
  H   H511      1.0  0.96304  0.75493  0.14915  1.0000
  H   H512      1.0  0.95135  0.70994  0.11961  1.0000
  H   H513      1.0  0.76354  0.91669  0.18571  1.0000
  C   C299      1.0  0.88060  0.97778  0.04392  1.0000
  H   H514      1.0  0.90771  0.78306  0.18207  1.0000
  H   H515      1.0  0.95472  0.81198  0.15054  1.0000
  H   H516      1.0  0.91516  0.74979  0.02606  1.0000
  H   H517      1.0  0.90329  0.65720  0.15460  1.0000
  H   H518      1.0  0.86207  0.73888  0.03590  1.0000
  H   H519      1.0  0.99250  0.88314  0.07976  1.0000
  H   H520      1.0  0.82272  0.63712  0.20373  1.0000
  H   H521      1.0  0.76158  0.61687  0.14044  1.0000
  H   H522      1.0  0.74572  0.92094  0.13287  1.0000
  H   H523      1.0  0.69388  0.58918  0.48170  1.0000
  C   C300      1.0  0.84484  0.94183  0.02796  1.0000
  C   C301      1.0  0.80602  0.00372  0.11713  1.0000
  H   H524      1.0  0.92218  0.85218  0.11719  1.0000
  H   H525      1.0  0.87551  0.82308  0.14928  1.0000
  H   H526      1.0  0.82085  0.98942  0.09753  1.0000
  H   H527      1.0  0.96400  0.98298  0.08510  1.0000
  H   H528      1.0  0.88625  0.67945  0.99186  1.0000
  H   H529      1.0  0.75108  0.61873  0.48012  1.0000
  C   C302      1.0  0.97585  0.96193  0.00243  1.0000
  C   C303      1.0  0.86599  0.69404  0.99647  1.0000
  H   H530      1.0  0.83258  0.66912  0.00191  1.0000
  H   H531      1.0  0.95003  0.96958  0.00748  1.0000
  C   C304      1.0  0.85520  0.52600  0.46393  1.0000
  C   C305      1.0  0.79418  0.98033  0.16048  1.0000
  H   H532      1.0  0.96071  0.92731  0.00653  1.0000
  H   H533      1.0  0.77080  0.98632  0.17676  1.0000
  H   H534      1.0  0.84732  0.53843  0.43478  1.0000
  H   H535      1.0  0.69141  0.61432  0.07869  1.0000
  H   H536      1.0  0.82678  0.51210  0.48441  1.0000
  H   H537      1.0  0.77507  0.99471  0.10064  1.0000
  S   S68       1.0  0.69079  0.61640  0.27282  1.0000
  C   C306      1.0  0.98580  0.96987  0.08239  1.0000
  H   H538      1.0  0.69195  0.60478  0.99403  1.0000
  H   H539      1.0  0.00988  0.98275  0.10856  1.0000
  C   C307      1.0  0.00821  0.98215  0.03980  1.0000
  H   H540      1.0  0.68156  0.74107  0.11247  1.0000
  H   H541      1.0  0.68369  0.67699  0.09366  1.0000
  H   H542      1.0  0.88228  0.55253  0.48072  1.0000
  C   C308      1.0  0.82981  0.94280  0.98689  1.0000
  C   C309      1.0  0.68600  0.60925  0.56501  1.0000
  H   H543      1.0  0.73535  0.59837  0.62554  1.0000
  C   C310      1.0  0.99072  0.83973  0.96817  1.0000
  H   H544      1.0  0.99033  0.82732  0.93716  1.0000
  S   S69       1.0  0.80450  0.82818  0.96167  1.0000
  S   S70       1.0  0.68183  0.73215  0.93512  1.0000
  C   C311      1.0  0.84962  0.97999  0.96258  1.0000
  H   H545      1.0  0.80384  0.66039  0.64738  1.0000
  H   H546      1.0  0.80210  0.91529  0.97435  1.0000
  S   S71       1.0  0.90568  0.81196  0.95280  1.0000
  H   H547      1.0  0.97009  0.95041  0.89467  1.0000
  H   H548      1.0  0.89834  0.92566  0.86219  1.0000
  H   H549      1.0  0.75165  0.67623  0.61202  1.0000
  H   H550      1.0  0.72420  0.82690  0.83749  1.0000
  H   H551      1.0  0.95222  0.91185  0.93495  1.0000
  H   H552      1.0  0.72017  0.66926  0.65661  1.0000
  C   C312      1.0  0.77881  0.64225  0.67096  1.0000
  C   C313      1.0  0.73481  0.61999  0.64939  1.0000
  H   H553      1.0  0.92107  0.97643  0.92131  1.0000
  H   H554      1.0  0.71174  0.69352  0.56571  1.0000
  H   H555      1.0  0.85454  0.91430  0.89634  1.0000
  C   C314      1.0  0.71461  0.84904  0.85032  1.0000
  C   C315      1.0  0.95931  0.94463  0.92783  1.0000
  H   H556      1.0  0.90077  0.93352  0.95911  1.0000
  H   H557      1.0  0.78576  0.61861  0.68607  1.0000
  N   N17       1.0  0.68414  0.63485  0.60119  1.0000
  C   C316      1.0  0.91638  0.94458  0.92806  1.0000
  H   H558      1.0  0.83711  0.98088  0.93131  1.0000
  H   H559      1.0  0.69504  0.86042  0.78923  1.0000
  C   C317      1.0  0.88551  0.91487  0.89441  1.0000
  H   H560      1.0  0.70213  0.83868  0.88277  1.0000
  H   H561      1.0  0.77995  0.66389  0.69595  1.0000
  H   H562      1.0  0.87988  0.88242  0.89971  1.0000
  H   H563      1.0  0.68626  0.58062  0.57657  1.0000
  H   H564      1.0  0.71657  0.74895  0.78301  1.0000
  H   H565      1.0  0.73540  0.75917  0.85990  1.0000
  H   H566      1.0  0.71169  0.60167  0.67438  1.0000
  C   C318      1.0  0.72424  0.63201  0.53487  1.0000
  H   H567      1.0  0.68175  0.61015  0.91755  1.0000
  C   C319      1.0  0.70244  0.74069  0.84974  1.0000
  H   H568      1.0  0.69988  0.71418  0.63729  1.0000
  C   C320      1.0  0.72344  0.65215  0.62940  1.0000
  Fe  Fe35      1.0  0.74657  0.76406  0.96959  1.0000
  H   H569      1.0  0.72549  0.57520  0.51653  1.0000
  H   H570      1.0  0.75493  0.64473  0.55268  1.0000
  N   N18       1.0  0.99333  0.97463  0.95822  1.0000
  H   H571      1.0  0.74338  0.88064  0.85249  1.0000
  C   C321      1.0  0.69165  0.73476  0.80616  1.0000
  Fe  Fe36      1.0  0.84295  0.79738  0.98203  1.0000
  H   H572      1.0  0.71013  0.66219  0.93970  1.0000
  H   H573      1.0  0.86661  0.71146  0.96707  1.0000
  H   H574      1.0  0.00205  0.90184  0.89765  1.0000
  S   S72       1.0  0.78562  0.73255  0.98287  1.0000
  C   C322      1.0  0.68171  0.67179  0.58204  1.0000
  C   C323      1.0  0.72352  0.60184  0.50140  1.0000
  H   H575      1.0  0.70104  0.75521  0.57272  1.0000
  H   H576      1.0  0.72303  0.65803  0.51753  1.0000
  C   C324      1.0  0.95312  0.83627  0.98401  1.0000
