data_image0
_chemical_formula_structural       FeS2FeS2FeSFeCS2HS2FeHCSHC2H2SFeSCH3CH3CH8CH5C2H9FeHCH3C3HC2HFeH3C6H4C6H4CH3C3HNHCH2SCHC2HSNC2HCH2CHCHC3HCHCHCHCH4CH5CH8CH7CH2FeHCHC2HCH2CNHSCHC2HCH2CHNHCH5CHC2H4CHCSCHC2H2SH6C2H2CFeH3C4FeS2FeS2FeSFeS3FeSCHFeCHFeSHSCHC6H4C6H5CSC2H3CH4NC6H3C2H5CH9CFeCSH7SNH6C3HCHNCHNCH5C2H2CH4C2H4SFeCHCHCHSCSH4C2HCNC8HC3H17CH9CHCH7C2HCHSCNH5CH5CHC2H3C2H3CHC4H2FeCH3C2HC2HNH2CH2FeH3S2CH3SHC2HCH5S3H5CHCHFeH3CH3C3HCH5CH4CH2CH2NH5CH3CH2FeSHFe2SCH2CS2C2SH4FeHCHNHCH7C2H2CHSHC3H2NH2C3H4CH6C2H2SCHCHC2FeCFeSH2C2H3FeSC2HC4HSH2CH3SCSHCH2SHC4H3CHC2HSHNCH2CH6CHCHCHCHSH2CH3CH3FeS2H15CH2C3HCHCHC2SCHCFeC2H2C2HFeCSCHSHSHCH5CHC2H4SH4C2HC2H5C2H5CH3CHC2FeHNCH3CH3CHCH2CSC2HNCHCS2HC3HC2H4CHCH3CHCH2CH6CFeH3CH2C2HSCH9C4H2CSHSHCFeCH6CFeS2FeS2Fe2S4CHC4H8CHCH8C3H2CH2CH4C2HC3H3C2SHNH2CH3C2HC4H2SHCH10NH4C2HCHC2H3CH3CHC2H4C2H2CFe2NC11H23CHCH3C3H3CHCSCH5NH5C4HSCHC2HCHCSC2H4CHCHSH3SHCHC2SH4CHCH4FeHCHCH4C2H8CNHCHCNC3H2CH2CSHCH3C3H3CH3CHCH5CH3SCH3C3HC3HSHCH3CHCH2CH3SH3C3SHCH5CSH2CH10CHCHCH4FeCSNHFeCH3C3H4FeHCH4CHCHCH3CH4CHC2HCHCH2C2SH7C2SHCHNH3CH3CH3CHCH2SH2CH2SH2CHC2H2SH4SC2H5CH6CHC3H3SH3SHNH2FeHC3H2CHCH2CSC2HCH6CSCHC8H5C2H6CH2C2HC2H2CSCHCHCH5CHCH2CH6C3HCSCFe2HSCFeHCHC2H2C2H2SH2CH2CHNSH2C2HSH2C2H6CHCH3C3H2CHCSH2FeH2CHCHCHC2HCH2CHNCH4CHCHCSHFeCHCH3NHC3H7CH2FeSH3CH2S2FeSFeCFeS2FeSFeSFeS3FeS2HSFeHFeS3C6H4C6HSH2SH2CHC2HNCH2C2SCHNH4CHC6H4FeH2C4NC2H5NH6C2H4CHCH3FeH2CHCH2CH2C2H2SH2C3HCH4CHCHSH3CH5C3H7C2HC2H2FeH2CHSC3HC2H4SH2SH5CH2CH2C2H5CH3FeC2HCH3CH4CHSC2H2SC3H2CH6CH2CH3CH4C2H2CHSH2CH3SH7C2H2NC3H5SHCHC2H2CH2C2HC2HC2HFeH2C2FeHCH2NFeS2FeHFeSFeHS2CSFeHSH2SC6H4CFeH2CSC4H6C2NC2H2CSHCH5CHCH4CH3CHC4H3C4H12C2H2CHSCH2C2HSHFeH4C2HCH4C2HC2H4SH2C3H5C2H5NH2CH6C2H7SHCH2CH2C2H3C3H4CH4C2HCSHFeS2FeSFeSFeS3HFeS2FeS2FeHFeSHSH2CHCHC4H3FeC6H4C2H2C2HCH2C3H2C6H6CH2SHCHC2H3CHCSH2NC12H24CH6CH3C2H2CH2CHCHCHCH10CHCHC2H9NCHC4H3C2H7CH4CHCH4C2HCH5C3HCH2C2H4C3HCH3CHCHCHCH4C2HNH3CHCH2CNH2C3H2CHSHCH3CH2CH2CH2CSCHCFeS2FeSHFeSFeS3H2SCHCHFeCSH2CH2CHCHSCFeCSFeHSC2H2S2C6H5NC3H4C3Fe2H3SCH4NCH3CH2CH3C2HCH2FeHC6H5C3H3C2HCNHC4H2C4HC2H8C2H10CH3SCH5SC3H3S2H5C2NC10HCH10CH11CH8C3HCH2CHCH2C3H4CHCHNCHNH7SCH4CSHCH2CHC2H11NHC2HSH2CHSC3HSHSC2HC6HC2H2CH2FeHCH3NH2CH5SHCH3C2H5CHCH2CSHCH2CH2C3H2CH4CH2SH4CFeCFeH5FeCH6C3H3FeHC2HCHC2H3CHCHC3HCH4CH2NHC2HCH3CH4C2H4NCSHCH2CH8CHCSCSHS2C2HC2H2FeH2CHCHCH5CH4C6H2CH6CHFeH2FeCHC2NCH6FeH2CSHCHC2FeC3HSC3HCHFeHCSH2CSCHC4H6CSH7CHCH2CSH5SH2C2H4CH4CH2SHCH2CS2H3C2H5NCH2CHSHCSHCH2CH2CH3CNHFeHCS2FeCSFeCH2NHCH4CHC2H2SCHFeH3CH2SH3CHC2H2CH7CHCHCH3FeH2SHC3H2SH2CH2C4HC2H2NC3H2C2HCH2C2H7CHSH4CH4C2HCH2CHC3H8C2HCH2CH2FeC2SC3H3CSH3SHCHC2HC4H4CFeH2NHCH4NH2CHS2HCSCFeCH3SFeH3SHFe2CSCSH2C2H2SH4SCHC3H3CHCH4NH2C2H2CHCH3FeCHFeH2CH2CH9C2H9C2HSHNHCH2C4HCH2C2HFeH3SH6SCH2C2H2CFeHCHFeHCH2SHCH4CFeSFe2SH2CHSCHSH5S2CHSH2SCH3CH2C3H4CHCFeHCH2C2HFeHC2H2SC2HS2CHCHSH2NHC3HSHCHCH3CHC4FeHC2HC2SC3H6CH3SH7CHC3NC9H22NSCHSH2SH2CH2SC2FeC2H2NCH2CHCH3FeCH2CH3CH9CH3CH3CH4CH2CHC4H4CFeCH2CHSHCHC2H7CH3SC2NC2H4CH3C2HCHCH3FeSHFeS2FeSFeSFeS3FeS2FeS2FeSFeS3HCHCS2FeHC2HFeH2CH2CHC6H4CH3CH3C6H4C2HC2H2CH2C5H4CNCHC4H3C2HCH13C2HNCH9CHCHC2HC4HCHCH8CH15C2H2CH3CH2CSHCH2C2HNCH3CH2FeHC2HCH3C2HCH2CH4CH4C3SCFeH3FeH2CHC3H2C2HSNH3CH3SH2SHC2H6CH3CH2CHCH6SC4HC2H3CH5CH2CH2CH2CH2C2HC3HCNHCH2CH2CH2NH2CH2CSHFeH3CH2C2HCH5CH4NCHS
_chemical_formula_sum              "Fe144 S288 C1296 H2304 N72"
_cell_length_a       63.1601
_cell_length_b       69.57
_cell_length_c       46.8574
_cell_angle_alpha    79.3432
_cell_angle_beta     79.4279
_cell_angle_gamma    107.846

_space_group_name_H-M_alt    "P 1"
_space_group_IT_number       1

loop_
  _space_group_symop_operation_xyz
  'x, y, z'

loop_
  _atom_site_type_symbol
  _atom_site_label
  _atom_site_symmetry_multiplicity
  _atom_site_fract_x
  _atom_site_fract_y
  _atom_site_fract_z
  _atom_site_occupancy
  Fe  Fe1       1.0  0.37995  0.05437  0.26181  1.0000
  S   S1        1.0  0.41463  0.06127  0.23153  1.0000
  S   S2        1.0  0.36152  0.02408  0.29708  1.0000
  Fe  Fe2       1.0  0.37559  0.09465  0.23020  1.0000
  S   S3        1.0  0.40953  0.10474  0.19652  1.0000
  S   S4        1.0  0.35112  0.11220  0.23217  1.0000
  Fe  Fe3       1.0  0.39892  0.07130  0.19508  1.0000
  S   S5        1.0  0.40683  0.06156  0.15288  1.0000
  Fe  Fe4       1.0  0.42212  0.09402  0.23611  1.0000
  C   C1        1.0  0.34751  0.13787  0.07250  1.0000
  S   S6        1.0  0.36363  0.06199  0.22498  1.0000
  S   S7        1.0  0.38882  0.08625  0.27029  1.0000
  H   H1        1.0  0.47337  0.07035  0.28296  1.0000
  S   S8        1.0  0.44309  0.20867  0.11579  1.0000
  S   S9        1.0  0.37739  0.20231  0.14716  1.0000
  Fe  Fe5       1.0  0.41440  0.22123  0.12375  1.0000
  H   H2        1.0  0.41722  0.00348  0.13530  1.0000
  C   C2        1.0  0.44238  0.17511  0.18971  1.0000
  S   S10       1.0  0.39634  0.10754  0.02868  1.0000
  H   H3        1.0  0.45641  0.03019  0.09189  1.0000
  C   C3        1.0  0.41999  0.99585  0.29672  1.0000
  C   C4        1.0  0.46143  0.17882  0.23000  1.0000
  H   H4        1.0  0.35536  0.13702  0.14401  1.0000
  H   H5        1.0  0.39169  0.14893  0.06557  1.0000
  S   S11       1.0  0.46673  0.22296  0.02770  1.0000
  Fe  Fe6       1.0  0.36503  0.08197  0.02710  1.0000
  S   S12       1.0  0.33909  0.06374  0.07067  1.0000
  C   C5        1.0  0.42990  0.21161  0.00347  1.0000
  H   H6        1.0  0.45905  0.10101  0.07595  1.0000
  H   H7        1.0  0.33259  0.02712  0.16974  1.0000
  H   H8        1.0  0.47427  0.04104  0.05383  1.0000
  C   C6        1.0  0.47174  0.12214  0.10191  1.0000
  H   H9        1.0  0.32530  0.01006  0.08763  1.0000
  H   H10       1.0  0.45970  0.17115  0.13238  1.0000
  H   H11       1.0  0.37619  0.11015  0.09509  1.0000
  C   C7        1.0  0.40550  0.15576  0.27124  1.0000
  H   H12       1.0  0.25499  0.05420  0.00534  1.0000
  H   H13       1.0  0.42613  0.05008  0.32874  1.0000
  H   H14       1.0  0.41325  0.10952  0.10306  1.0000
  H   H15       1.0  0.35720  0.20362  0.06164  1.0000
  H   H16       1.0  0.45602  0.12625  0.10533  1.0000
  H   H17       1.0  0.39714  0.18032  0.21808  1.0000
  H   H18       1.0  0.44015  0.00864  0.35656  1.0000
  H   H19       1.0  0.44698  0.07446  0.27914  1.0000
  C   C8        1.0  0.46603  0.10049  0.09609  1.0000
  H   H20       1.0  0.45431  0.17852  0.03430  1.0000
  H   H21       1.0  0.40814  0.14835  0.22868  1.0000
  H   H22       1.0  0.44475  0.14375  0.19734  1.0000
  H   H23       1.0  0.45196  0.04514  0.33332  1.0000
  H   H24       1.0  0.37775  0.21001  0.08370  1.0000
  C   C9        1.0  0.33049  0.00225  0.13217  1.0000
  C   C10       1.0  0.40482  0.00999  0.14614  1.0000
  H   H25       1.0  0.31762  0.00894  0.14106  1.0000
  H   H26       1.0  0.42592  0.03556  0.28462  1.0000
  H   H27       1.0  0.33291  0.14366  0.07234  1.0000
  H   H28       1.0  0.41538  0.22729  0.21542  1.0000
  H   H29       1.0  0.45367  0.03404  0.28357  1.0000
  H   H30       1.0  0.42287  0.03377  0.07444  1.0000
  H   H31       1.0  0.38993  0.98997  0.22371  1.0000
  H   H32       1.0  0.42748  0.19518  0.24857  1.0000
  H   H33       1.0  0.31724  0.11810  0.18522  1.0000
  Fe  Fe7       1.0  0.45428  0.23132  0.07026  1.0000
  H   H34       1.0  0.41717  0.20074  0.18665  1.0000
  C   C11       1.0  0.45655  0.07021  0.29544  1.0000
  H   H35       1.0  0.34411  0.16858  0.09697  1.0000
  H   H36       1.0  0.39573  0.18547  0.06465  1.0000
  H   H37       1.0  0.18321  0.02695  0.99943  1.0000
  C   C12       1.0  0.44038  0.99864  0.27012  1.0000
  C   C13       1.0  0.29163  0.06957  0.98986  1.0000
  C   C14       1.0  0.36128  0.16694  0.09451  1.0000
  H   H38       1.0  0.40788  0.01777  0.35496  1.0000
  C   C15       1.0  0.33818  0.11426  0.07422  1.0000
  C   C16       1.0  0.45735  0.03698  0.17057  1.0000
  H   H39       1.0  0.44318  0.01271  0.25206  1.0000
  Fe  Fe8       1.0  0.39006  0.12638  0.98921  1.0000
  H   H40       1.0  0.40646  0.99921  0.28675  1.0000
  H   H41       1.0  0.39368  0.16420  0.26657  1.0000
  H   H42       1.0  0.42583  0.17143  0.18335  1.0000
  C   C17       1.0  0.38760  0.06254  0.13072  1.0000
  C   C18       1.0  0.36712  0.06582  0.14132  1.0000
  C   C19       1.0  0.35146  0.06527  0.12348  1.0000
  C   C20       1.0  0.35673  0.06205  0.09484  1.0000
  C   C21       1.0  0.37744  0.05929  0.08411  1.0000
  C   C22       1.0  0.39276  0.05942  0.10210  1.0000
  H   H43       1.0  0.36329  0.06870  0.16319  1.0000
  H   H44       1.0  0.33567  0.06793  0.13149  1.0000
  H   H45       1.0  0.38174  0.05712  0.06181  1.0000
  H   H46       1.0  0.40879  0.05746  0.09356  1.0000
  C   C23       1.0  0.35949  0.13727  0.20814  1.0000
  C   C24       1.0  0.34470  0.14852  0.21162  1.0000
  C   C25       1.0  0.35041  0.16842  0.19270  1.0000
  C   C26       1.0  0.37110  0.17735  0.17036  1.0000
  C   C27       1.0  0.38585  0.16604  0.16641  1.0000
  C   C28       1.0  0.38008  0.14599  0.18541  1.0000
  H   H47       1.0  0.32869  0.14180  0.22901  1.0000
  H   H48       1.0  0.33883  0.17702  0.19561  1.0000
  H   H49       1.0  0.40149  0.17262  0.14852  1.0000
  H   H50       1.0  0.39134  0.13721  0.18220  1.0000
  C   C29       1.0  0.25321  0.11456  0.99889  1.0000
  H   H51       1.0  0.38121  0.11862  0.12803  1.0000
  H   H52       1.0  0.38327  0.02030  0.23923  1.0000
  H   H53       1.0  0.47187  0.16467  0.17993  1.0000
  C   C30       1.0  0.44469  0.20482  0.01810  1.0000
  C   C31       1.0  0.44222  0.00386  0.33510  1.0000
  C   C32       1.0  0.37475  0.20459  0.06349  1.0000
  H   H54       1.0  0.46192  0.07838  0.22339  1.0000
  N   N1        1.0  0.42588  0.00936  0.31792  1.0000
  H   H55       1.0  0.35933  0.14538  0.04964  1.0000
  C   C33       1.0  0.38351  0.14396  0.09015  1.0000
  H   H56       1.0  0.47495  0.19293  0.21366  1.0000
  H   H57       1.0  0.31107  0.02208  0.23628  1.0000
  S   S13       1.0  0.38448  0.06827  0.99672  1.0000
  C   C34       1.0  0.40398  0.00789  0.33914  1.0000
  H   H58       1.0  0.37983  0.13467  0.31127  1.0000
  C   C35       1.0  0.33061  0.02059  0.19375  1.0000
  C   C36       1.0  0.41356  0.19752  0.99348  1.0000
  H   H59       1.0  0.29565  0.02063  0.20719  1.0000
  S   S14       1.0  0.45616  0.11487  0.23945  1.0000
  N   N2        1.0  0.43863  0.17567  0.22228  1.0000
  C   C37       1.0  0.43860  0.03510  0.05794  1.0000
  C   C38       1.0  0.44301  0.18385  0.02281  1.0000
  H   H60       1.0  0.44440  0.04844  0.13470  1.0000
  C   C39       1.0  0.42055  0.15518  0.24140  1.0000
  H   H61       1.0  0.24227  0.11405  0.02068  1.0000
  H   H62       1.0  0.33748  0.98984  0.09339  1.0000
  C   C40       1.0  0.41130  0.19568  0.21158  1.0000
  H   H63       1.0  0.44848  0.06411  0.08869  1.0000
  C   C41       1.0  0.40166  0.21161  0.22182  1.0000
  H   H64       1.0  0.40148  0.12466  0.29646  1.0000
  C   C42       1.0  0.41195  0.17659  0.99800  1.0000
  C   C43       1.0  0.30789  0.11573  0.16752  1.0000
  C   C44       1.0  0.41168  0.12484  0.09415  1.0000
  H   H65       1.0  0.39451  0.15551  0.09990  1.0000
  C   C45       1.0  0.36325  0.00176  0.17342  1.0000
  H   H66       1.0  0.41848  0.12948  0.06936  1.0000
  C   C46       1.0  0.45992  0.05394  0.14289  1.0000
  H   H67       1.0  0.45202  0.16575  0.27863  1.0000
  C   C47       1.0  0.43172  0.19436  0.22493  1.0000
  H   H68       1.0  0.44799  0.13070  0.01270  1.0000
  C   C48       1.0  0.43701  0.03175  0.29917  1.0000
  H   H69       1.0  0.41023  0.01490  0.16571  1.0000
  H   H70       1.0  0.31803  0.04458  0.20537  1.0000
  H   H71       1.0  0.36899  0.00531  0.19353  1.0000
  H   H72       1.0  0.38780  0.21272  0.21073  1.0000
  C   C49       1.0  0.38648  0.12300  0.10307  1.0000
  H   H73       1.0  0.35265  0.10911  0.06641  1.0000
  H   H74       1.0  0.45983  0.08223  0.30833  1.0000
  H   H75       1.0  0.21887  0.05237  0.00311  1.0000
  H   H76       1.0  0.32230  0.14769  0.14189  1.0000
  H   H77       1.0  0.25162  0.08310  0.01394  1.0000
  C   C50       1.0  0.34582  0.13168  0.12755  1.0000
  H   H78       1.0  0.46044  0.01304  0.32248  1.0000
  H   H79       1.0  0.39333  0.01413  0.32623  1.0000
  H   H80       1.0  0.31138  0.12915  0.12103  1.0000
  H   H81       1.0  0.44078  0.04656  0.03667  1.0000
  H   H82       1.0  0.31676  0.09333  0.05316  1.0000
  H   H83       1.0  0.32821  0.10446  0.09703  1.0000
  H   H84       1.0  0.30628  0.11341  0.06188  1.0000
  H   H85       1.0  0.36755  0.17187  0.11359  1.0000
  C   C51       1.0  0.46472  0.06411  0.07489  1.0000
  H   H86       1.0  0.42231  0.13666  0.10367  1.0000
  H   H87       1.0  0.45661  0.00089  0.27718  1.0000
  H   H88       1.0  0.31215  0.06350  0.02056  1.0000
  H   H89       1.0  0.41598  0.16369  0.28498  1.0000
  H   H90       1.0  0.30530  0.09977  0.16453  1.0000
  H   H91       1.0  0.37888  0.12557  0.27783  1.0000
  H   H92       1.0  0.45586  0.19325  0.26772  1.0000
  C   C52       1.0  0.26805  0.05894  0.98362  1.0000
  H   H93       1.0  0.29077  0.11699  0.17520  1.0000
  H   H94       1.0  0.34423  0.11506  0.13055  1.0000
  Fe  Fe9       1.0  0.41544  0.09583  0.99486  1.0000
  H   H95       1.0  0.33077  0.11984  0.03030  1.0000
  C   C53       1.0  0.32204  0.11001  0.05358  1.0000
  H   H96       1.0  0.43619  0.01960  0.05325  1.0000
  C   C54       1.0  0.46489  0.13003  0.01227  1.0000
  C   C55       1.0  0.45322  0.15916  0.18085  1.0000
  H   H97       1.0  0.42868  0.14330  0.24684  1.0000
  C   C56       1.0  0.32130  0.13221  0.13795  1.0000
  H   H98       1.0  0.37374  0.17867  0.04494  1.0000
  H   H99       1.0  0.36558  0.01725  0.15921  1.0000
  C   C57       1.0  0.37747  0.18336  0.06532  1.0000
  N   N3        1.0  0.35934  0.14453  0.09616  1.0000
  H   H100      1.0  0.22942  0.08611  0.99581  1.0000
  S   S15       1.0  0.35685  0.10181  0.99059  1.0000
  C   C58       1.0  0.45972  0.04177  0.07035  1.0000
  H   H101      1.0  0.43119  0.22780  0.99959  1.0000
  C   C59       1.0  0.38066  0.99354  0.15633  1.0000
  C   C60       1.0  0.37579  0.00499  0.25473  1.0000
  H   H102      1.0  0.44650  0.20910  0.21333  1.0000
  C   C61       1.0  0.42675  0.16976  0.01263  1.0000
  H   H103      1.0  0.42559  0.15365  0.01622  1.0000
  H   H104      1.0  0.45236  0.08930  0.11556  1.0000
  C   C62       1.0  0.39056  0.13377  0.29030  1.0000
  H   H105      1.0  0.39428  0.20673  0.24653  1.0000
  N   N4        1.0  0.33834  0.98744  0.18289  1.0000
  H   H106      1.0  0.40526  0.02386  0.12965  1.0000
  C   C63       1.0  0.45102  0.15617  0.14991  1.0000
  H   H107      1.0  0.38746  0.21628  0.04336  1.0000
  H   H108      1.0  0.46753  0.07488  0.05265  1.0000
  H   H109      1.0  0.44229  0.03542  0.18854  1.0000
  H   H110      1.0  0.37096  0.99654  0.39472  1.0000
  H   H111      1.0  0.28198  0.05584  0.03830  1.0000
  C   C64       1.0  0.44231  0.04875  0.31677  1.0000
  H   H112      1.0  0.45448  0.02170  0.16496  1.0000
  C   C65       1.0  0.36321  0.00239  0.28395  1.0000
  C   C66       1.0  0.19592  0.03783  0.97866  1.0000
  H   H113      1.0  0.45340  0.19082  0.17492  1.0000
  H   H114      1.0  0.34726  0.02784  0.19890  1.0000
  H   H115      1.0  0.35702  0.99360  0.36458  1.0000
  H   H116      1.0  0.43264  0.14981  0.14975  1.0000
  C   C67       1.0  0.46987  0.11267  0.00653  1.0000
  H   H117      1.0  0.29211  0.04028  0.01600  1.0000
  C   C68       1.0  0.31266  0.02726  0.21183  1.0000
  S   S16       1.0  0.39113  0.15950  0.98519  1.0000
  C   C69       1.0  0.29454  0.05644  0.01788  1.0000
  H   H118      1.0  0.46057  0.06835  0.15022  1.0000
  C   C70       1.0  0.24801  0.09243  0.99480  1.0000
  C   C71       1.0  0.21986  0.04490  0.98430  1.0000
  H   H119      1.0  0.40214  0.20289  0.98221  1.0000
  H   H120      1.0  0.47291  0.04098  0.17928  1.0000
  S   S17       1.0  0.44935  0.09213  0.99845  1.0000
  H   H121      1.0  0.27155  0.12156  0.99901  1.0000
  H   H122      1.0  0.34782  0.01453  0.12472  1.0000
  H   H123      1.0  0.29339  0.08516  0.99371  1.0000
  H   H124      1.0  0.45931  0.14491  0.14449  1.0000
  H   H125      1.0  0.22409  0.03068  0.99170  1.0000
  H   H126      1.0  0.32459  0.99234  0.22585  1.0000
  C   C72       1.0  0.46227  0.18093  0.26206  1.0000
  C   C73       1.0  0.47614  0.09196  0.20958  1.0000
  H   H127      1.0  0.30539  0.98953  0.20208  1.0000
  H   H128      1.0  0.24950  0.12464  0.98058  1.0000
  C   C74       1.0  0.37936  0.98780  0.24583  1.0000
  Fe  Fe10      1.0  0.46296  0.23617  0.13046  1.0000
  H   H129      1.0  0.37581  0.98948  0.13605  1.0000
  H   H130      1.0  0.30316  0.01854  0.98367  1.0000
  H   H131      1.0  0.46711  0.16539  0.22783  1.0000
  C   C75       1.0  0.32383  0.99649  0.20194  1.0000
  C   C76       1.0  0.32472  0.99605  0.10412  1.0000
  C   C77       1.0  0.33122  0.04616  0.95605  1.0000
  C   C78       1.0  0.20010  0.00228  0.68861  1.0000
  Fe  Fe11      1.0  0.13278  0.05952  0.75485  1.0000
  S   S18       1.0  0.13698  0.06840  0.70504  1.0000
  S   S19       1.0  0.10039  0.03683  0.78774  1.0000
  Fe  Fe12      1.0  0.17840  0.09261  0.75166  1.0000
  S   S20       1.0  0.18596  0.10485  0.70184  1.0000
  S   S21       1.0  0.20127  0.10975  0.77715  1.0000
  Fe  Fe13      1.0  0.14871  0.10118  0.70982  1.0000
  S   S22       1.0  0.13583  0.12581  0.68927  1.0000
  Fe  Fe14      1.0  0.17379  0.07097  0.70201  1.0000
  S   S23       1.0  0.19587  0.06002  0.67007  1.0000
  S   S24       1.0  0.14238  0.09204  0.75986  1.0000
  S   S25       1.0  0.16834  0.05880  0.75176  1.0000
  Fe  Fe15      1.0  0.04458  0.19523  0.76393  1.0000
  S   S26       1.0  0.04876  0.18200  0.80920  1.0000
  C   C79       1.0  0.00347  0.19867  0.69410  1.0000
  H   H132      1.0  0.10970  0.99038  0.72419  1.0000
  Fe  Fe16      1.0  0.01060  0.16576  0.82094  1.0000
  C   C80       1.0  0.09872  0.99247  0.74295  1.0000
  H   H133      1.0  0.15305  0.01113  0.86214  1.0000
  Fe  Fe17      1.0  0.05030  0.15481  0.79095  1.0000
  S   S27       1.0  0.07236  0.13610  0.80079  1.0000
  H   H134      1.0  0.98242  0.10378  0.87527  1.0000
  S   S28       1.0  0.04950  0.16923  0.74451  1.0000
  C   C81       1.0  0.16960  0.02203  0.70753  1.0000
  H   H135      1.0  0.35874  0.00467  0.84503  1.0000
  C   C82       1.0  0.11552  0.12821  0.71797  1.0000
  C   C83       1.0  0.10324  0.11113  0.74263  1.0000
  C   C84       1.0  0.08964  0.11357  0.76783  1.0000
  C   C85       1.0  0.08740  0.13292  0.76787  1.0000
  C   C86       1.0  0.09851  0.14979  0.74246  1.0000
  C   C87       1.0  0.11276  0.14747  0.71753  1.0000
  H   H136      1.0  0.10439  0.09599  0.74238  1.0000
  H   H137      1.0  0.08095  0.10046  0.78737  1.0000
  H   H138      1.0  0.09694  0.16483  0.74253  1.0000
  H   H139      1.0  0.12216  0.16071  0.69837  1.0000
  C   C88       1.0  0.20326  0.09424  0.80987  1.0000
  C   C89       1.0  0.19772  0.07265  0.81429  1.0000
  C   C90       1.0  0.20008  0.06069  0.84035  1.0000
  C   C91       1.0  0.20718  0.07025  0.86245  1.0000
  C   C92       1.0  0.21230  0.09177  0.85824  1.0000
  C   C93       1.0  0.21071  0.10379  0.83179  1.0000
  H   H140      1.0  0.19180  0.06522  0.79758  1.0000
  H   H141      1.0  0.19578  0.04403  0.84368  1.0000
  H   H142      1.0  0.21776  0.09919  0.87532  1.0000
  H   H143      1.0  0.21498  0.12046  0.82848  1.0000
  H   H144      1.0  0.01770  0.21943  0.73835  1.0000
  C   C94       1.0  0.33494  0.03468  0.83610  1.0000
  S   S29       1.0  0.06484  0.22934  0.74185  1.0000
  C   C95       1.0  0.27935  0.07560  0.93002  1.0000
  C   C96       1.0  0.25230  0.03051  0.70895  1.0000
  H   H145      1.0  0.05515  0.15606  0.67961  1.0000
  H   H146      1.0  0.23382  0.02269  0.71127  1.0000
  H   H147      1.0  0.26197  0.01025  0.68315  1.0000
  C   C97       1.0  0.10465  0.01160  0.75055  1.0000
  H   H148      1.0  0.21760  0.07926  0.73777  1.0000
  H   H149      1.0  0.24474  0.04311  0.79263  1.0000
  H   H150      1.0  0.12004  0.02432  0.73735  1.0000
  H   H151      1.0  0.18807  0.15548  0.68761  1.0000
  N   N5        1.0  0.02500  0.08590  0.73930  1.0000
  C   C98       1.0  0.03049  0.06623  0.73919  1.0000
  C   C99       1.0  0.31035  0.02945  0.96170  1.0000
  C   C100      1.0  0.04271  0.10321  0.71365  1.0000
  C   C101      1.0  0.02571  0.09250  0.76824  1.0000
  C   C102      1.0  0.01886  0.07490  0.79762  1.0000
  C   C103      1.0  0.05565  0.06820  0.73907  1.0000
  H   H152      1.0  0.34000  0.04813  0.97367  1.0000
  H   H153      1.0  0.15371  0.03519  0.64477  1.0000
  H   H154      1.0  0.16058  0.00208  0.66006  1.0000
  C   C104      1.0  0.01549  0.08333  0.82534  1.0000
  C   C105      1.0  0.05835  0.04684  0.74518  1.0000
  H   H155      1.0  0.23437  0.09863  0.68416  1.0000
  H   H156      1.0  0.02708  0.06081  0.71896  1.0000
  H   H157      1.0  0.01901  0.05310  0.75853  1.0000
  H   H158      1.0  0.47468  0.14986  0.95567  1.0000
  H   H159      1.0  0.17305  0.00815  0.77481  1.0000
  C   C106      1.0  0.27514  0.07892  0.79914  1.0000
  H   H160      1.0  0.06004  0.10712  0.71823  1.0000
  H   H161      1.0  0.04327  0.10312  0.76705  1.0000
  H   H162      1.0  0.01474  0.10219  0.77139  1.0000
  H   H163      1.0  0.03263  0.06817  0.79832  1.0000
  H   H164      1.0  0.22547  0.15540  0.78656  1.0000
  H   H165      1.0  0.06743  0.07747  0.71673  1.0000
  H   H166      1.0  0.06137  0.07607  0.75622  1.0000
  H   H167      1.0  0.41116  0.18861  0.90193  1.0000
  H   H168      1.0  0.10686  0.00172  0.82374  1.0000
  C   C107      1.0  0.32790  0.05085  0.81712  1.0000
  Fe  Fe18      1.0  0.01123  0.15351  0.76233  1.0000
  C   C108      1.0  0.13624  0.00115  0.87829  1.0000
  S   S30       1.0  0.36669  0.08146  0.91976  1.0000
  H   H169      1.0  0.31248  0.00976  0.82339  1.0000
  H   H170      1.0  0.02302  0.22956  0.80471  1.0000
  H   H171      1.0  0.00097  0.08922  0.82663  1.0000
  H   H172      1.0  0.01305  0.19308  0.70940  1.0000
  H   H173      1.0  0.04888  0.03757  0.76855  1.0000
  H   H174      1.0  0.05199  0.03803  0.72913  1.0000
  H   H175      1.0  0.07685  0.04903  0.74236  1.0000
  S   S31       1.0  0.25736  0.03453  0.87774  1.0000
  N   N6        1.0  0.24187  0.05085  0.74691  1.0000
  H   H176      1.0  0.27485  0.10264  0.90201  1.0000
  H   H177      1.0  0.21988  0.03201  0.65645  1.0000
  H   H178      1.0  0.33799  0.04020  0.85614  1.0000
  H   H179      1.0  0.04435  0.09801  0.69248  1.0000
  H   H180      1.0  0.97874  0.19973  0.89268  1.0000
  H   H181      1.0  0.01605  0.21151  0.67517  1.0000
  C   C109      1.0  0.27512  0.08694  0.90093  1.0000
  C   C110      1.0  0.26241  0.09266  0.96414  1.0000
  C   C111      1.0  0.29475  0.00390  0.76552  1.0000
  H   H182      1.0  0.44224  0.15864  0.94451  1.0000
  C   C112      1.0  0.01951  0.22795  0.82937  1.0000
  H   H183      1.0  0.25858  0.07780  0.89714  1.0000
  N   N7        1.0  0.99941  0.23453  0.83996  1.0000
  C   C113      1.0  0.11500  0.02449  0.86275  1.0000
  H   H184      1.0  0.00279  0.06197  0.79971  1.0000
  N   N8        1.0  0.26172  0.07172  0.95901  1.0000
  C   C114      1.0  0.34066  0.06028  0.92765  1.0000
  H   H185      1.0  0.47385  0.20270  0.93829  1.0000
  H   H186      1.0  0.10854  0.02661  0.88527  1.0000
  H   H187      1.0  0.01151  0.07066  0.84595  1.0000
  H   H188      1.0  0.29303  0.08966  0.79571  1.0000
  H   H189      1.0  0.00344  0.22673  0.93008  1.0000
  C   C115      1.0  0.20920  0.01531  0.77461  1.0000
  C   C116      1.0  0.98083  0.06503  0.75584  1.0000
  H   H190      1.0  0.03553  0.19899  0.56394  1.0000
  H   H191      1.0  0.98055  0.23619  0.78882  1.0000
  C   C117      1.0  0.29428  0.09005  0.87339  1.0000
  H   H192      1.0  0.42338  0.17272  0.88279  1.0000
  H   H193      1.0  0.46075  0.13073  0.92249  1.0000
  H   H194      1.0  0.13675  0.01108  0.81934  1.0000
  H   H195      1.0  0.25378  0.02487  0.75557  1.0000
  C   C118      1.0  0.27482  0.00190  0.78646  1.0000
  C   C119      1.0  0.99528  0.23374  0.87299  1.0000
  H   H196      1.0  0.07419  0.14471  0.69437  1.0000
  H   H197      1.0  0.44970  0.15875  0.90592  1.0000
  H   H198      1.0  0.03139  0.09619  0.82461  1.0000
  H   H199      1.0  0.07039  0.99798  0.86427  1.0000
  S   S32       1.0  0.98933  0.13621  0.73597  1.0000
  Fe  Fe19      1.0  0.24975  0.00623  0.91466  1.0000
  C   C120      1.0  0.06089  0.23091  0.82786  1.0000
  H   H200      1.0  0.31083  0.00201  0.90335  1.0000
  C   C121      1.0  0.13602  0.00613  0.90923  1.0000
  H   H201      1.0  0.26568  0.07769  0.71171  1.0000
  C   C122      1.0  0.24225  0.10433  0.70177  1.0000
  H   H202      1.0  0.26116  0.11193  0.69247  1.0000
  S   S33       1.0  0.27207  0.00621  0.94733  1.0000
  C   C123      1.0  0.32923  0.05745  0.90495  1.0000
  S   S34       1.0  0.00611  0.18093  0.77719  1.0000
  H   H203      1.0  0.08991  0.99181  0.90714  1.0000
  H   H204      1.0  0.99562  0.19641  0.58317  1.0000
  H   H205      1.0  0.03445  0.12915  0.72764  1.0000
  H   H206      1.0  0.31117  0.09998  0.87545  1.0000
  C   C124      1.0  0.30835  0.04079  0.91064  1.0000
  C   C125      1.0  0.00393  0.18949  0.59908  1.0000
  H   H207      1.0  0.34080  0.01460  0.88607  1.0000
  C   C126      1.0  0.07126  0.99737  0.79310  1.0000
  N   N9        1.0  0.15942  0.15734  0.78782  1.0000
  C   C127      1.0  0.15268  0.17273  0.80296  1.0000
  C   C128      1.0  0.18002  0.15428  0.79712  1.0000
  C   C129      1.0  0.16466  0.16589  0.75424  1.0000
  C   C130      1.0  0.14019  0.13647  0.79688  1.0000
  C   C131      1.0  0.13192  0.12541  0.83093  1.0000
  C   C132      1.0  0.12876  0.17411  0.80172  1.0000
  C   C133      1.0  0.17453  0.15342  0.73452  1.0000
  C   C134      1.0  0.20271  0.17345  0.78552  1.0000
  H   H208      1.0  0.40756  0.16260  0.92183  1.0000
  C   C135      1.0  0.10976  0.10655  0.83787  1.0000
  C   C136      1.0  0.12487  0.19183  0.81438  1.0000
  C   C137      1.0  0.18214  0.16518  0.70132  1.0000
  H   H209      1.0  0.16565  0.18874  0.79279  1.0000
  H   H210      1.0  0.15295  0.16925  0.82703  1.0000
  H   H211      1.0  0.17649  0.14985  0.82205  1.0000
  H   H212      1.0  0.18327  0.14077  0.79018  1.0000
  H   H213      1.0  0.17662  0.18242  0.74712  1.0000
  H   H214      1.0  0.14878  0.16644  0.74759  1.0000
  H   H215      1.0  0.12524  0.13784  0.78857  1.0000
  H   H216      1.0  0.14557  0.12537  0.78581  1.0000
  H   H217      1.0  0.12848  0.13595  0.84476  1.0000
  H   H218      1.0  0.14519  0.11965  0.83808  1.0000
  H   H219      1.0  0.12690  0.17689  0.77840  1.0000
  H   H220      1.0  0.11480  0.15942  0.81537  1.0000
  H   H221      1.0  0.16119  0.13813  0.73685  1.0000
  H   H222      1.0  0.18965  0.15053  0.74056  1.0000
  H   H223      1.0  0.20800  0.17855  0.76063  1.0000
  H   H224      1.0  0.02363  0.12245  0.69635  1.0000
  H   H225      1.0  0.99113  0.21486  0.79143  1.0000
  C   C138      1.0  0.03830  0.12412  0.70679  1.0000
  H   H226      1.0  0.14474  0.04250  0.82355  1.0000
  H   H227      1.0  0.09528  0.11179  0.83441  1.0000
  H   H228      1.0  0.11172  0.09611  0.82310  1.0000
  H   H229      1.0  0.10543  0.09757  0.86165  1.0000
  H   H230      1.0  0.12585  0.18943  0.83814  1.0000
  H   H231      1.0  0.13783  0.20715  0.80083  1.0000
  H   H232      1.0  0.10747  0.19209  0.81357  1.0000
  H   H233      1.0  0.13089  0.02244  0.62906  1.0000
  H   H234      1.0  0.16754  0.16834  0.69385  1.0000
  C   C139      1.0  0.45269  0.16877  0.92180  1.0000
  H   H235      1.0  0.35145  0.03470  0.82293  1.0000
  C   C140      1.0  0.09119  0.01393  0.77593  1.0000
  H   H236      1.0  0.27707  0.08652  0.75209  1.0000
  H   H237      1.0  0.05553  0.21505  0.84312  1.0000
  H   H238      1.0  0.33650  0.06831  0.88293  1.0000
  H   H239      1.0  0.21009  0.03700  0.73448  1.0000
  H   H240      1.0  0.24348  0.09306  0.74682  1.0000
  H   H241      1.0  0.32584  0.04695  0.79560  1.0000
  H   H242      1.0  0.20645  0.04606  0.76692  1.0000
  C   C141      1.0  0.05914  0.14151  0.68461  1.0000
  C   C142      1.0  0.22236  0.16820  0.79578  1.0000
  H   H243      1.0  0.29685  0.08505  0.93094  1.0000
  C   C143      1.0  0.27243  0.07218  0.77035  1.0000
  H   H244      1.0  0.01533  0.21099  0.83942  1.0000
  S   S35       1.0  0.98677  0.16455  0.86345  1.0000
  C   C144      1.0  0.41967  0.17682  0.90452  1.0000
  N   N10       1.0  0.47790  0.17666  0.92138  1.0000
  H   H245      1.0  0.12710  0.06610  0.86606  1.0000
  H   H246      1.0  0.23544  0.06429  0.78436  1.0000
  H   H247      1.0  0.21242  0.00492  0.76026  1.0000
  H   H248      1.0  0.28506  0.06442  0.76503  1.0000
  H   H249      1.0  0.31019  0.01742  0.76115  1.0000
  C   C145      1.0  0.02311  0.18447  0.58038  1.0000
  H   H250      1.0  0.14988  0.07713  0.83181  1.0000
  H   H251      1.0  0.12080  0.06442  0.83017  1.0000
  H   H252      1.0  0.27164  0.06508  0.81787  1.0000
  H   H253      1.0  0.29069  0.09787  0.85287  1.0000
  H   H254      1.0  0.23990  0.06484  0.70268  1.0000
  C   C146      1.0  0.31603  0.01259  0.84493  1.0000
  H   H255      1.0  0.23840  0.18217  0.78749  1.0000
  C   C147      1.0  0.00171  0.08269  0.73299  1.0000
  C   C148      1.0  0.23836  0.05955  0.95544  1.0000
  H   H256      1.0  0.34351  0.99844  0.81783  1.0000
  H   H257      1.0  0.25610  0.00042  0.72313  1.0000
  H   H258      1.0  0.26311  0.08713  0.80537  1.0000
  C   C149      1.0  0.16502  0.00107  0.72112  1.0000
  C   C150      1.0  0.32616  0.99973  0.89052  1.0000
  H   H259      1.0  0.21894  0.01423  0.79182  1.0000
  H   H260      1.0  0.23527  0.11620  0.70819  1.0000
  H   H261      1.0  0.97821  0.16827  0.70277  1.0000
  C   C151      1.0  0.18952  0.03330  0.68462  1.0000
  H   H262      1.0  0.13615  0.02219  0.90839  1.0000
  C   C152      1.0  0.02516  0.23600  0.73537  1.0000
  C   C153      1.0  0.24754  0.05711  0.77455  1.0000
  C   C154      1.0  0.14739  0.02231  0.63403  1.0000
  C   C155      1.0  0.12043  0.99940  0.83446  1.0000
  H   H263      1.0  0.01230  0.20121  0.61044  1.0000
  H   H264      1.0  0.29979  0.03874  0.89294  1.0000
  Fe  Fe20      1.0  0.21960  0.02825  0.89001  1.0000
  C   C156      1.0  0.25633  0.03845  0.73695  1.0000
  H   H265      1.0  0.00298  0.17437  0.67184  1.0000
  H   H266      1.0  0.01593  0.17306  0.56779  1.0000
  H   H267      1.0  0.29532  0.07481  0.87076  1.0000
  C   C157      1.0  0.20451  0.02332  0.67445  1.0000
  C   C158      1.0  0.24680  0.06974  0.72150  1.0000
  H   H268      1.0  0.15762  0.02945  0.71465  1.0000
  C   C159      1.0  0.26410  0.01476  0.70426  1.0000
  C   C160      1.0  0.13351  0.06398  0.84359  1.0000
  H   H269      1.0  0.16042  0.02523  0.61275  1.0000
  N   N11       1.0  0.11655  0.00303  0.86542  1.0000
  H   H270      1.0  0.29991  0.01345  0.85822  1.0000
  H   H271      1.0  0.15087  0.04378  0.85928  1.0000
  C   C161      1.0  0.44193  0.18573  0.91378  1.0000
  H   H272      1.0  0.25926  0.04375  0.68845  1.0000
  H   H273      1.0  0.00928  0.20937  0.88882  1.0000
  Fe  Fe21      1.0  0.24913  0.01230  0.84907  1.0000
  H   H274      1.0  0.97804  0.10628  0.79377  1.0000
  H   H275      1.0  0.18239  0.99594  0.62187  1.0000
  H   H276      1.0  0.34492  0.00522  0.93858  1.0000
  S   S36       1.0  0.41131  0.11652  0.95489  1.0000
  S   S37       1.0  0.20929  0.05565  0.89583  1.0000
  C   C162      1.0  0.98604  0.16948  0.62177  1.0000
  H   H277      1.0  0.06360  0.13713  0.66328  1.0000
  H   H278      1.0  0.17858  0.98977  0.80230  1.0000
  H   H279      1.0  0.21828  0.16331  0.82070  1.0000
  S   S38       1.0  0.21222  0.00141  0.92968  1.0000
  H   H280      1.0  0.27495  0.04792  0.73132  1.0000
  C   C163      1.0  0.21650  0.03803  0.75495  1.0000
  C   C164      1.0  0.13763  0.04327  0.84657  1.0000
  H   H281      1.0  0.12055  0.99493  0.92660  1.0000
  C   C165      1.0  0.23655  0.08628  0.72938  1.0000
  H   H282      1.0  0.03255  0.17796  0.59507  1.0000
  H   H283      1.0  0.00215  0.07989  0.71024  1.0000
  H   H284      1.0  0.19653  0.18017  0.69728  1.0000
  H   H285      1.0  0.14937  0.99231  0.73840  1.0000
  H   H286      1.0  0.20073  0.18675  0.79424  1.0000
  S   S39       1.0  0.01250  0.13713  0.80730  1.0000
  S   S40       1.0  0.27538  0.02165  0.80501  1.0000
  S   S41       1.0  0.21177  0.00869  0.85751  1.0000
  H   H287      1.0  0.31145  0.05148  0.82951  1.0000
  H   H288      1.0  0.17310  0.01540  0.90280  1.0000
  H   H289      1.0  0.46964  0.18006  0.96662  1.0000
  H   H290      1.0  0.10199  0.02619  0.85035  1.0000
  H   H291      1.0  0.98733  0.20306  0.64657  1.0000
  C   C166      1.0  0.29864  0.02691  0.93918  1.0000
  H   H292      1.0  0.34138  0.06655  0.81192  1.0000
  C   C167      1.0  0.18364  0.00660  0.79091  1.0000
  H   H293      1.0  0.99552  0.16118  0.63408  1.0000
  Fe  Fe22      1.0  0.37849  0.09004  0.95989  1.0000
  H   H294      1.0  0.19574  0.02957  0.96055  1.0000
  H   H295      1.0  0.28277  0.02153  0.70273  1.0000
  H   H296      1.0  0.18016  0.01508  0.80807  1.0000
  C   C168      1.0  0.99330  0.21295  0.89424  1.0000
  H   H297      1.0  0.06067  0.99921  0.81258  1.0000
  H   H298      1.0  0.99730  0.09701  0.73252  1.0000
  H   H299      1.0  0.15689  0.00829  0.94136  1.0000
  C   C169      1.0  0.15712  0.00436  0.91942  1.0000
  C   C170      1.0  0.99034  0.18054  0.68279  1.0000
  C   C171      1.0  0.33251  0.98918  0.94203  1.0000
  H   H300      1.0  0.98745  0.19899  0.94170  1.0000
  C   C172      1.0  0.18059  0.99138  0.71258  1.0000
  H   H301      1.0  0.28051  0.10305  0.96083  1.0000
  H   H302      1.0  0.28031  0.06045  0.92669  1.0000
  H   H303      1.0  0.45377  0.19915  0.89509  1.0000
  H   H304      1.0  0.97900  0.23636  0.88095  1.0000
  H   H305      1.0  0.13186  0.99999  0.67667  1.0000
  C   C173      1.0  0.14392  0.00148  0.65530  1.0000
  H   H306      1.0  0.25601  0.10095  0.94693  1.0000
  H   H307      1.0  0.31025  0.99008  0.73393  1.0000
  H   H308      1.0  0.21203  0.99475  0.68156  1.0000
  H   H309      1.0  0.99134  0.20469  0.70674  1.0000
  C   C174      1.0  0.98899  0.21408  0.92697  1.0000
  H   H310      1.0  0.43764  0.19168  0.93370  1.0000
  H   H311      1.0  0.97865  0.15912  0.60796  1.0000
  C   C175      1.0  0.34290  0.99342  0.84210  1.0000
  H   H312      1.0  0.31512  0.98830  0.95372  1.0000
  H   H313      1.0  0.98347  0.04985  0.75982  1.0000
  N   N12       1.0  0.32181  0.99484  0.86158  1.0000
  H   H314      1.0  0.30601  0.07146  0.97076  1.0000
  H   H315      1.0  0.06378  0.22988  0.80419  1.0000
  H   H316      1.0  0.23095  0.07039  0.94380  1.0000
  H   H317      1.0  0.24003  0.04906  0.94044  1.0000
  H   H318      1.0  0.19060  0.05147  0.97205  1.0000
  C   C176      1.0  0.29482  0.98844  0.75018  1.0000
  H   H319      1.0  0.26804  0.04393  0.97835  1.0000
  H   H320      1.0  0.12995  0.98830  0.78429  1.0000
  H   H321      1.0  0.15729  0.98821  0.92205  1.0000
  C   C177      1.0  0.97806  0.21971  0.83522  1.0000
  H   H322      1.0  0.21411  0.98765  0.59540  1.0000
  H   H323      1.0  0.14161  0.98765  0.61775  1.0000
  Fe  Fe23      1.0  0.02219  0.44149  0.32412  1.0000
  S   S42       1.0  0.02901  0.41745  0.30172  1.0000
  H   H324      1.0  0.29343  0.46825  0.46431  1.0000
  Fe  Fe24      1.0  0.06594  0.43400  0.30061  1.0000
  Fe  Fe25      1.0  0.03534  0.44145  0.25915  1.0000
  S   S43       1.0  0.01903  0.43465  0.22133  1.0000
  C   C178      1.0  0.10130  0.40433  0.42219  1.0000
  H   H325      1.0  0.16443  0.42473  0.32950  1.0000
  H   H326      1.0  0.09856  0.46788  0.45384  1.0000
  C   C179      1.0  0.00945  0.39425  0.43993  1.0000
  S   S44       1.0  0.01788  0.38180  0.46942  1.0000
  S   S45       1.0  0.42401  0.24176  0.07696  1.0000
  C   C180      1.0  0.03062  0.48175  0.41827  1.0000
  C   C181      1.0  0.00067  0.35618  0.34472  1.0000
  S   S46       1.0  0.19642  0.48181  0.42253  1.0000
  H   H327      1.0  0.00404  0.37609  0.09475  1.0000
  H   H328      1.0  0.46289  0.27028  0.01250  1.0000
  H   H329      1.0  0.06362  0.39563  0.43686  1.0000
  H   H330      1.0  0.06390  0.43093  0.44019  1.0000
  Fe  Fe26      1.0  0.06324  0.47675  0.28178  1.0000
  H   H331      1.0  0.47397  0.29306  0.12380  1.0000
  C   C182      1.0  0.97855  0.33650  0.01948  1.0000
  H   H332      1.0  0.04126  0.35947  0.39630  1.0000
  N   N13       1.0  0.01762  0.39907  0.13639  1.0000
  H   H333      1.0  0.11451  0.34973  0.45423  1.0000
  C   C183      1.0  0.98419  0.36714  0.35490  1.0000
  H   H334      1.0  0.99079  0.35568  0.14605  1.0000
  H   H335      1.0  0.14831  0.40925  0.41540  1.0000
  H   H336      1.0  0.06898  0.45995  0.47474  1.0000
  H   H337      1.0  0.46868  0.39085  0.01614  1.0000
  H   H338      1.0  0.12170  0.36634  0.40599  1.0000
  H   H339      1.0  0.29047  0.43613  0.42664  1.0000
  H   H340      1.0  0.07583  0.44901  0.13253  1.0000
  C   C184      1.0  0.11061  0.44062  0.34576  1.0000
  C   C185      1.0  0.04719  0.46981  0.41476  1.0000
  H   H341      1.0  0.01061  0.38494  0.18398  1.0000
  H   H342      1.0  0.03793  0.43224  0.12374  1.0000
  C   C186      1.0  0.14810  0.44199  0.35374  1.0000
  H   H343      1.0  0.06429  0.36486  0.43497  1.0000
  S   S47       1.0  0.24799  0.47343  0.44477  1.0000
  H   H344      1.0  0.05999  0.34705  0.37961  1.0000
  C   C187      1.0  0.99807  0.41664  0.39278  1.0000
  C   C188      1.0  0.01728  0.41062  0.38700  1.0000
  C   C189      1.0  0.02279  0.39921  0.41051  1.0000
  H   H345      1.0  0.46537  0.30518  0.01740  1.0000
  H   H346      1.0  0.19489  0.47392  0.29818  1.0000
  N   N14       1.0  0.10086  0.38219  0.42688  1.0000
  H   H347      1.0  0.02804  0.41479  0.36449  1.0000
  H   H348      1.0  0.03773  0.39474  0.40590  1.0000
  C   C190      1.0  0.28551  0.44106  0.44733  1.0000
  C   C191      1.0  0.16615  0.39157  0.39503  1.0000
  C   C192      1.0  0.99712  0.41027  0.22792  1.0000
  H   H349      1.0  0.29644  0.47352  0.42446  1.0000
  H   H350      1.0  0.00717  0.36526  0.99902  1.0000
  H   H351      1.0  0.05610  0.36900  0.35692  1.0000
  H   H352      1.0  0.01036  0.39335  0.25910  1.0000
  C   C193      1.0  0.99709  0.39231  0.24718  1.0000
  H   H353      1.0  0.12542  0.39106  0.38371  1.0000
  H   H354      1.0  0.16428  0.37510  0.39554  1.0000
  H   H355      1.0  0.00860  0.43409  0.10718  1.0000
  H   H356      1.0  0.32827  0.45561  0.45541  1.0000
  H   H357      1.0  0.02879  0.36667  0.05689  1.0000
  H   H358      1.0  0.43921  0.47680  0.13601  1.0000
  C   C194      1.0  0.99313  0.48241  0.37639  1.0000
  C   C195      1.0  0.46551  0.31684  0.09677  1.0000
  H   H359      1.0  0.11571  0.41407  0.42957  1.0000
  H   H360      1.0  0.97887  0.39509  0.46798  1.0000
  S   S48       1.0  0.05846  0.45596  0.32683  1.0000
  C   C196      1.0  0.05155  0.41793  0.15742  1.0000
  H   H361      1.0  0.36781  0.46476  0.40957  1.0000
  C   C197      1.0  0.14530  0.39256  0.41637  1.0000
  H   H362      1.0  0.09581  0.44538  0.34974  1.0000
  C   C198      1.0  0.98394  0.41064  0.42188  1.0000
  C   C199      1.0  0.05752  0.36218  0.37958  1.0000
  Fe  Fe27      1.0  0.17382  0.45307  0.41334  1.0000
  C   C200      1.0  0.14918  0.42874  0.33487  1.0000
  Fe  Fe28      1.0  0.44562  0.26643  0.09486  1.0000
  S   S49       1.0  0.08892  0.41603  0.31159  1.0000
  H   H363      1.0  0.02918  0.37618  0.16049  1.0000
  H   H364      1.0  0.08203  0.37304  0.47359  1.0000
  C   C201      1.0  0.11156  0.42683  0.32757  1.0000
  C   C202      1.0  0.98980  0.39968  0.44555  1.0000
  H   H365      1.0  0.00667  0.47548  0.37182  1.0000
  H   H366      1.0  0.13172  0.41023  0.30841  1.0000
  H   H367      1.0  0.07472  0.39228  0.38515  1.0000
  Fe  Fe29      1.0  0.20972  0.46081  0.45020  1.0000
  S   S50       1.0  0.02607  0.46463  0.28176  1.0000
  C   C203      1.0  0.99178  0.35718  0.01721  1.0000
  C   C204      1.0  0.13078  0.42075  0.32258  1.0000
  H   H368      1.0  0.98374  0.38632  0.12855  1.0000
  C   C205      1.0  0.07866  0.42874  0.42597  1.0000
  C   C206      1.0  0.08080  0.36856  0.41799  1.0000
  C   C207      1.0  0.12870  0.44788  0.35934  1.0000
  C   C208      1.0  0.06744  0.43982  0.15619  1.0000
  H   H369      1.0  0.46058  0.34389  0.07253  1.0000
  S   S51       1.0  0.17295  0.45363  0.36522  1.0000
  H   H370      1.0  0.09487  0.44120  0.42523  1.0000
  H   H371      1.0  0.00250  0.45224  0.42737  1.0000
  C   C209      1.0  0.00593  0.46665  0.43561  1.0000
  H   H372      1.0  0.26698  0.43907  0.45150  1.0000
  H   H373      1.0  0.06481  0.48102  0.40341  1.0000
  H   H374      1.0  0.47055  0.33732  0.02145  1.0000
  S   S52       1.0  0.14436  0.44687  0.45294  1.0000
  C   C210      1.0  0.46562  0.37526  0.01151  1.0000
  S   S53       1.0  0.18982  0.43240  0.43728  1.0000
  H   H375      1.0  0.00826  0.33789  0.18102  1.0000
  C   C211      1.0  0.99237  0.36055  0.16692  1.0000
  H   H376      1.0  0.03545  0.39451  0.04818  1.0000
  H   H377      1.0  0.04909  0.39792  0.11033  1.0000
  S   S54       1.0  0.44703  0.29965  0.08136  1.0000
  H   H378      1.0  0.04513  0.40896  0.18141  1.0000
  C   C212      1.0  0.99492  0.40071  0.13269  1.0000
  C   C213      1.0  0.03196  0.39788  0.10768  1.0000
  C   C214      1.0  0.02198  0.37858  0.09591  1.0000
  C   C215      1.0  0.99618  0.41895  0.10696  1.0000
  H   H379      1.0  0.11210  0.38428  0.46751  1.0000
  H   H380      1.0  0.01941  0.42317  0.16054  1.0000
  H   H381      1.0  0.05765  0.44823  0.16772  1.0000
  C   C216      1.0  0.03608  0.38099  0.06440  1.0000
  H   H382      1.0  0.12491  0.46999  0.24366  1.0000
  C   C217      1.0  0.12284  0.38241  0.40731  1.0000
  C   C218      1.0  0.32579  0.46723  0.43776  1.0000
  H   H383      1.0  0.45201  0.36336  0.03063  1.0000
  S   S55       1.0  0.07324  0.45577  0.25520  1.0000
  H   H384      1.0  0.06210  0.41035  0.14540  1.0000
  N   N15       1.0  0.98649  0.47492  0.43452  1.0000
  C   C219      1.0  0.01354  0.38059  0.16223  1.0000
  H   H385      1.0  0.03577  0.41214  0.08942  1.0000
  H   H386      1.0  0.10494  0.41161  0.39793  1.0000
  C   C220      1.0  0.03095  0.41877  0.14399  1.0000
  H   H387      1.0  0.40580  0.48073  0.42252  1.0000
  H   H388      1.0  0.12794  0.45838  0.37353  1.0000
  H   H389      1.0  0.00133  0.41570  0.08489  1.0000
  H   H390      1.0  0.02265  0.36446  0.11072  1.0000
  H   H391      1.0  0.09350  0.38020  0.36860  1.0000
  H   H392      1.0  0.10508  0.48206  0.38990  1.0000
  C   C221      1.0  0.07791  0.37737  0.38654  1.0000
  H   H393      1.0  0.08239  0.35306  0.41800  1.0000
  C   C222      1.0  0.45147  0.47740  0.11527  1.0000
  H   H394      1.0  0.47668  0.34799  0.98235  1.0000
  C   C223      1.0  0.07932  0.40717  0.43882  1.0000
  H   H395      1.0  0.05427  0.38317  0.06431  1.0000
  C   C224      1.0  0.09929  0.35122  0.46838  1.0000
  H   H396      1.0  0.11894  0.47906  0.29226  1.0000
  S   S56       1.0  0.43324  0.24691  0.14230  1.0000
  H   H397      1.0  0.08104  0.43861  0.16772  1.0000
  H   H398      1.0  0.16060  0.48288  0.31903  1.0000
  C   C225      1.0  0.09863  0.37360  0.45968  1.0000
  H   H399      1.0  0.47144  0.46445  0.14002  1.0000
  H   H400      1.0  0.28784  0.43082  0.46679  1.0000
  H   H401      1.0  0.18199  0.39883  0.40199  1.0000
  C   C226      1.0  0.46991  0.33833  0.08728  1.0000
  H   H402      1.0  0.14474  0.38443  0.43936  1.0000
  H   H403      1.0  0.33034  0.46268  0.41654  1.0000
  H   H404      1.0  0.45954  0.37544  0.99071  1.0000
  Fe  Fe30      1.0  0.16855  0.47371  0.46445  1.0000
  S   S57       1.0  0.99188  0.43180  0.36370  1.0000
  S   S58       1.0  0.98743  0.32390  0.99299  1.0000
  H   H405      1.0  0.07858  0.40531  0.46307  1.0000
  H   H406      1.0  0.99181  0.33895  0.35174  1.0000
  H   H407      1.0  0.36630  0.47821  0.45338  1.0000
  H   H408      1.0  0.98513  0.40199  0.15409  1.0000
  H   H409      1.0  0.44400  0.46317  0.10767  1.0000
  H   H410      1.0  0.07615  0.43005  0.40295  1.0000
  H   H411      1.0  0.16824  0.40029  0.37172  1.0000
  H   H412      1.0  0.01534  0.36027  0.35510  1.0000
  H   H413      1.0  0.04219  0.45870  0.40082  1.0000
  H   H414      1.0  0.00673  0.46150  0.45928  1.0000
  H   H415      1.0  0.99521  0.38353  0.03618  1.0000
  H   H416      1.0  0.00759  0.36139  0.31989  1.0000
  H   H417      1.0  0.08353  0.33970  0.46593  1.0000
  H   H418      1.0  0.04722  0.46102  0.43707  1.0000
  H   H419      1.0  0.99439  0.34620  0.21141  1.0000
  C   C227      1.0  0.99325  0.34220  0.18973  1.0000
  H   H420      1.0  0.99387  0.38415  0.34788  1.0000
  H   H421      1.0  0.14684  0.47723  0.28041  1.0000
  C   C228      1.0  0.29980  0.46394  0.44363  1.0000
  C   C229      1.0  0.98504  0.36746  0.03825  1.0000
  C   C230      1.0  0.47456  0.47839  0.12182  1.0000
  H   H422      1.0  0.40839  0.48001  0.38374  1.0000
  C   C231      1.0  0.37599  0.48193  0.40577  1.0000
  H   H423      1.0  0.98000  0.42253  0.19731  1.0000
  C   C232      1.0  0.47727  0.30962  0.11636  1.0000
  H   H424      1.0  0.98072  0.35885  0.26442  1.0000
  C   C233      1.0  0.47605  0.28413  0.99550  1.0000
  C   C234      1.0  0.98012  0.40866  0.21211  1.0000
  S   S59       1.0  0.47702  0.25787  0.08408  1.0000
  C   C235      1.0  0.98035  0.37280  0.25011  1.0000
  H   H425      1.0  0.97886  0.36244  0.37985  1.0000
  C   C236      1.0  0.08625  0.45974  0.47617  1.0000
  Fe  Fe31      1.0  0.16178  0.42816  0.47766  1.0000
  C   C237      1.0  0.98011  0.48024  0.35199  1.0000
  C   C238      1.0  0.40186  0.48700  0.40133  1.0000
  H   H426      1.0  0.99254  0.48714  0.32951  1.0000
  H   H427      1.0  0.12468  0.48649  0.33527  1.0000
  C   C239      1.0  0.13261  0.48644  0.24460  1.0000
  C   C240      1.0  0.13609  0.48681  0.27592  1.0000
  H   H428      1.0  0.14033  0.43687  0.56004  1.0000
  Fe  Fe32      1.0  0.02314  0.39789  0.56684  1.0000
  C   C241      1.0  0.10816  0.46990  0.55783  1.0000
  S   S60       1.0  0.04954  0.39550  0.59215  1.0000
  C   C242      1.0  0.03259  0.48091  0.50589  1.0000
  H   H429      1.0  0.01910  0.26757  0.82855  1.0000
  S   S61       1.0  0.99134  0.40332  0.58786  1.0000
  H   H430      1.0  0.98092  0.35425  0.94924  1.0000
  S   S62       1.0  0.00386  0.36929  0.55471  1.0000
  H   H431      1.0  0.34680  0.47972  0.49678  1.0000
  C   C243      1.0  0.04441  0.27921  0.72666  1.0000
  H   H432      1.0  0.05612  0.26236  0.65354  1.0000
  H   H433      1.0  0.00871  0.24680  0.87716  1.0000
  H   H434      1.0  0.08775  0.38578  0.60650  1.0000
  H   H435      1.0  0.03336  0.44728  0.63833  1.0000
  H   H436      1.0  0.02536  0.25509  0.66701  1.0000
  C   C244      1.0  0.09431  0.47087  0.49944  1.0000
  H   H437      1.0  0.06063  0.46131  0.52874  1.0000
  C   C245      1.0  0.04357  0.29780  0.63915  1.0000
  C   C246      1.0  0.03364  0.33512  0.54277  1.0000
  H   H438      1.0  0.07460  0.44323  0.53616  1.0000
  H   H439      1.0  0.10419  0.40841  0.49556  1.0000
  H   H440      1.0  0.00633  0.29799  0.81629  1.0000
  H   H441      1.0  0.00766  0.35693  0.63096  1.0000
  S   S63       1.0  0.02951  0.41954  0.52172  1.0000
  H   H442      1.0  0.08606  0.34747  0.51623  1.0000
  H   H443      1.0  0.03542  0.35981  0.67050  1.0000
  H   H444      1.0  0.12397  0.38620  0.57454  1.0000
  H   H445      1.0  0.12295  0.32803  0.55834  1.0000
  C   C247      1.0  0.11273  0.44914  0.55864  1.0000
  C   C248      1.0  0.10047  0.40317  0.51969  1.0000
  H   H446      1.0  0.98586  0.34460  0.68445  1.0000
  C   C249      1.0  0.03531  0.34480  0.68390  1.0000
  C   C250      1.0  0.11638  0.39721  0.53293  1.0000
  H   H447      1.0  0.04129  0.47076  0.58776  1.0000
  H   H448      1.0  0.31891  0.47957  0.54116  1.0000
  H   H449      1.0  0.04840  0.32032  0.67881  1.0000
  H   H450      1.0  0.07542  0.27362  0.73206  1.0000
  H   H451      1.0  0.05643  0.29780  0.65256  1.0000
  C   C251      1.0  0.07498  0.39592  0.56906  1.0000
  C   C252      1.0  0.04009  0.33210  0.63648  1.0000
  H   H452      1.0  0.04408  0.34816  0.62246  1.0000
  H   H453      1.0  0.05453  0.28250  0.60434  1.0000
  H   H454      1.0  0.04292  0.34783  0.70291  1.0000
  H   H455      1.0  0.07351  0.45978  0.60494  1.0000
  H   H456      1.0  0.11495  0.35060  0.55958  1.0000
  C   C253      1.0  0.01268  0.47613  0.52887  1.0000
  H   H457      1.0  0.14035  0.45597  0.58136  1.0000
  H   H458      1.0  0.07981  0.34701  0.59700  1.0000
  H   H459      1.0  0.06713  0.40620  0.52731  1.0000
  C   C254      1.0  0.07953  0.40204  0.53772  1.0000
  H   H460      1.0  0.22841  0.47616  0.50462  1.0000
  C   C255      1.0  0.04925  0.33524  0.66449  1.0000
  C   C256      1.0  0.07542  0.33016  0.60768  1.0000
  Fe  Fe33      1.0  0.00713  0.39108  0.51144  1.0000
  H   H461      1.0  0.99425  0.24135  0.72980  1.0000
  N   N16       1.0  0.08431  0.46922  0.55621  1.0000
  C   C257      1.0  0.03824  0.31789  0.59292  1.0000
  H   H462      1.0  0.03435  0.46946  0.49376  1.0000
  H   H463      1.0  0.02711  0.42484  0.62264  1.0000
  H   H464      1.0  0.06133  0.34829  0.56175  1.0000
  C   C258      1.0  0.99222  0.28780  0.80889  1.0000
  H   H465      1.0  0.01470  0.32682  0.54973  1.0000
  H   H466      1.0  0.03467  0.44858  0.57206  1.0000
  H   H467      1.0  0.98469  0.36912  0.66647  1.0000
  C   C259      1.0  0.10033  0.34533  0.50100  1.0000
  H   H468      1.0  0.02094  0.32488  0.64399  1.0000
  C   C260      1.0  0.01194  0.24854  0.73021  1.0000
  H   H469      1.0  0.00917  0.44061  0.62206  1.0000
  H   H470      1.0  0.01731  0.33376  0.69334  1.0000
  C   C261      1.0  0.11161  0.39068  0.56424  1.0000
  S   S64       1.0  0.18321  0.45451  0.49292  1.0000
  C   C262      1.0  0.04258  0.24062  0.83505  1.0000
  C   C263      1.0  0.13735  0.45178  0.56034  1.0000
  H   H471      1.0  0.07739  0.24073  0.83101  1.0000
  N   N17       1.0  0.04966  0.31933  0.61851  1.0000
  C   C264      1.0  0.05769  0.26661  0.73158  1.0000
  H   H472      1.0  0.11045  0.44378  0.53819  1.0000
  C   C265      1.0  0.09114  0.39041  0.58228  1.0000
  S   S65       1.0  0.00530  0.28585  0.71766  1.0000
  S   S66       1.0  0.14182  0.39704  0.51063  1.0000
  H   H473      1.0  0.97860  0.26479  0.85112  1.0000
  C   C266      1.0  0.04053  0.27912  0.62459  1.0000
  C   C267      1.0  0.02157  0.27016  0.72567  1.0000
  C   C268      1.0  0.04804  0.24494  0.73598  1.0000
  H   H474      1.0  0.05191  0.29593  0.72330  1.0000
  C   C269      1.0  0.04229  0.45497  0.58934  1.0000
  C   C270      1.0  0.98865  0.34939  0.63729  1.0000
  H   H475      1.0  0.06650  0.43903  0.58781  1.0000
  H   H476      1.0  0.10098  0.43662  0.57854  1.0000
  H   H477      1.0  0.06742  0.34609  0.65742  1.0000
  H   H478      1.0  0.03746  0.35034  0.52656  1.0000
  C   C271      1.0  0.06744  0.45548  0.58538  1.0000
  H   H479      1.0  0.08331  0.32999  0.62706  1.0000
  C   C272      1.0  0.02713  0.44105  0.62004  1.0000
  H   H480      1.0  0.03384  0.34832  0.58053  1.0000
  H   H481      1.0  0.08851  0.30569  0.59837  1.0000
  H   H482      1.0  0.12236  0.33773  0.59148  1.0000
  C   C273      1.0  0.04274  0.33888  0.57009  1.0000
  H   H483      1.0  0.11697  0.35522  0.50372  1.0000
  C   C274      1.0  0.11371  0.33523  0.57316  1.0000
  H   H484      1.0  0.14989  0.46411  0.54073  1.0000
  H   H485      1.0  0.04344  0.30769  0.57969  1.0000
  C   C275      1.0  0.08854  0.32092  0.58601  1.0000
  H   H486      1.0  0.11199  0.47454  0.57832  1.0000
  H   H487      1.0  0.98031  0.39048  0.94537  1.0000
  H   H488      1.0  0.08098  0.31885  0.56678  1.0000
  H   H489      1.0  0.98193  0.35692  0.61987  1.0000
  H   H490      1.0  0.02401  0.27531  0.61790  1.0000
  H   H491      1.0  0.02685  0.29342  0.65604  1.0000
  C   C276      1.0  0.00468  0.25667  0.82246  1.0000
  Fe  Fe34      1.0  0.99611  0.42273  0.54163  1.0000
  H   H492      1.0  0.01105  0.25855  0.79792  1.0000
  H   H493      1.0  0.09898  0.32873  0.50747  1.0000
  H   H494      1.0  0.01921  0.31015  0.60205  1.0000
  C   C277      1.0  0.07745  0.46024  0.53098  1.0000
  H   H495      1.0  0.04198  0.32576  0.53116  1.0000
  H   H496      1.0  0.04930  0.25682  0.82046  1.0000
  C   C278      1.0  0.03974  0.25960  0.64665  1.0000
  C   C279      1.0  0.97862  0.35210  0.66786  1.0000
  H   H497      1.0  0.04063  0.24134  0.85876  1.0000
  S   S67       1.0  0.98923  0.45277  0.53659  1.0000
  C   C280      1.0  0.98458  0.26515  0.82719  1.0000
  H   H498      1.0  0.98409  0.33255  0.63784  1.0000
  H   H499      1.0  0.11165  0.47043  0.49935  1.0000
  H   H500      1.0  0.99828  0.28903  0.78457  1.0000
  H   H501      1.0  0.03705  0.24641  0.63589  1.0000
  H   H502      1.0  0.12137  0.48226  0.53873  1.0000
  H   H503      1.0  0.99314  0.37088  0.91167  1.0000
  H   H504      1.0  0.08558  0.44331  0.48213  1.0000
  H   H505      1.0  0.31764  0.46587  0.49657  1.0000
  H   H506      1.0  0.46895  0.28756  0.97595  1.0000
  C   C281      1.0  0.33045  0.48154  0.49372  1.0000
  C   C282      1.0  0.40608  0.53169  0.45598  1.0000
  C   C283      1.0  0.99353  0.49798  0.43301  1.0000
  C   C284      1.0  0.34078  0.64053  0.45568  1.0000
  H   H507      1.0  0.46048  0.56756  0.47696  1.0000
  H   H508      1.0  0.30578  0.70133  0.31966  1.0000
  C   C285      1.0  0.01358  0.52724  0.45502  1.0000
  S   S68       1.0  0.20759  0.73038  0.38936  1.0000
  H   H509      1.0  0.28787  0.51018  0.43097  1.0000
  S   S69       1.0  0.37549  0.61115  0.41972  1.0000
  H   H510      1.0  0.18767  0.58396  0.41432  1.0000
  C   C286      1.0  0.33440  0.49645  0.46264  1.0000
  Fe  Fe35      1.0  0.26521  0.72424  0.39980  1.0000
  C   C287      1.0  0.36902  0.69940  0.45438  1.0000
  H   H511      1.0  0.38556  0.65640  0.46091  1.0000
  H   H512      1.0  0.12153  0.69584  0.42474  1.0000
  H   H513      1.0  0.45175  0.52278  0.41723  1.0000
  H   H514      1.0  0.33324  0.66913  0.44740  1.0000
  H   H515      1.0  0.17206  0.69656  0.37044  1.0000
  H   H516      1.0  0.14010  0.54502  0.32348  1.0000
  C   C288      1.0  0.40070  0.63019  0.42090  1.0000
  Fe  Fe36      1.0  0.06722  0.56091  0.39447  1.0000
  S   S70       1.0  0.05996  0.57560  0.43211  1.0000
  S   S71       1.0  0.04088  0.54885  0.36969  1.0000
  Fe  Fe37      1.0  0.11603  0.56757  0.39808  1.0000
  S   S72       1.0  0.11327  0.58311  0.43565  1.0000
  S   S73       1.0  0.14859  0.56302  0.37905  1.0000
  Fe  Fe38      1.0  0.07894  0.55730  0.45433  1.0000
  Fe  Fe39      1.0  0.09489  0.59975  0.40961  1.0000
  S   S74       1.0  0.10211  0.63425  0.40189  1.0000
  S   S75       1.0  0.08305  0.54036  0.41866  1.0000
  S   S76       1.0  0.10081  0.58644  0.37024  1.0000
  S   S77       1.0  0.25887  0.73136  0.35412  1.0000
  C   C289      1.0  0.15569  0.51604  0.45446  1.0000
  H   H517      1.0  0.37645  0.52511  0.38923  1.0000
  C   C290      1.0  0.13731  0.54000  0.43701  1.0000
  C   C291      1.0  0.15204  0.54564  0.40824  1.0000
  C   C292      1.0  0.16906  0.53692  0.40279  1.0000
  C   C293      1.0  0.17066  0.52189  0.42583  1.0000
  H   H518      1.0  0.24261  0.51619  0.42364  1.0000
  H   H519      1.0  0.12418  0.54669  0.44153  1.0000
  H   H520      1.0  0.18071  0.54148  0.38069  1.0000
  H   H521      1.0  0.36740  0.73455  0.37104  1.0000
  H   H522      1.0  0.47408  0.49637  0.38232  1.0000
  H   H523      1.0  0.30095  0.68446  0.35624  1.0000
  H   H524      1.0  0.15671  0.64885  0.43440  1.0000
  H   H525      1.0  0.31383  0.61046  0.46398  1.0000
  C   C294      1.0  0.31566  0.62603  0.46817  1.0000
  H   H526      1.0  0.43785  0.59410  0.44383  1.0000
  C   C295      1.0  0.44072  0.66062  0.42391  1.0000
  H   H527      1.0  0.13422  0.51712  0.27532  1.0000
  H   H528      1.0  0.14488  0.66496  0.30905  1.0000
  H   H529      1.0  0.30431  0.63241  0.45696  1.0000
  H   H530      1.0  0.42908  0.72724  0.44554  1.0000
  H   H531      1.0  0.37981  0.66550  0.41380  1.0000
  H   H532      1.0  0.44725  0.67112  0.37588  1.0000
  H   H533      1.0  0.39254  0.55495  0.43829  1.0000
  H   H534      1.0  0.41170  0.64424  0.37321  1.0000
  C   C296      1.0  0.05299  0.53825  0.34262  1.0000
  C   C297      1.0  0.07631  0.54078  0.33731  1.0000
  C   C298      1.0  0.08617  0.53273  0.31531  1.0000
  H   H535      1.0  0.21631  0.59866  0.41554  1.0000
  H   H536      1.0  0.00438  0.53701  0.44525  1.0000
  C   C299      1.0  0.03950  0.52738  0.32609  1.0000
  H   H537      1.0  0.08689  0.54909  0.34990  1.0000
  H   H538      1.0  0.10424  0.53514  0.31081  1.0000
  C   C300      1.0  0.42062  0.55425  0.40531  1.0000
  H   H539      1.0  0.02161  0.52585  0.32955  1.0000
  H   H540      1.0  0.40033  0.71340  0.40247  1.0000
  H   H541      1.0  0.41978  0.56654  0.38808  1.0000
  H   H542      1.0  0.45362  0.49147  0.09765  1.0000
  C   C301      1.0  0.34044  0.50371  0.40807  1.0000
  C   C302      1.0  0.41556  0.64483  0.39467  1.0000
  H   H543      1.0  0.45547  0.61877  0.44762  1.0000
  C   C303      1.0  0.20210  0.56660  0.44374  1.0000
  C   C304      1.0  0.42591  0.64592  0.44998  1.0000
  C   C305      1.0  0.14101  0.66933  0.38300  1.0000
  H   H544      1.0  0.18481  0.55578  0.45715  1.0000
  H   H545      1.0  0.41494  0.69538  0.41144  1.0000
  H   H546      1.0  0.41079  0.68378  0.36548  1.0000
  C   C306      1.0  0.35926  0.52586  0.39816  1.0000
  C   C307      1.0  0.18020  0.64231  0.45999  1.0000
  S   S78       1.0  0.08519  0.51036  0.27333  1.0000
  H   H547      1.0  0.20310  0.52097  0.28042  1.0000
  N   N18       1.0  0.34155  0.48901  0.43539  1.0000
  H   H548      1.0  0.12043  0.51048  0.32738  1.0000
  H   H549      1.0  0.30268  0.53486  0.46049  1.0000
  C   C308      1.0  0.35448  0.54034  0.37340  1.0000
  H   H550      1.0  0.15703  0.64474  0.30893  1.0000
  H   H551      1.0  0.36489  0.68288  0.40478  1.0000
  H   H552      1.0  0.03047  0.53090  0.43909  1.0000
  C   C309      1.0  0.17032  0.49994  0.31222  1.0000
  C   C310      1.0  0.07261  0.52122  0.29958  1.0000
  H   H553      1.0  0.23626  0.58128  0.44918  1.0000
  C   C311      1.0  0.20543  0.49069  0.29406  1.0000
  C   C312      1.0  0.16766  0.53477  0.30290  1.0000
  C   C313      1.0  0.37756  0.68024  0.41736  1.0000
  C   C314      1.0  0.43564  0.66006  0.39618  1.0000
  H   H554      1.0  0.36011  0.53321  0.41714  1.0000
  H   H555      1.0  0.42970  0.64635  0.47145  1.0000
  S   S79       1.0  0.46488  0.67987  0.42715  1.0000
  H   H556      1.0  0.39474  0.70060  0.35687  1.0000
  C   C315      1.0  0.33242  0.71165  0.34303  1.0000
  H   H557      1.0  0.41691  0.72182  0.30458  1.0000
  H   H558      1.0  0.34568  0.64095  0.43152  1.0000
  H   H559      1.0  0.42340  0.51015  0.46706  1.0000
  H   H560      1.0  0.26201  0.54787  0.44085  1.0000
  H   H561      1.0  0.36839  0.55593  0.36661  1.0000
  H   H562      1.0  0.34230  0.70302  0.33229  1.0000
  H   H563      1.0  0.18340  0.62944  0.42104  1.0000
  H   H564      1.0  0.17736  0.67088  0.43844  1.0000
  H   H565      1.0  0.97956  0.50385  0.42871  1.0000
  H   H566      1.0  0.35399  0.53395  0.35339  1.0000
  N   N19       1.0  0.36847  0.67816  0.45042  1.0000
  H   H567      1.0  0.37336  0.48971  0.38453  1.0000
  H   H568      1.0  0.18139  0.57772  0.27476  1.0000
  H   H569      1.0  0.22087  0.49458  0.27530  1.0000
  H   H570      1.0  0.22754  0.52271  0.47483  1.0000
  C   C316      1.0  0.25737  0.49129  0.46596  1.0000
  C   C317      1.0  0.14818  0.69214  0.44684  1.0000
  H   H571      1.0  0.11832  0.50092  0.40900  1.0000
  C   C318      1.0  0.13936  0.52545  0.46023  1.0000
  H   H572      1.0  0.14279  0.71994  0.42504  1.0000
  C   C319      1.0  0.40588  0.63088  0.44849  1.0000
  C   C320      1.0  0.13342  0.50347  0.33229  1.0000
  H   H573      1.0  0.12970  0.67787  0.38794  1.0000
  H   H574      1.0  0.46852  0.60031  0.43804  1.0000
  H   H575      1.0  0.44590  0.73048  0.39213  1.0000
  C   C321      1.0  0.27836  0.50790  0.45372  1.0000
  H   H576      1.0  0.22923  0.53137  0.40262  1.0000
  H   H577      1.0  0.37748  0.50450  0.43276  1.0000
  H   H578      1.0  0.31850  0.50014  0.46243  1.0000
  C   C322      1.0  0.16857  0.57207  0.29692  1.0000
  H   H579      1.0  0.10420  0.50832  0.38102  1.0000
  C   C323      1.0  0.13228  0.70370  0.43840  1.0000
  C   C324      1.0  0.43875  0.52970  0.42183  1.0000
  H   H580      1.0  0.38656  0.70885  0.45534  1.0000
  H   H581      1.0  0.18171  0.54123  0.28178  1.0000
  H   H582      1.0  0.19182  0.59345  0.44680  1.0000
  H   H583      1.0  0.15774  0.58198  0.29749  1.0000
  C   C325      1.0  0.17020  0.64742  0.36899  1.0000
  C   C326      1.0  0.17954  0.66887  0.36643  1.0000
  H   H584      1.0  0.16189  0.51817  0.25783  1.0000
  H   H585      1.0  0.03866  0.50968  0.29272  1.0000
  C   C327      1.0  0.30734  0.70101  0.34296  1.0000
  Fe  Fe40      1.0  0.22355  0.70748  0.37625  1.0000
  Fe  Fe41      1.0  0.21874  0.72398  0.43185  1.0000
  N   N20       1.0  0.07749  0.62696  0.31217  1.0000
  C   C328      1.0  0.10212  0.64193  0.30105  1.0000
  C   C329      1.0  0.06312  0.63559  0.29473  1.0000
  C   C330      1.0  0.06942  0.62486  0.34534  1.0000
  C   C331      1.0  0.07531  0.60561  0.30754  1.0000
  C   C332      1.0  0.08457  0.60498  0.27483  1.0000
  C   C333      1.0  0.12033  0.63415  0.31258  1.0000
  C   C334      1.0  0.04387  0.61112  0.36059  1.0000
  C   C335      1.0  0.05942  0.65550  0.30152  1.0000
  C   C336      1.0  0.04581  0.66346  0.28133  1.0000
  C   C337      1.0  0.08360  0.58294  0.27350  1.0000
  C   C338      1.0  0.14435  0.65090  0.30072  1.0000
  H   H586      1.0  0.10366  0.65675  0.30772  1.0000
  H   H587      1.0  0.10766  0.64663  0.27606  1.0000
  H   H588      1.0  0.07113  0.63956  0.27017  1.0000
  H   H589      1.0  0.04591  0.62351  0.29813  1.0000
  H   H590      1.0  0.07296  0.64052  0.35001  1.0000
  H   H591      1.0  0.07950  0.61767  0.35795  1.0000
  H   H592      1.0  0.08382  0.59788  0.32220  1.0000
  H   H593      1.0  0.05694  0.59506  0.31485  1.0000
  H   H594      1.0  0.10271  0.61554  0.26522  1.0000
  H   H595      1.0  0.07400  0.60962  0.26030  1.0000
  H   H596      1.0  0.11639  0.63042  0.33737  1.0000
  H   H597      1.0  0.12113  0.62004  0.30528  1.0000
  H   H598      1.0  0.04158  0.59435  0.36319  1.0000
  H   H599      1.0  0.03202  0.61481  0.34757  1.0000
  H   H600      1.0  0.04958  0.65226  0.32514  1.0000
  H   H601      1.0  0.07611  0.66828  0.29766  1.0000
  H   H602      1.0  0.02862  0.65136  0.28496  1.0000
  H   H603      1.0  0.04329  0.67761  0.28677  1.0000
  H   H604      1.0  0.05528  0.66769  0.25730  1.0000
  H   H605      1.0  0.06572  0.57157  0.28280  1.0000
  H   H606      1.0  0.08960  0.58263  0.24984  1.0000
  H   H607      1.0  0.09495  0.57802  0.28647  1.0000
  H   H608      1.0  0.38022  0.73565  0.29213  1.0000
  C   C339      1.0  0.36563  0.48889  0.43302  1.0000
  H   H609      1.0  0.14950  0.65539  0.27577  1.0000
  C   C340      1.0  0.40111  0.69785  0.40134  1.0000
  H   H610      1.0  0.17770  0.57376  0.31496  1.0000
  H   H611      1.0  0.17716  0.50320  0.33177  1.0000
  H   H612      1.0  0.20811  0.56002  0.42534  1.0000
  C   C341      1.0  0.40814  0.69846  0.36814  1.0000
  C   C342      1.0  0.22490  0.53648  0.46183  1.0000
  C   C343      1.0  0.43747  0.54535  0.39936  1.0000
  H   H613      1.0  0.20686  0.63209  0.43870  1.0000
  H   H614      1.0  0.13946  0.62013  0.38227  1.0000
  H   H615      1.0  0.20479  0.65487  0.41583  1.0000
  C   C344      1.0  0.40519  0.54768  0.43376  1.0000
  H   H616      1.0  0.12088  0.70444  0.45895  1.0000
  C   C345      1.0  0.04917  0.51839  0.30511  1.0000
  S   S80       1.0  0.20949  0.68144  0.35508  1.0000
  C   C346      1.0  0.14721  0.50960  0.27798  1.0000
  H   H617      1.0  0.03625  0.63025  0.39016  1.0000
  H   H618      1.0  0.34062  0.73579  0.30199  1.0000
  H   H619      1.0  0.33786  0.54240  0.38162  1.0000
  H   H620      1.0  0.12597  0.66154  0.44749  1.0000
  H   H621      1.0  0.08960  0.63638  0.47769  1.0000
  N   N21       1.0  0.15464  0.51195  0.30636  1.0000
  H   H622      1.0  0.29621  0.70887  0.35320  1.0000
  H   H623      1.0  0.00132  0.49930  0.37394  1.0000
  H   H624      1.0  0.24704  0.56174  0.42117  1.0000
  H   H625      1.0  0.14464  0.54850  0.28344  1.0000
  H   H626      1.0  0.04831  0.61158  0.40564  1.0000
  C   C347      1.0  0.13749  0.50615  0.36318  1.0000
  C   C348      1.0  0.15331  0.54930  0.30196  1.0000
  C   C349      1.0  0.13178  0.64770  0.38692  1.0000
  C   C350      1.0  0.19943  0.58699  0.42927  1.0000
  H   H627      1.0  0.33342  0.70990  0.36674  1.0000
  S   S81       1.0  0.47495  0.71223  0.34178  1.0000
  C   C351      1.0  0.14639  0.63678  0.37966  1.0000
  H   H628      1.0  0.01881  0.60284  0.40346  1.0000
  C   C352      1.0  0.16492  0.67988  0.37316  1.0000
  C   C353      1.0  0.19465  0.63954  0.43215  1.0000
  H   H629      1.0  0.25879  0.71012  0.46253  1.0000
  C   C354      1.0  0.11479  0.49884  0.38718  1.0000
  H   H630      1.0  0.37725  0.72174  0.32938  1.0000
  C   C355      1.0  0.42274  0.52257  0.44995  1.0000
  S   S82       1.0  0.29687  0.71936  0.41064  1.0000
  C   C356      1.0  0.34156  0.73508  0.32569  1.0000
  C   C357      1.0  0.45309  0.60193  0.45158  1.0000
  H   H631      1.0  0.26012  0.53872  0.39328  1.0000
  H   H632      1.0  0.42455  0.71171  0.35697  1.0000
  H   H633      1.0  0.18387  0.51535  0.42149  1.0000
  H   H634      1.0  0.17653  0.53681  0.32121  1.0000
  C   C358      1.0  0.03640  0.61416  0.39187  1.0000
  H   H635      1.0  0.41095  0.50418  0.39374  1.0000
  C   C359      1.0  0.19152  0.50444  0.28589  1.0000
  H   H636      1.0  0.16045  0.69335  0.42585  1.0000
  S   S83       1.0  0.23106  0.69865  0.42077  1.0000
  H   H637      1.0  0.20899  0.52972  0.45462  1.0000
  H   H638      1.0  0.00854  0.50736  0.41375  1.0000
  H   H639      1.0  0.32351  0.50588  0.41207  1.0000
  S   S84       1.0  0.45695  0.55384  0.36393  1.0000
  H   H640      1.0  0.14654  0.52272  0.36193  1.0000
  C   C360      1.0  0.24580  0.54617  0.43383  1.0000
  H   H641      1.0  0.18145  0.63889  0.36344  1.0000
  C   C361      1.0  0.24429  0.53222  0.41208  1.0000
  C   C362      1.0  0.16508  0.65503  0.45126  1.0000
  S   S85       1.0  0.34607  0.55239  0.46691  1.0000
  H   H642      1.0  0.18633  0.50119  0.26542  1.0000
  H   H643      1.0  0.34765  0.51143  0.46205  1.0000
  H   H644      1.0  0.36570  0.70844  0.43448  1.0000
  H   H645      1.0  0.35125  0.63332  0.46748  1.0000
  C   C363      1.0  0.28689  0.52180  0.47058  1.0000
  H   H646      1.0  0.34111  0.49689  0.38838  1.0000
  C   C364      1.0  0.21926  0.57024  0.46372  1.0000
  H   H647      1.0  0.01674  0.53114  0.47617  1.0000
  H   H648      1.0  0.03705  0.49347  0.43078  1.0000
  H   H649      1.0  0.19236  0.65082  0.47162  1.0000
  H   H650      1.0  0.40175  0.68218  0.45962  1.0000
  Fe  Fe42      1.0  0.36460  0.58618  0.46271  1.0000
  H   H651      1.0  0.39387  0.62050  0.46899  1.0000
  C   C365      1.0  0.34403  0.66278  0.46000  1.0000
  H   H652      1.0  0.14787  0.49693  0.37090  1.0000
  C   C366      1.0  0.38392  0.67058  0.46696  1.0000
  H   H653      1.0  0.08107  0.61039  0.47262  1.0000
  H   H654      1.0  0.36229  0.73398  0.46705  1.0000
  H   H655      1.0  0.21117  0.49321  0.31456  1.0000
  H   H656      1.0  0.32121  0.72511  0.45670  1.0000
  C   C367      1.0  0.13426  0.66886  0.46373  1.0000
  C   C368      1.0  0.99946  0.50406  0.46153  1.0000
  H   H657      1.0  0.33407  0.69623  0.47682  1.0000
  H   H658      1.0  0.15812  0.70068  0.46061  1.0000
  H   H659      1.0  0.12287  0.62674  0.45322  1.0000
  H   H660      1.0  0.12083  0.49483  0.23938  1.0000
  H   H661      1.0  0.14932  0.49378  0.22733  1.0000
  H   H662      1.0  0.25807  0.56626  0.47558  1.0000
  H   H663      1.0  0.03152  0.49045  0.39555  1.0000
  H   H664      1.0  0.00941  0.49504  0.47070  1.0000
  C   C369      1.0  0.11580  0.62178  0.47782  1.0000
  N   N22       1.0  0.14774  0.65654  0.47684  1.0000
  H   H665      1.0  0.16975  0.62648  0.47455  1.0000
  C   C370      1.0  0.24462  0.48896  0.49495  1.0000
  H   H666      1.0  0.35887  0.65549  0.51139  1.0000
  C   C371      1.0  0.44507  0.56861  0.49134  1.0000
  N   N23       1.0  0.43897  0.67596  0.58264  1.0000
  C   C372      1.0  0.26086  0.73407  0.50378  1.0000
  C   C373      1.0  0.17705  0.51026  0.55344  1.0000
  C   C374      1.0  0.44713  0.62084  0.55149  1.0000
  H   H667      1.0  0.09757  0.50145  0.53012  1.0000
  H   H668      1.0  0.40028  0.63999  0.62379  1.0000
  C   C375      1.0  0.35795  0.72145  0.48797  1.0000
  H   H669      1.0  0.98342  0.50066  0.47912  1.0000
  H   H670      1.0  0.36924  0.65494  0.63318  1.0000
  C   C376      1.0  0.24103  0.57114  0.51627  1.0000
  S   S86       1.0  0.39036  0.58018  0.48690  1.0000
  H   H671      1.0  0.19652  0.67765  0.52466  1.0000
  C   C377      1.0  0.22020  0.72395  0.59902  1.0000
  H   H672      1.0  0.17197  0.64377  0.51880  1.0000
  H   H673      1.0  0.24364  0.50059  0.53464  1.0000
  H   H674      1.0  0.30406  0.72286  0.58514  1.0000
  C   C378      1.0  0.08630  0.52378  0.56882  1.0000
  C   C379      1.0  0.19985  0.52020  0.52925  1.0000
  C   C380      1.0  0.39711  0.64961  0.60447  1.0000
  H   H675      1.0  0.47222  0.70014  0.57495  1.0000
  H   H676      1.0  0.46846  0.64479  0.64183  1.0000
  H   H677      1.0  0.42740  0.66006  0.64610  1.0000
  C   C381      1.0  0.08827  0.50217  0.57619  1.0000
  H   H678      1.0  0.11995  0.66861  0.48190  1.0000
  H   H679      1.0  0.42007  0.55700  0.58644  1.0000
  H   H680      1.0  0.38003  0.53690  0.61236  1.0000
  C   C382      1.0  0.46612  0.67813  0.53225  1.0000
  H   H681      1.0  0.30454  0.49177  0.51764  1.0000
  C   C383      1.0  0.42562  0.61535  0.54424  1.0000
  H   H682      1.0  0.21370  0.52478  0.54086  1.0000
  H   H683      1.0  0.38740  0.65252  0.53999  1.0000
  H   H684      1.0  0.25130  0.70153  0.53092  1.0000
  H   H685      1.0  0.17427  0.52154  0.56635  1.0000
  H   H686      1.0  0.24302  0.73364  0.50412  1.0000
  C   C384      1.0  0.41406  0.67259  0.59596  1.0000
  H   H687      1.0  0.37375  0.53040  0.57861  1.0000
  H   H688      1.0  0.17157  0.68049  0.54671  1.0000
  H   H689      1.0  0.09017  0.53166  0.58678  1.0000
  S   S87       1.0  0.47390  0.62122  0.59302  1.0000
  C   C385      1.0  0.40532  0.60304  0.56657  1.0000
  H   H690      1.0  0.36053  0.63180  0.61967  1.0000
  H   H691      1.0  0.43741  0.64453  0.60077  1.0000
  H   H692      1.0  0.46517  0.66339  0.59130  1.0000
  C   C386      1.0  0.46587  0.67501  0.50089  1.0000
  C   C387      1.0  0.44494  0.66144  0.63449  1.0000
  C   C388      1.0  0.16383  0.65497  0.52479  1.0000
  H   H693      1.0  0.21351  0.57903  0.47924  1.0000
  C   C389      1.0  0.02747  0.51083  0.53648  1.0000
  C   C390      1.0  0.40673  0.59603  0.59585  1.0000
  C   C391      1.0  0.45356  0.69789  0.58161  1.0000
  H   H694      1.0  0.09863  0.53365  0.54712  1.0000
  S   S88       1.0  0.34616  0.54532  0.53895  1.0000
  H   H695      1.0  0.39883  0.64225  0.58555  1.0000
  C   C392      1.0  0.26061  0.71131  0.50788  1.0000
  H   H696      1.0  0.06458  0.50502  0.47905  1.0000
  H   H697      1.0  0.24560  0.54335  0.50508  1.0000
  H   H698      1.0  0.27822  0.58176  0.51130  1.0000
  C   C393      1.0  0.38462  0.54251  0.58749  1.0000
  H   H699      1.0  0.38083  0.55707  0.58154  1.0000
  C   C394      1.0  0.26193  0.57555  0.52938  1.0000
  H   H700      1.0  0.22552  0.56352  0.53541  1.0000
  H   H701      1.0  0.20221  0.50795  0.51816  1.0000
  C   C395      1.0  0.44124  0.67244  0.55155  1.0000
  H   H702      1.0  0.43219  0.65573  0.55294  1.0000
  H   H703      1.0  0.43237  0.68096  0.53847  1.0000
  H   H704      1.0  0.42352  0.52669  0.51713  1.0000
  S   S89       1.0  0.37770  0.59876  0.56017  1.0000
  H   H705      1.0  0.44995  0.54577  0.58145  1.0000
  H   H706      1.0  0.41038  0.66434  0.50592  1.0000
  H   H707      1.0  0.46273  0.63051  0.53439  1.0000
  C   C396      1.0  0.46008  0.56800  0.53630  1.0000
  C   C397      1.0  0.37705  0.66586  0.50160  1.0000
  C   C398      1.0  0.44826  0.61391  0.58108  1.0000
  S   S90       1.0  0.38620  0.52291  0.49114  1.0000
  H   H708      1.0  0.41215  0.67857  0.61639  1.0000
  C   C399      1.0  0.42804  0.60106  0.60289  1.0000
  H   H709      1.0  0.22866  0.71190  0.56138  1.0000
  H   H710      1.0  0.32740  0.73608  0.55152  1.0000
  H   H711      1.0  0.46546  0.60075  0.49131  1.0000
  H   H712      1.0  0.10579  0.50430  0.57919  1.0000
  H   H713      1.0  0.44962  0.71361  0.53825  1.0000
  C   C400      1.0  0.15991  0.66813  0.49698  1.0000
  S   S91       1.0  0.28552  0.53578  0.52211  1.0000
  H   H714      1.0  0.40411  0.54893  0.53024  1.0000
  H   H715      1.0  0.47285  0.54362  0.55516  1.0000
  C   C401      1.0  0.37214  0.64840  0.61351  1.0000
  H   H716      1.0  0.38848  0.63928  0.51059  1.0000
  H   H717      1.0  0.44910  0.64434  0.67557  1.0000
  H   H718      1.0  0.18098  0.65936  0.56053  1.0000
  H   H719      1.0  0.31011  0.62393  0.49281  1.0000
  H   H720      1.0  0.39118  0.58682  0.61334  1.0000
  H   H721      1.0  0.47611  0.58021  0.58430  1.0000
  H   H722      1.0  0.14712  0.64598  0.54163  1.0000
  H   H723      1.0  0.15019  0.67747  0.50642  1.0000
  H   H724      1.0  0.16247  0.50510  0.54314  1.0000
  H   H725      1.0  0.11890  0.63722  0.51430  1.0000
  C   C402      1.0  0.44686  0.66075  0.60124  1.0000
  H   H726      1.0  0.45737  0.67628  0.63584  1.0000
  C   C403      1.0  0.17916  0.66901  0.54007  1.0000
  H   H727      1.0  0.19492  0.55005  0.51867  1.0000
  C   C404      1.0  0.39181  0.65488  0.51527  1.0000
  H   H728      1.0  0.40771  0.68199  0.57997  1.0000
  H   H729      1.0  0.36771  0.65709  0.59449  1.0000
  H   H730      1.0  0.42463  0.62122  0.52166  1.0000
  H   H731      1.0  0.33377  0.50580  0.51790  1.0000
  Fe  Fe43      1.0  0.36562  0.57999  0.52772  1.0000
  C   C405      1.0  0.09076  0.62072  0.48491  1.0000
  S   S92       1.0  0.06771  0.54119  0.50349  1.0000
  N   N24       1.0  0.44082  0.55694  0.52372  1.0000
  H   H732      1.0  0.41216  0.53105  0.58040  1.0000
  Fe  Fe44      1.0  0.32398  0.55320  0.50951  1.0000
  C   C406      1.0  0.45976  0.53201  0.50401  1.0000
  H   H733      1.0  0.45456  0.65898  0.50215  1.0000
  H   H734      1.0  0.27849  0.71126  0.50312  1.0000
  H   H735      1.0  0.37309  0.72419  0.49758  1.0000
  C   C407      1.0  0.25331  0.50276  0.51197  1.0000
  C   C408      1.0  0.41005  0.54639  0.57475  1.0000
  C   C409      1.0  0.08408  0.49121  0.55071  1.0000
  H   H736      1.0  0.43174  0.71604  0.57084  1.0000
  H   H737      1.0  0.13932  0.62554  0.50574  1.0000
  H   H738      1.0  0.02543  0.52230  0.54847  1.0000
  H   H739      1.0  0.44250  0.49846  0.51160  1.0000
  Fe  Fe45      1.0  0.36918  0.54650  0.49564  1.0000
  H   H740      1.0  0.47318  0.50766  0.49633  1.0000
  C   C410      1.0  0.45059  0.64358  0.65186  1.0000
  H   H741      1.0  0.34938  0.68841  0.50258  1.0000
  H   H742      1.0  0.42873  0.59556  0.62575  1.0000
  H   H743      1.0  0.41772  0.57278  0.53844  1.0000
  H   H744      1.0  0.46166  0.50561  0.53542  1.0000
  C   C411      1.0  0.41787  0.55671  0.54053  1.0000
  H   H745      1.0  0.43623  0.52544  0.54740  1.0000
  C   C412      1.0  0.43903  0.53472  0.52426  1.0000
  H   H746      1.0  0.28072  0.72164  0.54813  1.0000
  C   C413      1.0  0.32135  0.49025  0.51909  1.0000
  H   H747      1.0  0.43849  0.62822  0.65157  1.0000
  H   H748      1.0  0.22874  0.73441  0.61203  1.0000
  H   H749      1.0  0.24967  0.68490  0.48875  1.0000
  C   C414      1.0  0.13064  0.63536  0.49496  1.0000
  H   H750      1.0  0.38005  0.68071  0.50846  1.0000
  H   H751      1.0  0.08247  0.61407  0.50933  1.0000
  H   H752      1.0  0.45071  0.70062  0.60442  1.0000
  H   H753      1.0  0.17696  0.67973  0.48357  1.0000
  C   C415      1.0  0.24930  0.70098  0.48587  1.0000
  H   H754      1.0  0.06855  0.52239  0.56735  1.0000
  C   C416      1.0  0.01022  0.49112  0.54408  1.0000
  C   C417      1.0  0.04948  0.50109  0.49730  1.0000
  H   H755      1.0  0.11547  0.60550  0.48491  1.0000
  C   C418      1.0  0.27472  0.51898  0.50005  1.0000
  H   H756      1.0  0.26189  0.58722  0.54264  1.0000
  C   C419      1.0  0.04683  0.51607  0.51264  1.0000
  H   H757      1.0  0.45974  0.68650  0.48835  1.0000
  H   H758      1.0  0.23118  0.70019  0.48957  1.0000
  C   C420      1.0  0.44899  0.71565  0.56120  1.0000
  C   C421      1.0  0.24222  0.55728  0.49402  1.0000
  S   S93       1.0  0.34072  0.58781  0.50306  1.0000
  H   H759      1.0  0.06762  0.49164  0.54593  1.0000
  H   H760      1.0  0.12799  0.52124  0.48243  1.0000
  H   H761      1.0  0.34349  0.72240  0.50447  1.0000
  H   H762      1.0  0.24984  0.71638  0.58316  1.0000
  H   H763      1.0  0.47464  0.66797  0.54261  1.0000
  H   H764      1.0  0.33596  0.66066  0.48397  1.0000
  H   H765      1.0  0.21074  0.70814  0.61440  1.0000
  C   C422      1.0  0.44967  0.59247  0.48500  1.0000
  C   C423      1.0  0.19975  0.53928  0.50612  1.0000
  S   S94       1.0  0.15745  0.49729  0.48334  1.0000
  H   H766      1.0  0.43525  0.59591  0.49738  1.0000
  C   C424      1.0  0.46538  0.55485  0.56285  1.0000
  H   H767      1.0  0.18506  0.53331  0.49638  1.0000
  N   N25       1.0  0.22159  0.55083  0.48138  1.0000
  H   H768      1.0  0.45703  0.58167  0.54309  1.0000
  H   H769      1.0  0.17735  0.49636  0.56921  1.0000
  H   H770      1.0  0.20760  0.72998  0.59032  1.0000
  C   C425      1.0  0.45919  0.50952  0.51247  1.0000
  H   H771      1.0  0.07551  0.49310  0.59785  1.0000
  H   H772      1.0  0.24074  0.58643  0.50459  1.0000
  H   H773      1.0  0.26128  0.56101  0.54466  1.0000
  C   C426      1.0  0.23805  0.72278  0.57315  1.0000
  H   H774      1.0  0.43044  0.56132  0.48209  1.0000
  H   H775      1.0  0.99479  0.48754  0.56166  1.0000
  H   H776      1.0  0.09561  0.48735  0.49183  1.0000
  C   C427      1.0  0.46688  0.73696  0.55829  1.0000
  H   H777      1.0  0.47643  0.54265  0.50550  1.0000
  C   C428      1.0  0.35124  0.69990  0.48170  1.0000
  H   H778      1.0  0.47678  0.69467  0.52935  1.0000
  H   H779      1.0  0.47643  0.57454  0.51845  1.0000
  S   S95       1.0  0.19930  0.72164  0.47837  1.0000
  H   H780      1.0  0.45910  0.53550  0.48014  1.0000
  H   H781      1.0  0.30718  0.98411  0.10984  1.0000
  C   C429      1.0  0.27114  0.85174  0.41355  1.0000
  H   H782      1.0  0.31071  0.97294  0.16391  1.0000
  H   H783      1.0  0.30189  0.95732  0.23196  1.0000
  S   S96       1.0  0.40457  0.80703  0.44885  1.0000
  H   H784      1.0  0.37793  0.81239  0.30263  1.0000
  H   H785      1.0  0.38177  0.97963  0.17108  1.0000
  C   C430      1.0  0.31080  0.76088  0.40682  1.0000
  H   H786      1.0  0.45422  0.81656  0.45766  1.0000
  C   C431      1.0  0.32281  0.82902  0.33159  1.0000
  C   C432      1.0  0.27759  0.80272  0.33803  1.0000
  H   H787      1.0  0.41982  0.82284  0.37268  1.0000
  H   H788      1.0  0.42099  0.86243  0.30919  1.0000
  S   S97       1.0  0.46454  0.76566  0.34068  1.0000
  H   H789      1.0  0.43502  0.79163  0.42316  1.0000
  H   H790      1.0  0.45557  0.82443  0.26758  1.0000
  H   H791      1.0  0.43077  0.87871  0.33241  1.0000
  H   H792      1.0  0.32826  0.80096  0.35081  1.0000
  S   S98       1.0  0.24921  0.78608  0.34336  1.0000
  C   C433      1.0  0.32077  0.91134  0.43328  1.0000
  C   C434      1.0  0.33119  0.75805  0.45472  1.0000
  H   H793      1.0  0.35096  0.81047  0.29385  1.0000
  H   H794      1.0  0.28792  0.88842  0.36876  1.0000
  H   H795      1.0  0.31229  0.85409  0.31247  1.0000
  H   H796      1.0  0.25388  0.88966  0.44232  1.0000
  H   H797      1.0  0.30311  0.76198  0.38819  1.0000
  C   C435      1.0  0.47128  0.81759  0.46159  1.0000
  H   H798      1.0  0.45722  0.87413  0.36020  1.0000
  H   H799      1.0  0.42185  0.74204  0.27113  1.0000
  H   H800      1.0  0.38294  0.97484  0.34587  1.0000
  H   H801      1.0  0.46321  0.90994  0.25354  1.0000
  H   H802      1.0  0.34619  0.96981  0.21996  1.0000
  H   H803      1.0  0.27220  0.83073  0.31801  1.0000
  C   C436      1.0  0.41984  0.83891  0.36417  1.0000
  H   H804      1.0  0.33794  0.97384  0.14495  1.0000
  C   C437      1.0  0.36989  0.96791  0.26586  1.0000
  C   C438      1.0  0.40765  0.74853  0.31287  1.0000
  C   C439      1.0  0.31098  0.74160  0.42137  1.0000
  H   H805      1.0  0.47283  0.89930  0.42451  1.0000
  H   H806      1.0  0.24821  0.90252  0.39443  1.0000
  H   H807      1.0  0.25587  0.89904  0.35728  1.0000
  S   S99       1.0  0.43215  0.91811  0.35114  1.0000
  H   H808      1.0  0.46807  0.92255  0.38113  1.0000
  H   H809      1.0  0.25973  0.83515  0.42377  1.0000
  H   H810      1.0  0.22353  0.82664  0.40418  1.0000
  S   S100      1.0  0.36477  0.88551  0.37388  1.0000
  H   H811      1.0  0.29514  0.92620  0.34856  1.0000
  N   N26       1.0  0.25802  0.86450  0.40063  1.0000
  H   H812      1.0  0.30356  0.94510  0.20132  1.0000
  H   H813      1.0  0.34596  0.95872  0.18871  1.0000
  Fe  Fe46      1.0  0.34838  0.90942  0.36348  1.0000
  H   H814      1.0  0.20991  0.83349  0.35882  1.0000
  C   C440      1.0  0.33704  0.96690  0.20217  1.0000
  C   C441      1.0  0.37993  0.91956  0.43579  1.0000
  C   C442      1.0  0.45714  0.89464  0.41723  1.0000
  H   H815      1.0  0.41408  0.76541  0.30162  1.0000
  H   H816      1.0  0.23693  0.86430  0.36911  1.0000
  C   C443      1.0  0.45596  0.88341  0.29125  1.0000
  H   H817      1.0  0.42077  0.97830  0.24676  1.0000
  C   C444      1.0  0.26259  0.90272  0.37666  1.0000
  H   H818      1.0  0.42267  0.96955  0.35161  1.0000
  H   H819      1.0  0.32192  0.93638  0.25708  1.0000
  C   C445      1.0  0.43635  0.77804  0.41640  1.0000
  S   S101      1.0  0.39071  0.90051  0.30075  1.0000
  C   C446      1.0  0.44303  0.74373  0.39880  1.0000
  C   C447      1.0  0.31608  0.80748  0.34359  1.0000
  H   H820      1.0  0.38867  0.78010  0.30615  1.0000
  C   C448      1.0  0.43589  0.86871  0.31844  1.0000
  H   H821      1.0  0.38604  0.94401  0.39632  1.0000
  H   H822      1.0  0.21114  0.87871  0.46112  1.0000
  H   H823      1.0  0.22410  0.79691  0.43709  1.0000
  H   H824      1.0  0.40569  0.95094  0.41940  1.0000
  H   H825      1.0  0.45168  0.83959  0.39520  1.0000
  H   H826      1.0  0.42705  0.80590  0.27384  1.0000
  C   C449      1.0  0.22404  0.82711  0.35837  1.0000
  S   S102      1.0  0.25345  0.74902  0.41435  1.0000
  C   C450      1.0  0.43345  0.74189  0.42902  1.0000
  H   H827      1.0  0.32421  0.92414  0.22637  1.0000
  C   C451      1.0  0.44865  0.89969  0.27296  1.0000
  C   C452      1.0  0.42259  0.73895  0.29498  1.0000
  C   C453      1.0  0.38313  0.76827  0.36336  1.0000
  C   C454      1.0  0.35422  0.78050  0.31049  1.0000
  C   C455      1.0  0.45446  0.90777  0.39269  1.0000
  C   C456      1.0  0.28438  0.82428  0.32539  1.0000
  C   C457      1.0  0.38479  0.76476  0.39587  1.0000
  C   C458      1.0  0.36460  0.80348  0.29285  1.0000
  H   H828      1.0  0.32587  0.94095  0.44397  1.0000
  H   H829      1.0  0.44078  0.74604  0.29563  1.0000
  H   H830      1.0  0.34816  0.74834  0.37094  1.0000
  H   H831      1.0  0.31420  0.87977  0.42980  1.0000
  H   H832      1.0  0.22559  0.86879  0.41568  1.0000
  C   C459      1.0  0.39574  0.83714  0.35920  1.0000
  C   C460      1.0  0.24338  0.87281  0.45093  1.0000
  H   H833      1.0  0.40062  0.77234  0.34895  1.0000
  H   H834      1.0  0.31966  0.83880  0.38928  1.0000
  H   H835      1.0  0.37783  0.78207  0.35819  1.0000
  H   H836      1.0  0.23609  0.83327  0.33565  1.0000
  H   H837      1.0  0.22742  0.84575  0.43616  1.0000
  H   H838      1.0  0.34818  0.77954  0.33465  1.0000
  C   C461      1.0  0.29354  0.79438  0.34672  1.0000
  H   H839      1.0  0.31923  0.79343  0.40589  1.0000
  H   H840      1.0  0.36818  0.92529  0.44956  1.0000
  C   C462      1.0  0.23657  0.83277  0.38229  1.0000
  C   C463      1.0  0.30702  0.83747  0.32224  1.0000
  H   H841      1.0  0.39619  0.77940  0.39920  1.0000
  C   C464      1.0  0.43013  0.75906  0.43794  1.0000
  C   C465      1.0  0.23771  0.86248  0.42521  1.0000
  H   H842      1.0  0.37226  0.80507  0.26884  1.0000
  H   H843      1.0  0.47087  0.89218  0.29874  1.0000
  C   C466      1.0  0.43983  0.87534  0.43192  1.0000
  S   S103      1.0  0.44436  0.85857  0.46104  1.0000
  C   C467      1.0  0.37187  0.76933  0.30542  1.0000
  H   H844      1.0  0.44701  0.97912  0.38682  1.0000
  C   C468      1.0  0.27390  0.88695  0.38818  1.0000
  H   H845      1.0  0.47061  0.78909  0.45026  1.0000
  C   C469      1.0  0.46046  0.86156  0.35033  1.0000
  H   H846      1.0  0.44370  0.90963  0.28702  1.0000
  H   H847      1.0  0.27695  0.85712  0.43259  1.0000
  H   H848      1.0  0.26332  0.86143  0.35472  1.0000
  H   H849      1.0  0.37430  0.76812  0.28171  1.0000
  H   H850      1.0  0.40156  0.87753  0.39020  1.0000
  C   C470      1.0  0.46622  0.84695  0.37472  1.0000
  H   H851      1.0  0.39264  0.83087  0.33974  1.0000
  C   C471      1.0  0.29301  0.85248  0.39126  1.0000
  H   H852      1.0  0.28924  0.84922  0.37020  1.0000
  H   H853      1.0  0.39386  0.85272  0.35539  1.0000
  C   C472      1.0  0.22133  0.87107  0.47289  1.0000
  H   H854      1.0  0.34289  0.98015  0.32594  1.0000
  H   H855      1.0  0.40603  0.85454  0.43401  1.0000
  H   H856      1.0  0.42072  0.84598  0.38350  1.0000
  H   H857      1.0  0.34856  0.94978  0.30993  1.0000
  H   H858      1.0  0.28605  0.93001  0.38537  1.0000
  H   H859      1.0  0.36977  0.90826  0.42517  1.0000
  C   C473      1.0  0.24915  0.85672  0.37552  1.0000
  C   C474      1.0  0.43441  0.90171  0.38284  1.0000
  C   C475      1.0  0.44554  0.77976  0.38604  1.0000
  H   H860      1.0  0.37199  0.86966  0.45818  1.0000
  C   C476      1.0  0.30294  0.83654  0.40455  1.0000
  S   S104      1.0  0.35129  0.84475  0.32783  1.0000
  C   C477      1.0  0.43989  0.81377  0.28517  1.0000
  Fe  Fe47      1.0  0.35739  0.87761  0.33140  1.0000
  Fe  Fe48      1.0  0.39700  0.90965  0.34258  1.0000
  H   H861      1.0  0.40873  0.93344  0.39598  1.0000
  S   S105      1.0  0.37546  0.94669  0.25522  1.0000
  C   C478      1.0  0.39625  0.93817  0.41035  1.0000
  Fe  Fe49      1.0  0.37146  0.92269  0.29712  1.0000
  H   H862      1.0  0.24909  0.82451  0.38278  1.0000
  C   C479      1.0  0.42989  0.82603  0.30436  1.0000
  H   H863      1.0  0.41045  0.74639  0.33581  1.0000
  C   C480      1.0  0.44748  0.83726  0.32027  1.0000
  C   C481      1.0  0.37672  0.82312  0.38684  1.0000
  H   H864      1.0  0.21646  0.80983  0.36293  1.0000
  H   H865      1.0  0.30601  0.83850  0.42659  1.0000
  C   C482      1.0  0.35309  0.98237  0.30357  1.0000
  C   C483      1.0  0.28004  0.92504  0.36615  1.0000
  H   H866      1.0  0.30662  0.86813  0.38567  1.0000
  H   H867      1.0  0.29105  0.82046  0.40704  1.0000
  S   S106      1.0  0.32895  0.92277  0.39452  1.0000
  H   H868      1.0  0.46391  0.74029  0.46887  1.0000
  H   H869      1.0  0.29631  0.92006  0.24971  1.0000
  C   C484      1.0  0.33039  0.77728  0.44051  1.0000
  H   H870      1.0  0.41436  0.81457  0.32129  1.0000
  H   H871      1.0  0.37852  0.82977  0.40644  1.0000
  C   C485      1.0  0.32016  0.77865  0.41661  1.0000
  H   H872      1.0  0.28288  0.89244  0.40505  1.0000
  N   N27       1.0  0.44058  0.85139  0.33795  1.0000
  S   S107      1.0  0.33728  0.89903  0.32417  1.0000
  H   H873      1.0  0.45090  0.79456  0.36963  1.0000
  H   H874      1.0  0.40321  0.90260  0.44005  1.0000
  C   C486      1.0  0.41689  0.88254  0.39791  1.0000
  C   C487      1.0  0.44056  0.98059  0.34244  1.0000
  H   H875      1.0  0.35966  0.82215  0.38288  1.0000
  S   S108      1.0  0.38140  0.93429  0.33577  1.0000
  H   H876      1.0  0.46157  0.87448  0.27599  1.0000
  H   H877      1.0  0.43389  0.89199  0.26428  1.0000
  C   C488      1.0  0.31256  0.95070  0.21806  1.0000
  C   C489      1.0  0.44936  0.76270  0.37737  1.0000
  H   H878      1.0  0.27190  0.93591  0.35664  1.0000
  H   H879      1.0  0.45057  0.82459  0.33519  1.0000
  H   H880      1.0  0.36764  0.76037  0.41140  1.0000
  H   H881      1.0  0.45314  0.95979  0.36928  1.0000
  H   H882      1.0  0.44776  0.97658  0.32186  1.0000
  H   H883      1.0  0.37724  0.80708  0.39209  1.0000
  C   C490      1.0  0.35641  0.96516  0.29455  1.0000
  H   H884      1.0  0.28838  0.77775  0.35564  1.0000
  C   C491      1.0  0.31365  0.88971  0.44486  1.0000
  H   H885      1.0  0.43231  0.96526  0.27375  1.0000
  H   H886      1.0  0.46425  0.84592  0.30335  1.0000
  H   H887      1.0  0.42488  0.83721  0.28937  1.0000
  C   C492      1.0  0.41951  0.86943  0.42263  1.0000
  C   C493      1.0  0.32050  0.92422  0.45288  1.0000
  C   C494      1.0  0.31389  0.93168  0.23902  1.0000
  H   H888      1.0  0.44435  0.80167  0.29939  1.0000
  H   H889      1.0  0.21317  0.76044  0.43359  1.0000
  C   C495      1.0  0.32918  0.98308  0.15628  1.0000
  H   H890      1.0  0.35521  0.97082  0.39187  1.0000
  C   C496      1.0  0.39330  0.90942  0.45479  1.0000
  S   S109      1.0  0.34047  0.79950  0.45348  1.0000
  H   H891      1.0  0.25284  0.86502  0.46393  1.0000
  H   H892      1.0  0.47657  0.86934  0.33200  1.0000
  Fe  Fe50      1.0  0.24358  0.75378  0.37067  1.0000
  H   H893      1.0  0.47048  0.83438  0.36625  1.0000
  H   H894      1.0  0.41206  0.97907  0.30877  1.0000
  C   C497      1.0  0.21790  0.78439  0.45739  1.0000
  H   H895      1.0  0.33899  0.77309  0.30243  1.0000
  C   C498      1.0  0.36527  0.74884  0.35862  1.0000
  H   H896      1.0  0.32208  0.84405  0.47490  1.0000
  C   C499      1.0  0.45421  0.97636  0.36513  1.0000
  H   H897      1.0  0.40656  0.92232  0.45931  1.0000
  C   C500      1.0  0.28061  0.79937  0.47104  1.0000
  C   C501      1.0  0.32138  0.74012  0.44518  1.0000
  H   H898      1.0  0.45095  0.98224  0.23824  1.0000
  C   C502      1.0  0.21193  0.76368  0.45541  1.0000
  H   H899      1.0  0.29057  0.79601  0.45171  1.0000
  H   H900      1.0  0.39198  0.75224  0.40149  1.0000
  C   C503      1.0  0.43574  0.97992  0.25650  1.0000
  H   H901      1.0  0.39756  0.98026  0.37505  1.0000
  N   N28       1.0  0.36546  0.74803  0.32654  1.0000
  C   C504      1.0  0.38843  0.98604  0.35937  1.0000
  H   H902      1.0  0.26907  0.80711  0.46297  1.0000
  H   H903      1.0  0.47261  0.98654  0.35632  1.0000
  H   H904      1.0  0.35093  0.88159  0.46293  1.0000
  H   H905      1.0  0.32867  0.74159  0.33548  1.0000
  C   C505      1.0  0.38182  0.73768  0.31481  1.0000
  H   H906      1.0  0.34551  0.83455  0.47436  1.0000
  C   C506      1.0  0.36231  0.87569  0.47462  1.0000
  H   H907      1.0  0.42947  0.90141  0.47312  1.0000
  C   C507      1.0  0.30552  0.88096  0.47607  1.0000
  S   S110      1.0  0.41891  0.75651  0.47614  1.0000
  H   H908      1.0  0.33871  0.75692  0.47354  1.0000
  Fe  Fe51      1.0  0.36888  0.80019  0.47580  1.0000
  C   C508      1.0  0.36661  0.98689  0.37877  1.0000
  H   H909      1.0  0.12032  0.93098  0.57756  1.0000
  C   C509      1.0  0.16876  0.87084  0.86812  1.0000
  H   H910      1.0  0.15965  0.94959  0.85740  1.0000
  H   H911      1.0  0.15505  0.84565  0.65948  1.0000
  H   H912      1.0  0.37181  0.94252  0.53857  1.0000
  N   N29       1.0  0.15348  0.88279  0.87763  1.0000
  H   H913      1.0  0.17455  0.93686  0.80576  1.0000
  C   C510      1.0  0.16195  0.96437  0.65100  1.0000
  C   C511      1.0  0.25114  0.74457  0.55120  1.0000
  C   C512      1.0  0.18214  0.89782  0.90835  1.0000
  H   H914      1.0  0.07441  0.78403  0.78920  1.0000
  H   H915      1.0  0.38916  0.91671  0.52813  1.0000
  H   H916      1.0  0.33036  0.95512  0.64688  1.0000
  H   H917      1.0  0.05022  0.96528  0.79910  1.0000
  H   H918      1.0  0.29812  0.88447  0.60046  1.0000
  H   H919      1.0  0.19536  0.86265  0.81957  1.0000
  H   H920      1.0  0.35136  0.90458  0.49484  1.0000
  C   C513      1.0  0.31275  0.94902  0.66208  1.0000
  H   H921      1.0  0.14274  0.81826  0.66855  1.0000
  H   H922      1.0  0.17011  0.81814  0.75961  1.0000
  Fe  Fe52      1.0  0.38123  0.79655  0.53484  1.0000
  S   S111      1.0  0.36567  0.78963  0.58428  1.0000
  H   H923      1.0  0.12892  0.92536  0.75410  1.0000
  H   H924      1.0  0.33250  0.86158  0.51419  1.0000
  H   H925      1.0  0.38950  0.93371  0.49354  1.0000
  C   C514      1.0  0.33280  0.87909  0.62067  1.0000
  H   H926      1.0  0.25956  0.91328  0.60528  1.0000
  H   H927      1.0  0.10091  0.92510  0.75122  1.0000
  S   S112      1.0  0.08798  0.91414  0.81881  1.0000
  S   S113      1.0  0.04187  0.89327  0.79565  1.0000
  Fe  Fe53      1.0  0.06344  0.88200  0.82281  1.0000
  S   S114      1.0  0.07234  0.85348  0.81877  1.0000
  Fe  Fe54      1.0  0.06371  0.92528  0.79614  1.0000
  C   C515      1.0  0.25691  0.86832  0.64606  1.0000
  Fe  Fe55      1.0  0.27040  0.85254  0.54854  1.0000
  S   S115      1.0  0.25581  0.83548  0.59714  1.0000
  S   S116      1.0  0.29928  0.88356  0.53464  1.0000
  Fe  Fe56      1.0  0.23530  0.82090  0.52880  1.0000
  S   S117      1.0  0.21741  0.80102  0.57568  1.0000
  Fe  Fe57      1.0  0.22154  0.83152  0.58746  1.0000
  S   S118      1.0  0.19419  0.83607  0.62070  1.0000
  Fe  Fe58      1.0  0.25320  0.80666  0.58116  1.0000
  S   S119      1.0  0.26097  0.78071  0.60838  1.0000
  S   S120      1.0  0.23632  0.85106  0.54005  1.0000
  S   S121      1.0  0.27094  0.82408  0.53304  1.0000
  Fe  Fe59      1.0  0.19697  0.90387  0.73308  1.0000
  S   S122      1.0  0.18417  0.92139  0.69944  1.0000
  S   S123      1.0  0.17637  0.87042  0.75787  1.0000
  H   H928      1.0  0.12477  0.86468  0.86259  1.0000
  S   S124      1.0  0.23253  0.96116  0.68680  1.0000
  Fe  Fe60      1.0  0.19760  0.94832  0.71890  1.0000
  H   H929      1.0  0.11687  0.84771  0.64972  1.0000
  Fe  Fe61      1.0  0.22011  0.93221  0.67078  1.0000
  S   S125      1.0  0.22451  0.93089  0.62268  1.0000
  S   S126      1.0  0.20725  0.92976  0.75545  1.0000
  S   S127      1.0  0.23233  0.91276  0.70308  1.0000
  C   C516      1.0  0.21396  0.90462  0.62170  1.0000
  C   C517      1.0  0.20546  0.88885  0.64850  1.0000
  C   C518      1.0  0.19953  0.86790  0.64780  1.0000
  C   C519      1.0  0.20159  0.86251  0.62046  1.0000
  C   C520      1.0  0.20962  0.87820  0.59355  1.0000
  C   C521      1.0  0.21564  0.89928  0.59418  1.0000
  H   H930      1.0  0.20386  0.89269  0.66984  1.0000
  H   H931      1.0  0.19412  0.85581  0.66841  1.0000
  H   H932      1.0  0.21106  0.87411  0.57230  1.0000
  H   H933      1.0  0.22192  0.91140  0.57338  1.0000
  C   C522      1.0  0.10105  0.85850  0.80074  1.0000
  C   C523      1.0  0.10991  0.84236  0.80483  1.0000
  C   C524      1.0  0.13298  0.84613  0.79133  1.0000
  C   C525      1.0  0.14727  0.86601  0.77340  1.0000
  C   C526      1.0  0.13829  0.88205  0.76876  1.0000
  C   C527      1.0  0.11516  0.87828  0.78254  1.0000
  H   H934      1.0  0.09898  0.82702  0.81887  1.0000
  S   S128      1.0  0.04136  0.92603  0.83870  1.0000
  H   H935      1.0  0.14920  0.89744  0.75504  1.0000
  H   H936      1.0  0.10815  0.89061  0.77923  1.0000
  S   S129      1.0  0.24402  0.98411  0.88522  1.0000
  H   H937      1.0  0.29692  0.94136  0.57183  1.0000
  H   H938      1.0  0.14357  0.92927  0.81696  1.0000
  C   C528      1.0  0.11961  0.93410  0.74250  1.0000
  H   H939      1.0  0.16386  0.84884  0.70656  1.0000
  C   C529      1.0  0.17793  0.81919  0.73585  1.0000
  C   C530      1.0  0.14587  0.94555  0.87744  1.0000
  H   H940      1.0  0.15712  0.92469  0.78313  1.0000
  N   N30       1.0  0.28656  0.90586  0.62169  1.0000
  C   C531      1.0  0.20452  0.74733  0.48143  1.0000
  H   H941      1.0  0.09502  0.81200  0.70816  1.0000
  H   H942      1.0  0.25470  0.89700  0.65554  1.0000
  C   C532      1.0  0.11016  0.93452  0.92913  1.0000
  C   C533      1.0  0.10483  0.93188  0.90204  1.0000
  S   S130      1.0  0.04066  0.87947  0.86714  1.0000
  C   C534      1.0  0.36193  0.92900  0.53118  1.0000
  H   H943      1.0  0.14122  0.90447  0.67681  1.0000
  N   N31       1.0  0.37891  0.89295  0.48339  1.0000
  H   H944      1.0  0.28239  0.92173  0.67650  1.0000
  H   H945      1.0  0.11880  0.93500  0.85542  1.0000
  H   H946      1.0  0.29943  0.86422  0.48504  1.0000
  H   H947      1.0  0.31362  0.93612  0.61191  1.0000
  C   C535      1.0  0.11085  0.88059  0.89165  1.0000
  H   H948      1.0  0.29692  0.77052  0.49052  1.0000
  C   C536      1.0  0.33704  0.78879  0.59179  1.0000
  C   C537      1.0  0.32943  0.80018  0.57062  1.0000
  C   C538      1.0  0.30623  0.79841  0.57616  1.0000
  C   C539      1.0  0.29044  0.78485  0.60256  1.0000
  C   C540      1.0  0.29805  0.77361  0.62388  1.0000
  C   C541      1.0  0.32138  0.77584  0.61874  1.0000
  H   H949      1.0  0.34134  0.81033  0.54996  1.0000
  H   H950      1.0  0.30047  0.80706  0.55964  1.0000
  H   H951      1.0  0.28588  0.76309  0.64433  1.0000
  H   H952      1.0  0.06582  0.78871  0.75474  1.0000
  Fe  Fe62      1.0  0.02068  0.89314  0.83959  1.0000
  H   H953      1.0  0.17234  0.90873  0.94785  1.0000
  H   H954      1.0  0.32715  0.76700  0.63517  1.0000
  C   C542      1.0  0.16115  0.85642  0.84755  1.0000
  C   C543      1.0  0.30612  0.89395  0.49566  1.0000
  C   C544      1.0  0.10128  0.80718  0.75212  1.0000
  C   C545      1.0  0.37848  0.92080  0.51339  1.0000
  N   N32       1.0  0.13699  0.96268  0.65644  1.0000
  C   C546      1.0  0.31379  0.91560  0.48400  1.0000
  C   C547      1.0  0.20863  0.77253  0.51157  1.0000
  H   H955      1.0  0.31417  0.94863  0.68546  1.0000
  H   H956      1.0  0.14605  0.84232  0.86061  1.0000
  H   H957      1.0  0.34199  0.87446  0.63728  1.0000
  H   H958      1.0  0.19669  0.73907  0.52979  1.0000
  H   H959      1.0  0.08238  0.85155  0.91558  1.0000
  N   N33       1.0  0.12998  0.83217  0.70251  1.0000
  H   H960      1.0  0.17410  0.83834  0.82043  1.0000
  H   H961      1.0  0.14637  0.80070  0.72836  1.0000
  H   H962      1.0  0.34576  0.88930  0.59966  1.0000
  H   H963      1.0  0.28817  0.75083  0.57619  1.0000
  H   H964      1.0  0.18974  0.91376  0.89299  1.0000
  H   H965      1.0  0.39624  0.87045  0.48985  1.0000
  C   C548      1.0  0.97983  0.86856  0.79853  1.0000
  C   C549      1.0  0.13089  0.94719  0.61080  1.0000
  H   H966      1.0  0.23930  0.95585  0.78020  1.0000
  H   H967      1.0  0.14766  0.89752  0.91400  1.0000
  H   H968      1.0  0.14889  0.84949  0.60823  1.0000
  H   H969      1.0  0.19193  0.83464  0.72596  1.0000
  C   C550      1.0  0.12335  0.94526  0.64486  1.0000
  H   H970      1.0  0.35032  0.91659  0.55130  1.0000
  C   C551      1.0  0.13323  0.83518  0.61746  1.0000
  H   H971      1.0  0.12379  0.85507  0.90053  1.0000
  H   H972      1.0  0.26136  0.93408  0.55458  1.0000
  H   H973      1.0  0.32207  0.86469  0.61585  1.0000
  Fe  Fe63      1.0  0.06389  0.91246  0.86153  1.0000
  H   H974      1.0  0.25140  0.85088  0.69217  1.0000
  H   H975      1.0  0.26753  0.94481  0.83031  1.0000
  C   C552      1.0  0.20249  0.75170  0.50960  1.0000
  H   H976      1.0  0.46654  0.74019  0.58069  1.0000
  C   C553      1.0  0.13855  0.83251  0.67012  1.0000
  H   H977      1.0  0.35552  0.88904  0.52584  1.0000
  H   H978      1.0  0.11335  0.88588  0.67956  1.0000
  C   C554      1.0  0.15976  0.81637  0.71793  1.0000
  H   H979      1.0  0.11345  0.89437  0.87331  1.0000
  H   H980      1.0  0.13860  0.89240  0.82532  1.0000
  C   C555      1.0  0.29109  0.97010  0.84231  1.0000
  C   C556      1.0  0.15115  0.94706  0.90486  1.0000
  H   H981      1.0  0.07409  0.87378  0.90419  1.0000
  H   H982      1.0  0.00534  0.83254  0.88232  1.0000
  S   S131      1.0  0.07460  0.95102  0.75358  1.0000
  H   H983      1.0  0.15126  0.91310  0.86468  1.0000
  H   H984      1.0  0.12348  0.94935  0.74836  1.0000
  C   C557      1.0  0.12278  0.93719  0.87629  1.0000
  C   C558      1.0  0.26858  0.89067  0.64907  1.0000
  C   C559      1.0  0.06544  0.97814  0.78563  1.0000
  H   H985      1.0  0.28413  0.93653  0.85422  1.0000
  C   C560      1.0  0.12654  0.95735  0.68995  1.0000
  H   H986      1.0  0.10549  0.84795  0.69839  1.0000
  H   H987      1.0  0.00034  0.84400  0.84767  1.0000
  H   H988      1.0  0.18587  0.84070  0.85246  1.0000
  H   H989      1.0  0.28671  0.97607  0.88620  1.0000
  C   C561      1.0  0.30062  0.74989  0.55699  1.0000
  H   H990      1.0  0.30553  0.87975  0.65461  1.0000
  C   C562      1.0  0.27474  0.97124  0.75500  1.0000
  H   H991      1.0  0.16327  0.94862  0.65249  1.0000
  S   S132      1.0  0.17482  0.96577  0.73286  1.0000
  H   H992      1.0  0.17017  0.86032  0.88818  1.0000
  H   H993      1.0  0.11468  0.80497  0.76336  1.0000
  H   H994      1.0  0.28898  0.77839  0.52354  1.0000
  C   C563      1.0  0.11436  0.92948  0.60197  1.0000
  H   H995      1.0  0.20740  0.77590  0.53326  1.0000
  H   H996      1.0  0.26770  0.89417  0.59028  1.0000
  H   H997      1.0  0.46305  0.74938  0.54385  1.0000
  H   H998      1.0  0.14444  0.93586  0.70330  1.0000
  H   H999      1.0  0.18661  0.88189  0.85669  1.0000
  C   C564      1.0  0.36503  0.90122  0.50440  1.0000
  C   C565      1.0  0.27479  0.94747  0.84973  1.0000
  C   C566      1.0  0.15598  0.90318  0.82386  1.0000
  H   H1000     1.0  0.16836  0.81683  0.69478  1.0000
  H   H1001     1.0  0.28612  0.93996  0.52399  1.0000
  H   H1002     1.0  0.31875  0.90975  0.59167  1.0000
  H   H1003     1.0  0.11428  0.79846  0.71214  1.0000
  H   H1004     1.0  0.13846  0.97723  0.83696  1.0000
  H   H1005     1.0  0.14403  0.83488  0.74084  1.0000
  H   H1006     1.0  0.08318  0.86110  0.87653  1.0000
  C   C567      1.0  0.16029  0.90355  0.85518  1.0000
  C   C568      1.0  0.99555  0.82921  0.86531  1.0000
  H   H1007     1.0  0.11376  0.91404  0.61456  1.0000
  C   C569      1.0  0.08019  0.78713  0.76439  1.0000
  C   C570      1.0  0.12188  0.83376  0.64993  1.0000
  H   H1008     1.0  0.19317  0.88881  0.90193  1.0000
  H   H1009     1.0  0.37029  0.95739  0.83213  1.0000
  Fe  Fe64      1.0  0.40486  0.78142  0.48554  1.0000
  H   H1010     1.0  0.20956  0.97810  0.63532  1.0000
  H   H1011     1.0  0.34953  0.98375  0.90207  1.0000
  C   C571      1.0  0.13318  0.94157  0.93069  1.0000
  H   H1012     1.0  0.03621  0.96578  0.88671  1.0000
  S   S133      1.0  0.22552  0.81517  0.48666  1.0000
  C   C572      1.0  0.18326  0.89992  0.94000  1.0000
  C   C573      1.0  0.29953  0.92702  0.66031  1.0000
  C   C574      1.0  0.31769  0.89056  0.63348  1.0000
  H   H1013     1.0  0.15623  0.86445  0.82876  1.0000
  C   C575      1.0  0.08615  0.86574  0.89731  1.0000
  C   C576      1.0  0.14940  0.83391  0.71750  1.0000
  H   H1014     1.0  0.10834  0.95674  0.69475  1.0000
  H   H1015     1.0  0.11226  0.88572  0.91247  1.0000
  H   H1016     1.0  0.14931  0.87225  0.92552  1.0000
  H   H1017     1.0  0.14543  0.87337  0.66326  1.0000
  S   S134      1.0  0.27495  0.95276  0.73408  1.0000
  H   H1018     1.0  0.28539  0.93634  0.62460  1.0000
  H   H1019     1.0  0.09625  0.81997  0.75878  1.0000
  S   S135      1.0  0.07560  0.92227  0.90140  1.0000
  H   H1020     1.0  0.30347  0.95977  0.65599  1.0000
  H   H1021     1.0  0.11487  0.92293  0.70397  1.0000
  H   H1022     1.0  0.15451  0.87650  0.69683  1.0000
  H   H1023     1.0  0.23941  0.98284  0.80824  1.0000
  H   H1024     1.0  0.22897  0.86098  0.68615  1.0000
  C   C577      1.0  0.27504  0.92836  0.54523  1.0000
  H   H1025     1.0  0.13985  0.83370  0.79514  1.0000
  H   H1026     1.0  0.30376  0.92151  0.55644  1.0000
  C   C578      1.0  0.12836  0.88890  0.68946  1.0000
  H   H1027     1.0  0.17890  0.91266  0.85112  1.0000
  H   H1028     1.0  0.23789  0.74958  0.54251  1.0000
  C   C579      1.0  0.18036  0.84910  0.83433  1.0000
  C   C580      1.0  0.15798  0.92484  0.80651  1.0000
  H   H1029     1.0  0.31434  0.92571  0.49899  1.0000
  H   H1030     1.0  0.26707  0.91323  0.54002  1.0000
  H   H1031     1.0  0.12891  0.96197  0.79845  1.0000
  H   H1032     1.0  0.10474  0.94335  0.65087  1.0000
  H   H1033     1.0  0.11772  0.85084  0.72904  1.0000
  C   C581      1.0  0.28192  0.76871  0.50870  1.0000
  H   H1034     1.0  0.30188  0.73974  0.51626  1.0000
  H   H1035     1.0  0.35138  0.93419  0.51704  1.0000
  H   H1036     1.0  0.31939  0.96759  0.91699  1.0000
  Fe  Fe65      1.0  0.24140  0.94062  0.72208  1.0000
  C   C582      1.0  0.24110  0.85390  0.67617  1.0000
  C   C583      1.0  0.12191  0.85022  0.70515  1.0000
  H   H1037     1.0  0.13125  0.96210  0.59701  1.0000
  C   C584      1.0  0.12694  0.93659  0.70865  1.0000
  H   H1038     1.0  0.42938  0.87255  0.51466  1.0000
  H   H1039     1.0  0.12270  0.88911  0.71326  1.0000
  H   H1040     1.0  0.00064  0.81761  0.85500  1.0000
  C   C585      1.0  0.33297  0.83918  0.48868  1.0000
  H   H1041     1.0  0.44795  0.89812  0.51430  1.0000
  H   H1042     1.0  0.99708  0.86866  0.79721  1.0000
  H   H1043     1.0  0.30867  0.91663  0.66800  1.0000
  H   H1044     1.0  0.09641  0.93035  0.94924  1.0000
  C   C586      1.0  0.31523  0.73832  0.56983  1.0000
  H   H1045     1.0  0.13823  0.82131  0.61616  1.0000
  S   S136      1.0  0.17923  0.95023  0.90853  1.0000
  C   C587      1.0  0.15687  0.88708  0.90730  1.0000
  C   C588      1.0  0.12838  0.86982  0.88279  1.0000
  H   H1046     1.0  0.09675  0.93019  0.60660  1.0000
  H   H1047     1.0  0.12438  0.93014  0.65580  1.0000
  S   S137      1.0  0.36792  0.77279  0.51003  1.0000
  C   C589      1.0  0.30513  0.89765  0.61048  1.0000
  C   C590      1.0  0.11002  0.81201  0.71745  1.0000
  C   C591      1.0  0.28949  0.92586  0.56753  1.0000
  H   H1048     1.0  0.21069  0.85439  0.48378  1.0000
  H   H1049     1.0  0.33245  0.96104  0.83795  1.0000
  C   C592      1.0  0.27462  0.90894  0.59698  1.0000
  H   H1050     1.0  0.32918  0.90439  0.63855  1.0000
  H   H1051     1.0  0.42048  0.88586  0.54170  1.0000
  H   H1052     1.0  0.12104  0.83587  0.60330  1.0000
  H   H1053     1.0  0.31237  0.76590  0.54427  1.0000
  H   H1054     1.0  0.13585  0.96979  0.69966  1.0000
  H   H1055     1.0  0.16910  0.89851  0.81056  1.0000
  C   C593      1.0  0.29662  0.92690  0.62813  1.0000
  H   H1056     1.0  0.24631  0.86850  0.62970  1.0000
  H   H1057     1.0  0.18555  0.80679  0.73536  1.0000
  C   C594      1.0  0.39384  0.88358  0.49895  1.0000
  H   H1058     1.0  0.10606  0.81961  0.65782  1.0000
  H   H1059     1.0  0.26984  0.86130  0.63872  1.0000
  H   H1060     1.0  0.23097  0.83874  0.67272  1.0000
  C   C595      1.0  0.13931  0.87229  0.68743  1.0000
  H   H1061     1.0  0.27577  0.88879  0.66884  1.0000
  H   H1062     1.0  0.25537  0.78293  0.51272  1.0000
  H   H1063     1.0  0.05268  0.95355  0.90611  1.0000
  H   H1064     1.0  0.41921  0.91335  0.50079  1.0000
  C   C596      1.0  0.34566  0.85696  0.50086  1.0000
  C   C597      1.0  0.42972  0.88801  0.51811  1.0000
  H   H1065     1.0  0.38285  0.98297  0.83771  1.0000
  H   H1066     1.0  0.30439  0.96131  0.88020  1.0000
  C   C598      1.0  0.21655  0.78891  0.48537  1.0000
  H   H1067     1.0  0.35481  0.85088  0.51628  1.0000
  S   S138      1.0  0.98167  0.88169  0.85056  1.0000
  H   H1068     1.0  0.27110  0.74228  0.48012  1.0000
  H   H1069     1.0  0.25499  0.76899  0.48400  1.0000
  C   C599      1.0  0.26634  0.77913  0.49485  1.0000
  H   H1070     1.0  0.32196  0.82543  0.50748  1.0000
  H   H1071     1.0  0.25764  0.75585  0.56436  1.0000
  H   H1072     1.0  0.13628  0.98490  0.88157  1.0000
  S   S139      1.0  0.41829  0.80231  0.51426  1.0000
  H   H1073     1.0  0.38512  0.87641  0.52327  1.0000
  H   H1074     1.0  0.46896  0.81062  0.48578  1.0000
  H   H1075     1.0  0.26033  0.94417  0.86962  1.0000
  H   H1076     1.0  0.08442  0.77361  0.75906  1.0000
  H   H1077     1.0  0.10744  0.96510  0.84976  1.0000
  H   H1078     1.0  0.28100  0.98016  0.83695  1.0000
  H   H1079     1.0  0.17737  0.88427  0.95601  1.0000
  C   C600      1.0  0.05105  0.96879  0.89693  1.0000
  C   C601      1.0  0.30095  0.97514  0.86915  1.0000
  H   H1080     1.0  0.16936  0.96969  0.66918  1.0000
  H   H1081     1.0  0.29264  0.81013  0.48040  1.0000
  N   N34       1.0  0.27028  0.74599  0.52549  1.0000
  C   C602      1.0  0.41866  0.89819  0.49625  1.0000
  C   C603      1.0  0.28822  0.73844  0.53608  1.0000
  C   C604      1.0  0.25476  0.96922  0.77602  1.0000
  H   H1082     1.0  0.22579  0.87895  0.49065  1.0000
  H   H1083     1.0  0.33776  0.97798  0.95669  1.0000
  H   H1084     1.0  0.11530  0.98012  0.64502  1.0000
  H   H1085     1.0  0.20127  0.90861  0.93987  1.0000
  H   H1086     1.0  0.09628  0.97170  0.89361  1.0000
  S   S140      1.0  0.37990  0.82365  0.50200  1.0000
  H   H1087     1.0  0.14815  0.94586  0.60503  1.0000
  C   C605      1.0  0.12087  0.97372  0.80236  1.0000
  H   H1088     1.0  0.13703  0.94220  0.95215  1.0000
  C   C606      1.0  0.34541  0.97161  0.84651  1.0000
  C   C607      1.0  0.07294  0.98315  0.87304  1.0000
  H   H1089     1.0  0.32541  0.74752  0.58283  1.0000
  H   H1090     1.0  0.19962  0.96017  0.61308  1.0000
  C   C608      1.0  0.13395  0.98268  0.64234  1.0000
  H   H1091     1.0  0.30494  0.97308  0.82189  1.0000
  H   H1092     1.0  0.34295  0.96400  0.87037  1.0000
  C   C609      1.0  0.20192  0.97610  0.61603  1.0000
  C   C610      1.0  0.36915  0.97323  0.82918  1.0000
  H   H1093     1.0  0.10269  0.96740  0.80159  1.0000
  C   C611      1.0  0.17886  0.97944  0.62116  1.0000
  C   C612      1.0  0.12188  0.97783  0.83297  1.0000
  H   H1094     1.0  0.17211  0.97742  0.60134  1.0000
  C   C613      1.0  0.07946  0.97557  0.76087  1.0000
  C   C614      1.0  0.33210  0.98360  0.91199  1.0000
  H   H1095     1.0  0.04756  0.97612  0.91555  1.0000
  Fe  Fe66      1.0  0.20703  0.98207  0.89638  1.0000
  H   H1096     1.0  0.37212  0.98018  0.80481  1.0000
  H   H1097     1.0  0.07479  0.97541  0.85449  1.0000
  C   C615      1.0  0.25486  0.98445  0.79202  1.0000
  C   C616      1.0  0.09434  0.98708  0.88606  1.0000
  Fe  Fe67      1.0  0.41567  0.82749  0.47895  1.0000
  H   H1098     1.0  0.68821  0.19735  0.21979  1.0000
  C   C617      1.0  0.83833  0.19647  0.16463  1.0000
  H   H1099     1.0  0.56096  0.23476  0.16169  1.0000
  H   H1100     1.0  0.82904  0.18018  0.98582  1.0000
  N   N35       1.0  0.48468  0.07227  0.08825  1.0000
  Fe  Fe68      1.0  0.59296  0.16508  0.06327  1.0000
  S   S141      1.0  0.57937  0.15852  0.11289  1.0000
  S   S142      1.0  0.63080  0.17326  0.04292  1.0000
  Fe  Fe69      1.0  0.54664  0.16355  0.05104  1.0000
  H   H1101     1.0  0.49438  0.18756  0.04174  1.0000
  Fe  Fe70      1.0  0.56187  0.18127  0.10194  1.0000
  S   S143      1.0  0.56667  0.20545  0.12841  1.0000
  Fe  Fe71      1.0  0.54858  0.13507  0.10660  1.0000
  H   H1102     1.0  0.49954  0.10603  0.06971  1.0000
  S   S144      1.0  0.57763  0.18974  0.05239  1.0000
  S   S145      1.0  0.56343  0.13945  0.05738  1.0000
  C   C618      1.0  0.49388  0.19029  0.06429  1.0000
  S   S146      1.0  0.52619  0.16869  0.01728  1.0000
  Fe  Fe72      1.0  0.71911  0.20377  0.13077  1.0000
  H   H1103     1.0  0.85387  0.02619  0.98620  1.0000
  S   S147      1.0  0.68735  0.17513  0.14139  1.0000
  H   H1104     1.0  0.76725  0.18103  0.07165  1.0000
  H   H1105     1.0  0.91524  0.22448  0.16976  1.0000
  S   S148      1.0  0.75498  0.20437  0.11460  1.0000
  C   C619      1.0  0.64696  0.17247  0.06972  1.0000
  C   C620      1.0  0.67007  0.18556  0.06213  1.0000
  C   C621      1.0  0.68277  0.18626  0.08384  1.0000
  C   C622      1.0  0.67252  0.17348  0.11308  1.0000
  C   C623      1.0  0.64972  0.15973  0.12031  1.0000
  C   C624      1.0  0.63695  0.15926  0.09872  1.0000
  H   H1106     1.0  0.67796  0.19543  0.03956  1.0000
  H   H1107     1.0  0.70047  0.19664  0.07791  1.0000
  H   H1108     1.0  0.64181  0.14956  0.14274  1.0000
  H   H1109     1.0  0.61951  0.14840  0.10438  1.0000
  C   C625      1.0  0.81657  0.18829  0.99040  1.0000
  Fe  Fe73      1.0  0.76453  0.22386  0.14670  1.0000
  H   H1110     1.0  0.86179  0.18262  0.06742  1.0000
  H   H1111     1.0  0.72685  0.17545  0.07238  1.0000
  C   C626      1.0  0.74021  0.18253  0.05066  1.0000
  S   S149      1.0  0.53079  0.10409  0.14031  1.0000
  C   C627      1.0  0.83056  0.21188  0.98405  1.0000
  C   C628      1.0  0.79228  0.15467  0.02546  1.0000
  C   C629      1.0  0.48697  0.18665  0.26523  1.0000
  C   C630      1.0  0.92588  0.23496  0.07221  1.0000
  H   H1112     1.0  0.56592  0.09178  0.05704  1.0000
  H   H1113     1.0  0.79995  0.17486  0.06816  1.0000
  H   H1114     1.0  0.82072  0.19202  0.16113  1.0000
  H   H1115     1.0  0.84402  0.18282  0.16558  1.0000
  H   H1116     1.0  0.51455  0.20930  0.08630  1.0000
  H   H1117     1.0  0.67619  0.20838  0.17366  1.0000
  C   C631      1.0  0.56482  0.23600  0.04784  1.0000
  C   C632      1.0  0.48780  0.09438  0.09065  1.0000
  N   N36       1.0  0.62859  0.19945  0.17153  1.0000
  C   C633      1.0  0.60732  0.18343  0.16836  1.0000
  C   C634      1.0  0.63967  0.18779  0.19097  1.0000
  H   H1118     1.0  0.79996  0.23199  0.08162  1.0000
  H   H1119     1.0  0.88093  0.12262  0.99018  1.0000
  C   C635      1.0  0.58846  0.17073  0.19794  1.0000
  S   S150      1.0  0.72339  0.23311  0.09751  1.0000
  H   H1120     1.0  0.48490  0.13409  0.08242  1.0000
  C   C636      1.0  0.56674  0.15695  0.19162  1.0000
  H   H1121     1.0  0.61228  0.17204  0.15720  1.0000
  H   H1122     1.0  0.59879  0.19078  0.15330  1.0000
  H   H1123     1.0  0.64256  0.17491  0.18156  1.0000
  H   H1124     1.0  0.62812  0.18022  0.21394  1.0000
  H   H1125     1.0  0.61417  0.20785  0.21101  1.0000
  C   C637      1.0  0.92601  0.22322  0.04763  1.0000
  H   H1126     1.0  0.49415  0.17452  0.26041  1.0000
  C   C638      1.0  0.87889  0.22349  0.14462  1.0000
  H   H1127     1.0  0.59455  0.16017  0.21237  1.0000
  H   H1128     1.0  0.58338  0.18122  0.21071  1.0000
  H   H1129     1.0  0.92629  0.21820  0.13587  1.0000
  H   H1130     1.0  0.88890  0.22632  0.08068  1.0000
  C   C639      1.0  0.49288  0.08960  0.18776  1.0000
  H   H1131     1.0  0.57056  0.14534  0.18010  1.0000
  H   H1132     1.0  0.55347  0.14830  0.21308  1.0000
  H   H1133     1.0  0.55951  0.16661  0.17747  1.0000
  C   C640      1.0  0.54982  0.08535  0.05011  1.0000
  H   H1134     1.0  0.49886  0.14453  0.19976  1.0000
  C   C641      1.0  0.50617  0.07296  0.06697  1.0000
  C   C642      1.0  0.66297  0.20107  0.19542  1.0000
  C   C643      1.0  0.51715  0.20522  0.06484  1.0000
  C   C644      1.0  0.51137  0.10707  0.16961  1.0000
  H   H1135     1.0  0.83493  0.18138  0.09059  1.0000
  H   H1136     1.0  0.85229  0.20452  0.06056  1.0000
  H   H1137     1.0  0.82942  0.16070  0.05210  1.0000
  C   C645      1.0  0.52098  0.20070  0.13824  1.0000
  C   C646      1.0  0.76092  0.17589  0.05278  1.0000
  C   C647      1.0  0.50900  0.12871  0.01070  1.0000
  C   C648      1.0  0.50293  0.20835  0.14438  1.0000
  H   H1138     1.0  0.93879  0.23239  0.08418  1.0000
  H   H1139     1.0  0.59153  0.21555  0.17287  1.0000
  H   H1140     1.0  0.48723  0.20167  0.13809  1.0000
  H   H1141     1.0  0.51886  0.18778  0.12803  1.0000
  H   H1142     1.0  0.53259  0.22097  0.01807  1.0000
  H   H1143     1.0  0.65929  0.17988  0.23825  1.0000
  H   H1144     1.0  0.57068  0.22996  0.02856  1.0000
  H   H1145     1.0  0.75471  0.15860  0.05853  1.0000
  H   H1146     1.0  0.66112  0.21361  0.20610  1.0000
  H   H1147     1.0  0.73260  0.17711  0.03272  1.0000
  H   H1148     1.0  0.70816  0.23007  0.03062  1.0000
  H   H1149     1.0  0.65733  0.20155  0.13603  1.0000
  C   C649      1.0  0.54224  0.21089  0.14309  1.0000
  C   C650      1.0  0.49716  0.12919  0.19650  1.0000
  H   H1150     1.0  0.84697  0.22733  0.13685  1.0000
  H   H1151     1.0  0.83761  0.20068  0.18643  1.0000
  C   C651      1.0  0.81132  0.23578  0.17982  1.0000
  H   H1152     1.0  0.89830  0.21025  0.10508  1.0000
  S   S151      1.0  0.72793  0.22000  0.16631  1.0000
  C   C652      1.0  0.78033  0.18584  0.02314  1.0000
  H   H1153     1.0  0.88345  0.20966  0.15317  1.0000
  H   H1154     1.0  0.77255  0.18377  0.00392  1.0000
  C   C653      1.0  0.67196  0.18750  0.21606  1.0000
  C   C654      1.0  0.64571  0.21036  0.14117  1.0000
  H   H1155     1.0  0.74528  0.19979  0.04592  1.0000
  S   S152      1.0  0.78494  0.21754  0.17962  1.0000
  H   H1156     1.0  0.55887  0.22267  0.06817  1.0000
  Fe  Fe74      1.0  0.76000  0.23503  0.08368  1.0000
  H   H1157     1.0  0.84619  0.18399  0.02301  1.0000
  H   H1158     1.0  0.67551  0.17529  0.20576  1.0000
  H   H1159     1.0  0.75845  0.14652  0.01515  1.0000
  H   H1160     1.0  0.62912  0.19784  0.10799  1.0000
  C   C655      1.0  0.50425  0.14642  0.01533  1.0000
  C   C656      1.0  0.62295  0.21523  0.18677  1.0000
  H   H1161     1.0  0.69790  0.23118  0.99712  1.0000
  C   C657      1.0  0.51374  0.12684  0.17433  1.0000
  H   H1162     1.0  0.52992  0.07173  0.09579  1.0000
  H   H1163     1.0  0.95612  0.22932  0.16337  1.0000
  H   H1164     1.0  0.92102  0.20618  0.05757  1.0000
  H   H1165     1.0  0.53102  0.09767  0.08012  1.0000
  C   C658      1.0  0.85470  0.21496  0.13885  1.0000
  C   C659      1.0  0.52910  0.08231  0.07548  1.0000
  H   H1166     1.0  0.54906  0.07023  0.04500  1.0000
  C   C660      1.0  0.92677  0.23119  0.14665  1.0000
  C   C661      1.0  0.48219  0.14704  0.01595  1.0000
  H   H1167     1.0  0.78945  0.12176  0.99743  1.0000
  H   H1168     1.0  0.80744  0.14974  0.01992  1.0000
  H   H1169     1.0  0.78648  0.20299  0.02086  1.0000
  H   H1170     1.0  0.62179  0.21938  0.11647  1.0000
  S   S153      1.0  0.52953  0.15721  0.09990  1.0000
  H   H1171     1.0  0.85560  0.20970  0.11787  1.0000
  H   H1172     1.0  0.48954  0.17506  0.08071  1.0000
  C   C662      1.0  0.60827  0.22671  0.17313  1.0000
  C   C663      1.0  0.77273  0.12310  0.00736  1.0000
  C   C664      1.0  0.63596  0.21318  0.11315  1.0000
  H   H1173     1.0  0.78211  0.15488  0.98262  1.0000
  H   H1174     1.0  0.88411  0.20301  0.99542  1.0000
  H   H1175     1.0  0.81153  0.21715  0.22180  1.0000
  H   H1176     1.0  0.78374  0.14625  0.04946  1.0000
  H   H1177     1.0  0.50526  0.05703  0.06529  1.0000
  C   C665      1.0  0.81184  0.18337  0.04560  1.0000
  C   C666      1.0  0.84641  0.18718  0.06745  1.0000
  H   H1178     1.0  0.49520  0.20131  0.99283  1.0000
  H   H1179     1.0  0.84132  0.21503  0.00006  1.0000
  H   H1180     1.0  0.65745  0.22593  0.14151  1.0000
  H   H1181     1.0  0.81585  0.20021  0.04498  1.0000
  H   H1182     1.0  0.55039  0.09661  0.02954  1.0000
  N   N37       1.0  0.80023  0.17804  0.02123  1.0000
  H   H1183     1.0  0.52835  0.14033  0.16096  1.0000
  H   H1184     1.0  0.49646  0.09785  0.10869  1.0000
  C   C667      1.0  0.83390  0.17791  0.04544  1.0000
  H   H1185     1.0  0.52945  0.19676  0.06373  1.0000
  H   H1186     1.0  0.47849  0.16075  0.01906  1.0000
  H   H1187     1.0  0.50781  0.08201  0.04390  1.0000
  H   H1188     1.0  0.91389  0.22582  0.03418  1.0000
  H   H1189     1.0  0.51147  0.22992  0.03627  1.0000
  H   H1190     1.0  0.60040  0.22918  0.07148  1.0000
  C   C668      1.0  0.77572  0.14587  0.00645  1.0000
  C   C669      1.0  0.82080  0.23118  0.20378  1.0000
  H   H1191     1.0  0.48720  0.18772  0.28853  1.0000
  H   H1192     1.0  0.48325  0.04301  0.11579  1.0000
  H   H1193     1.0  0.48018  0.19674  0.07059  1.0000
  H   H1194     1.0  0.83998  0.23535  0.08058  1.0000
  H   H1195     1.0  0.88176  0.03970  0.99105  1.0000
  H   H1196     1.0  0.72712  0.23243  0.99515  1.0000
  H   H1197     1.0  0.49132  0.07432  0.18458  1.0000
  S   S154      1.0  0.48394  0.23560  0.16434  1.0000
  H   H1198     1.0  0.76057  0.11716  0.99394  1.0000
  C   C670      1.0  0.65466  0.22805  0.08550  1.0000
  H   H1199     1.0  0.87702  0.23094  0.16364  1.0000
  H   H1200     1.0  0.73901  0.23053  0.22545  1.0000
  C   C671      1.0  0.52610  0.23366  0.16562  1.0000
  H   H1201     1.0  0.66975  0.22296  0.08173  1.0000
  H   H1202     1.0  0.94354  0.22900  0.03226  1.0000
  C   C672      1.0  0.90165  0.22694  0.09431  1.0000
  C   C673      1.0  0.52653  0.22537  0.03892  1.0000
  H   H1203     1.0  0.49804  0.20201  0.24949  1.0000
  H   H1204     1.0  0.61769  0.23638  0.15005  1.0000
  H   H1205     1.0  0.76577  0.11319  0.03082  1.0000
  C   C674      1.0  0.54462  0.22699  0.15757  1.0000
  C   C675      1.0  0.48201  0.05824  0.11838  1.0000
  C   C676      1.0  0.49192  0.11200  0.00597  1.0000
  H   H1206     1.0  0.49595  0.09873  0.00112  1.0000
  H   H1207     1.0  0.63902  0.22773  0.18648  1.0000
  H   H1208     1.0  0.52608  0.12824  0.00968  1.0000
  H   H1209     1.0  0.81892  0.22097  0.98544  1.0000
  C   C677      1.0  0.50562  0.22502  0.15771  1.0000
  H   H1210     1.0  0.64775  0.22810  0.06533  1.0000
  H   H1211     1.0  0.49650  0.06515  0.12810  1.0000
  H   H1212     1.0  0.59256  0.23256  0.21462  1.0000
  H   H1213     1.0  0.47821  0.12231  0.12242  1.0000
  C   C678      1.0  0.47804  0.11178  0.21369  1.0000
  C   C679      1.0  0.71308  0.23723  0.00602  1.0000
  H   H1214     1.0  0.92252  0.20046  0.60964  1.0000
  C   C680      1.0  0.77429  0.05027  0.63477  1.0000
  S   S155      1.0  0.93927  0.18965  0.73085  1.0000
  H   H1215     1.0  0.91558  0.23668  0.97200  1.0000
  Fe  Fe75      1.0  0.85409  0.08808  0.74105  1.0000
  S   S156      1.0  0.85164  0.08743  0.78971  1.0000
  S   S157      1.0  0.86375  0.11714  0.70358  1.0000
  Fe  Fe76      1.0  0.83871  0.04089  0.75319  1.0000
  S   S158      1.0  0.83548  0.03610  0.80248  1.0000
  Fe  Fe77      1.0  0.81881  0.06031  0.79887  1.0000
  S   S159      1.0  0.78421  0.05364  0.82956  1.0000
  Fe  Fe78      1.0  0.86867  0.06343  0.78882  1.0000
  S   S160      1.0  0.89725  0.06280  0.81102  1.0000
  S   S161      1.0  0.81963  0.06312  0.75034  1.0000
  S   S162      1.0  0.87348  0.06600  0.73942  1.0000
  H   H1216     1.0  0.96812  0.14675  0.81850  1.0000
  Fe  Fe79      1.0  0.83770  0.17721  0.88459  1.0000
  S   S163      1.0  0.87291  0.17840  0.88780  1.0000
  S   S164      1.0  0.82923  0.20528  0.86538  1.0000
  Fe  Fe80      1.0  0.81587  0.13074  0.91638  1.0000
  S   S165      1.0  0.84909  0.12798  0.92309  1.0000
  S   S166      1.0  0.78332  0.10280  0.93032  1.0000
  Fe  Fe81      1.0  0.85519  0.15865  0.93485  1.0000
  H   H1217     1.0  0.75951  0.04596  0.65453  1.0000
  Fe  Fe82      1.0  0.86359  0.14770  0.87574  1.0000
  S   S167      1.0  0.88702  0.13870  0.84325  1.0000
  H   H1218     1.0  0.90693  0.17888  0.92230  1.0000
  S   S168      1.0  0.82983  0.14826  0.86797  1.0000
  H   H1219     1.0  0.93877  0.21270  0.89881  1.0000
  H   H1220     1.0  0.89187  0.08751  0.85622  1.0000
  C   C681      1.0  0.77135  0.06623  0.61007  1.0000
  H   H1221     1.0  0.70478  0.02900  0.81804  1.0000
  C   C682      1.0  0.83887  0.23390  0.81228  1.0000
  H   H1222     1.0  0.49729  0.22437  0.96569  1.0000
  C   C683      1.0  0.95469  0.14940  0.83336  1.0000
  C   C684      1.0  0.93263  0.14406  0.82849  1.0000
  C   C685      1.0  0.91491  0.14687  0.84800  1.0000
  C   C686      1.0  0.89850  0.06842  0.93411  1.0000
  H   H1223     1.0  0.96494  0.14452  0.67595  1.0000
  H   H1224     1.0  0.79500  0.07491  0.70554  1.0000
  H   H1225     1.0  0.92925  0.13744  0.80989  1.0000
  Fe  Fe83      1.0  0.94230  0.22250  0.71241  1.0000
  C   C687      1.0  0.78430  0.06707  0.85782  1.0000
  C   C688      1.0  0.76380  0.06273  0.87949  1.0000
  C   C689      1.0  0.76357  0.07343  0.90211  1.0000
  C   C690      1.0  0.78382  0.08861  0.90299  1.0000
  C   C691      1.0  0.80434  0.09270  0.88157  1.0000
  C   C692      1.0  0.80453  0.08203  0.85895  1.0000
  H   H1226     1.0  0.74805  0.05126  0.87863  1.0000
  H   H1227     1.0  0.74767  0.07025  0.91860  1.0000
  H   H1228     1.0  0.82015  0.10403  0.88245  1.0000
  H   H1229     1.0  0.82034  0.08551  0.84233  1.0000
  C   C693      1.0  0.92242  0.08424  0.79173  1.0000
  C   C694      1.0  0.94225  0.08766  0.80232  1.0000
  H   H1230     1.0  0.48872  0.11456  0.90633  1.0000
  H   H1231     1.0  0.96211  0.19006  0.67543  1.0000
  C   C695      1.0  0.94346  0.11388  0.74864  1.0000
  C   C696      1.0  0.92303  0.09755  0.76507  1.0000
  H   H1232     1.0  0.94188  0.07734  0.82284  1.0000
  C   C697      1.0  0.92712  0.11325  0.67642  1.0000
  H   H1233     1.0  0.76743  0.05055  0.75308  1.0000
  H   H1234     1.0  0.90781  0.09515  0.75694  1.0000
  C   C698      1.0  0.84744  0.22161  0.83076  1.0000
  C   C699      1.0  0.87014  0.22251  0.82124  1.0000
  C   C700      1.0  0.88420  0.23571  0.79330  1.0000
  H   H1235     1.0  0.87696  0.21321  0.83549  1.0000
  H   H1236     1.0  0.86529  0.06410  0.96512  1.0000
  C   C701      1.0  0.91791  0.17014  0.72300  1.0000
  C   C702      1.0  0.91040  0.14985  0.74126  1.0000
  C   C703      1.0  0.89381  0.13372  0.73515  1.0000
  C   C704      1.0  0.88475  0.13764  0.71062  1.0000
  C   C705      1.0  0.89258  0.15792  0.69183  1.0000
  C   C706      1.0  0.90905  0.17426  0.69820  1.0000
  H   H1237     1.0  0.91741  0.14656  0.76029  1.0000
  H   H1238     1.0  0.88839  0.11816  0.74926  1.0000
  H   H1239     1.0  0.88579  0.16100  0.67259  1.0000
  H   H1240     1.0  0.91513  0.18991  0.68373  1.0000
  H   H1241     1.0  0.92306  0.10620  0.94159  1.0000
  H   H1242     1.0  0.91334  0.12201  0.91678  1.0000
  C   C707      1.0  0.50513  0.20028  0.94640  1.0000
  H   H1243     1.0  0.87344  0.01678  0.77339  1.0000
  H   H1244     1.0  0.74986  0.99685  0.78337  1.0000
  S   S169      1.0  0.83089  0.01378  0.73250  1.0000
  H   H1245     1.0  0.51212  0.13619  0.90927  1.0000
  C   C708      1.0  0.78580  0.00404  0.76270  1.0000
  H   H1246     1.0  0.95309  0.11439  0.90199  1.0000
  C   C709      1.0  0.80174  0.99788  0.74526  1.0000
  C   C710      1.0  0.82401  0.05821  0.67427  1.0000
  H   H1247     1.0  0.86262  0.05021  0.93668  1.0000
  H   H1248     1.0  0.48310  0.18382  0.87291  1.0000
  H   H1249     1.0  0.51336  0.18866  0.95242  1.0000
  C   C711      1.0  0.93878  0.13414  0.65267  1.0000
  H   H1250     1.0  0.76471  0.01035  0.66645  1.0000
  C   C712      1.0  0.80159  0.02550  0.66504  1.0000
  S   S170      1.0  0.82043  0.15968  0.93267  1.0000
  H   H1251     1.0  0.77112  0.08038  0.61773  1.0000
  H   H1252     1.0  0.75156  0.00760  0.82685  1.0000
  N   N38       1.0  0.84220  0.17391  0.76653  1.0000
  C   C713      1.0  0.84014  0.18474  0.73669  1.0000
  C   C714      1.0  0.82691  0.17796  0.79190  1.0000
  C   C715      1.0  0.86691  0.18335  0.76783  1.0000
  C   C716      1.0  0.83686  0.15075  0.77012  1.0000
  C   C717      1.0  0.81278  0.13795  0.76776  1.0000
  C   C718      1.0  0.85563  0.18291  0.70841  1.0000
  C   C719      1.0  0.87182  0.17722  0.79885  1.0000
  C   C720      1.0  0.80384  0.17994  0.78737  1.0000
  C   C721      1.0  0.78840  0.17950  0.81690  1.0000
  C   C722      1.0  0.81044  0.11518  0.76955  1.0000
  C   C723      1.0  0.85167  0.19409  0.67969  1.0000
  C   C724      1.0  0.89738  0.18651  0.79729  1.0000
  H   H1253     1.0  0.84418  0.20173  0.73525  1.0000
  H   H1254     1.0  0.82227  0.17882  0.73449  1.0000
  H   H1255     1.0  0.82304  0.16573  0.81300  1.0000
  H   H1256     1.0  0.83607  0.19302  0.79655  1.0000
  H   H1257     1.0  0.87283  0.20077  0.76084  1.0000
  H   H1258     1.0  0.87859  0.17876  0.75185  1.0000
  H   H1259     1.0  0.85006  0.14790  0.75382  1.0000
  H   H1260     1.0  0.83808  0.14319  0.79253  1.0000
  H   H1261     1.0  0.80942  0.14435  0.74627  1.0000
  H   H1262     1.0  0.79940  0.13767  0.78695  1.0000
  H   H1263     1.0  0.87404  0.19035  0.70746  1.0000
  H   H1264     1.0  0.85189  0.16629  0.70824  1.0000
  H   H1265     1.0  0.86657  0.16011  0.80705  1.0000
  H   H1266     1.0  0.86238  0.18277  0.81587  1.0000
  H   H1267     1.0  0.80733  0.19511  0.77120  1.0000
  H   H1268     1.0  0.79403  0.16735  0.77849  1.0000
  H   H1269     1.0  0.77220  0.18129  0.81302  1.0000
  H   H1270     1.0  0.78397  0.16442  0.83377  1.0000
  H   H1271     1.0  0.79717  0.19250  0.82608  1.0000
  H   H1272     1.0  0.79298  0.10620  0.76808  1.0000
  H   H1273     1.0  0.82331  0.11420  0.75080  1.0000
  H   H1274     1.0  0.81290  0.10780  0.79126  1.0000
  H   H1275     1.0  0.74368  0.00604  0.91574  1.0000
  H   H1276     1.0  0.52154  0.20390  0.83263  1.0000
  C   C725      1.0  0.89213  0.23291  0.88481  1.0000
  H   H1277     1.0  0.90498  0.20309  0.78425  1.0000
  H   H1278     1.0  0.89975  0.18553  0.82034  1.0000
  H   H1279     1.0  0.90672  0.17738  0.78687  1.0000
  H   H1280     1.0  0.91642  0.10151  0.66687  1.0000
  H   H1281     1.0  0.81097  0.06094  0.62194  1.0000
  H   H1282     1.0  0.89133  0.01398  0.79851  1.0000
  C   C726      1.0  0.87210  0.03554  0.97416  1.0000
  H   H1283     1.0  0.83707  0.21927  0.93522  1.0000
  H   H1284     1.0  0.72163  0.01270  0.90132  1.0000
  H   H1285     1.0  0.89771  0.00872  0.76227  1.0000
  C   C727      1.0  0.97772  0.22030  0.80214  1.0000
  C   C728      1.0  0.79761  0.05915  0.64233  1.0000
  H   H1286     1.0  0.96063  0.05610  0.72416  1.0000
  H   H1287     1.0  0.81389  0.98769  0.83342  1.0000
  C   C729      1.0  0.49181  0.18946  0.89000  1.0000
  H   H1288     1.0  0.50264  0.16248  0.93241  1.0000
  H   H1289     1.0  0.81297  0.02017  0.67773  1.0000
  C   C730      1.0  0.86767  0.07137  0.65818  1.0000
  H   H1290     1.0  0.92539  0.10999  0.87221  1.0000
  C   C731      1.0  0.95902  0.06192  0.74469  1.0000
  H   H1291     1.0  0.52660  0.19276  0.89712  1.0000
  C   C732      1.0  0.87859  0.07887  0.87772  1.0000
  H   H1292     1.0  0.95302  0.20971  0.63666  1.0000
  C   C733      1.0  0.89476  0.12433  0.97041  1.0000
  H   H1293     1.0  0.80946  0.02713  0.64101  1.0000
  H   H1294     1.0  0.91126  0.12748  0.97702  1.0000
  H   H1295     1.0  0.95092  0.18965  0.81270  1.0000
  H   H1296     1.0  0.49255  0.20593  0.88708  1.0000
  H   H1297     1.0  0.86654  0.08578  0.91961  1.0000
  H   H1298     1.0  0.71053  0.99522  0.82833  1.0000
  H   H1299     1.0  0.80844  0.99936  0.86393  1.0000
  H   H1300     1.0  0.87206  0.10196  0.95400  1.0000
  H   H1301     1.0  0.78696  0.03508  0.71759  1.0000
  H   H1302     1.0  0.90951  0.06965  0.95022  1.0000
  C   C734      1.0  0.91930  0.15523  0.87216  1.0000
  H   H1303     1.0  0.78370  0.00232  0.82880  1.0000
  C   C735      1.0  0.96269  0.10416  0.78595  1.0000
  H   H1304     1.0  0.86871  0.06015  0.67763  1.0000
  C   C736      1.0  0.72557  0.99985  0.91450  1.0000
  C   C737      1.0  0.96539  0.09946  0.87005  1.0000
  H   H1305     1.0  0.92117  0.08320  0.87619  1.0000
  H   H1306     1.0  0.97447  0.21200  0.60415  1.0000
  H   H1307     1.0  0.96648  0.11123  0.84976  1.0000
  H   H1308     1.0  0.97273  0.21703  0.93396  1.0000
  H   H1309     1.0  0.80026  0.07538  0.64436  1.0000
  H   H1310     1.0  0.75906  0.07222  0.73891  1.0000
  H   H1311     1.0  0.82633  0.04981  0.69546  1.0000
  H   H1312     1.0  0.83354  0.18707  0.67880  1.0000
  H   H1313     1.0  0.74734  0.01822  0.85766  1.0000
  N   N39       1.0  0.90277  0.08990  0.91484  1.0000
  C   C738      1.0  0.89311  0.18879  0.96011  1.0000
  H   H1314     1.0  0.86829  0.08617  0.66439  1.0000
  C   C739      1.0  0.96338  0.11714  0.75884  1.0000
  C   C740      1.0  0.50508  0.21222  0.97062  1.0000
  C   C741      1.0  0.48042  0.18973  0.94379  1.0000
  C   C742      1.0  0.87331  0.05526  0.95215  1.0000
  H   H1315     1.0  0.94466  0.16692  0.89587  1.0000
  H   H1316     1.0  0.49009  0.11926  0.94254  1.0000
  H   H1317     1.0  0.84608  0.07315  0.62825  1.0000
  C   C743      1.0  0.95910  0.15767  0.85762  1.0000
  C   C744      1.0  0.47917  0.14093  0.91417  1.0000
  H   H1318     1.0  0.85830  0.21083  0.94974  1.0000
  H   H1319     1.0  0.95502  0.20631  0.77654  1.0000
  H   H1320     1.0  0.76846  0.00057  0.88151  1.0000
  H   H1321     1.0  0.88560  0.10760  0.89136  1.0000
  H   H1322     1.0  0.87937  0.02577  0.96199  1.0000
  H   H1323     1.0  0.92497  0.13867  0.64497  1.0000
  H   H1324     1.0  0.77230  0.07053  0.68667  1.0000
  C   C745      1.0  0.77900  0.06316  0.70434  1.0000
  H   H1325     1.0  0.87497  0.22191  0.88546  1.0000
  H   H1326     1.0  0.84105  0.06822  0.89196  1.0000
  H   H1327     1.0  0.72680  0.03998  0.83612  1.0000
  H   H1328     1.0  0.90183  0.23670  0.78639  1.0000
  C   C746      1.0  0.95337  0.15121  0.66556  1.0000
  H   H1329     1.0  0.97557  0.20331  0.84618  1.0000
  C   C747      1.0  0.90811  0.10623  0.93227  1.0000
  H   H1330     1.0  0.95573  0.07682  0.73957  1.0000
  H   H1331     1.0  0.51575  0.21193  0.92503  1.0000
  H   H1332     1.0  0.93326  0.17325  0.64236  1.0000
  H   H1333     1.0  0.94016  0.10737  0.68405  1.0000
  C   C748      1.0  0.51687  0.18981  0.88006  1.0000
  C   C749      1.0  0.88358  0.00735  0.78142  1.0000
  H   H1334     1.0  0.94375  0.12414  0.72815  1.0000
  C   C750      1.0  0.48430  0.15786  0.93195  1.0000
  H   H1335     1.0  0.51682  0.17460  0.87597  1.0000
  H   H1336     1.0  0.54785  0.20611  0.84379  1.0000
  H   H1337     1.0  0.96129  0.08388  0.86523  1.0000
  H   H1338     1.0  0.77253  0.00186  0.70008  1.0000
  H   H1339     1.0  0.94399  0.20266  0.57642  1.0000
  C   C751      1.0  0.77850  0.00666  0.67518  1.0000
  C   C752      1.0  0.49347  0.12694  0.91836  1.0000
  C   C753      1.0  0.95458  0.20599  0.80034  1.0000
  H   H1340     1.0  0.90552  0.15700  0.88758  1.0000
  C   C754      1.0  0.85526  0.07673  0.87136  1.0000
  H   H1341     1.0  0.82497  0.07395  0.67701  1.0000
  H   H1342     1.0  0.90392  0.05858  0.92011  1.0000
  C   C755      1.0  0.92354  0.09551  0.88874  1.0000
  C   C756      1.0  0.94138  0.16059  0.87704  1.0000
  H   H1343     1.0  0.94057  0.21131  0.80974  1.0000
  H   H1344     1.0  0.88287  0.07480  0.63927  1.0000
  H   H1345     1.0  0.82129  0.23319  0.81947  1.0000
  H   H1346     1.0  0.74448  0.04675  0.73419  1.0000
  C   C757      1.0  0.88285  0.09105  0.90192  1.0000
  C   C758      1.0  0.94094  0.20810  0.59713  1.0000
  C   C759      1.0  0.73944  0.00477  0.84883  1.0000
  H   H1347     1.0  0.79142  0.01849  0.76927  1.0000
  C   C760      1.0  0.95103  0.17938  0.62741  1.0000
  H   H1348     1.0  0.85277  0.06793  0.85402  1.0000
  H   H1349     1.0  0.89616  0.13795  0.95251  1.0000
  H   H1350     1.0  0.94571  0.08654  0.91610  1.0000
  C   C761      1.0  0.92937  0.22710  0.93371  1.0000
  H   H1351     1.0  0.85461  0.09247  0.86271  1.0000
  C   C762      1.0  0.78282  0.04322  0.69778  1.0000
  H   H1352     1.0  0.75477  0.05928  0.60450  1.0000
  C   C763      1.0  0.76233  0.99173  0.77096  1.0000
  H   H1353     1.0  0.96241  0.22232  0.84640  1.0000
  C   C764      1.0  0.84557  0.06197  0.64882  1.0000
  H   H1354     1.0  0.94956  0.13138  0.63353  1.0000
  H   H1355     1.0  0.78553  0.07083  0.58939  1.0000
  H   H1356     1.0  0.85579  0.21100  0.67846  1.0000
  H   H1357     1.0  0.84588  0.04726  0.64315  1.0000
  C   C765      1.0  0.90888  0.19148  0.93317  1.0000
  C   C766      1.0  0.92706  0.21058  0.92001  1.0000
  H   H1358     1.0  0.87941  0.06303  0.88462  1.0000
  N   N40       1.0  0.96708  0.17225  0.64355  1.0000
  H   H1359     1.0  0.77363  0.03631  0.62621  1.0000
  H   H1360     1.0  0.94484  0.22524  0.59045  1.0000
  H   H1361     1.0  0.76567  0.03275  0.69755  1.0000
  C   C767      1.0  0.94701  0.09903  0.89661  1.0000
  H   H1362     1.0  0.94959  0.17265  0.60775  1.0000
  C   C768      1.0  0.76139  0.05776  0.73446  1.0000
  H   H1363     1.0  0.52302  0.21994  0.97160  1.0000
  H   H1364     1.0  0.48246  0.14789  0.88980  1.0000
  C   C769      1.0  0.88884  0.10441  0.95944  1.0000
  N   N41       1.0  0.80098  0.04637  0.66965  1.0000
  H   H1365     1.0  0.90560  0.22772  0.87336  1.0000
  H   H1366     1.0  0.94139  0.15305  0.68460  1.0000
  C   C770      1.0  0.53029  0.20661  0.85081  1.0000
  C   C771      1.0  0.84688  0.22008  0.95264  1.0000
  C   C772      1.0  0.95637  0.20332  0.61690  1.0000
  H   H1367     1.0  0.85782  0.23653  0.94967  1.0000
  H   H1368     1.0  0.86312  0.19257  0.65985  1.0000
  C   C773      1.0  0.72099  0.02826  0.82334  1.0000
  H   H1369     1.0  0.91569  0.11490  0.69611  1.0000
  S   S171      1.0  0.91768  0.23298  0.69041  1.0000
  H   H1370     1.0  0.89351  0.23241  0.90818  1.0000
  C   C774      1.0  0.71688  0.00629  0.84178  1.0000
  H   H1371     1.0  0.94396  0.05033  0.76238  1.0000
  H   H1372     1.0  0.70321  0.00275  0.86258  1.0000
  H   H1373     1.0  0.71339  0.00738  0.95590  1.0000
  C   C775      1.0  0.91405  0.22411  0.96121  1.0000
  H   H1374     1.0  0.73431  0.03234  0.80191  1.0000
  H   H1375     1.0  0.53192  0.22239  0.85401  1.0000
  C   C776      1.0  0.71014  0.99357  0.94638  1.0000
  H   H1376     1.0  0.80709  0.18670  0.97268  1.0000
  H   H1377     1.0  0.97747  0.06932  0.77744  1.0000
  C   C777      1.0  0.77896  0.98735  0.84595  1.0000
  H   H1378     1.0  0.78557  0.99118  0.63996  1.0000
  H   H1379     1.0  0.69170  0.98778  0.94625  1.0000
  C   C778      1.0  0.89613  0.20493  0.97457  1.0000
  S   S172      1.0  0.86848  0.16616  0.97417  1.0000
  C   C779      1.0  0.97652  0.18737  0.66133  1.0000
  H   H1380     1.0  0.88700  0.09126  0.97835  1.0000
  C   C780      1.0  0.78131  0.98777  0.66486  1.0000
  Fe  Fe84      1.0  0.88761  0.34861  0.17129  1.0000
  S   S173      1.0  0.88787  0.32376  0.20903  1.0000
  S   S174      1.0  0.85868  0.36054  0.16937  1.0000
  Fe  Fe85      1.0  0.93199  0.35098  0.13156  1.0000
  S   S175      1.0  0.93632  0.32609  0.16542  1.0000
  H   H1381     1.0  0.81663  0.25724  0.13740  1.0000
  Fe  Fe86      1.0  0.89840  0.30944  0.17225  1.0000
  S   S176      1.0  0.88435  0.27461  0.17883  1.0000
  Fe  Fe87      1.0  0.92558  0.34255  0.19936  1.0000
  S   S177      1.0  0.94353  0.34638  0.23676  1.0000
  S   S178      1.0  0.89519  0.33282  0.13511  1.0000
  S   S179      1.0  0.92426  0.36885  0.16489  1.0000
  H   H1382     1.0  0.94864  0.31000  0.04479  1.0000
  H   H1383     1.0  0.93192  0.40376  0.30989  1.0000
  S   S180      1.0  0.77868  0.24336  0.03530  1.0000
  C   C781      1.0  0.60578  0.24362  0.05306  1.0000
  H   H1384     1.0  0.53520  0.33801  0.07043  1.0000
  C   C782      1.0  0.68768  0.45043  0.99015  1.0000
  H   H1385     1.0  0.92289  0.34944  0.45062  1.0000
  Fe  Fe88      1.0  0.59135  0.40376  0.04787  1.0000
  C   C783      1.0  0.90702  0.27612  0.08384  1.0000
  S   S181      1.0  0.62158  0.39438  0.03297  1.0000
  H   H1386     1.0  0.56433  0.38434  0.16129  1.0000
  H   H1387     1.0  0.49908  0.44374  0.14999  1.0000
  C   C784      1.0  0.88365  0.47163  0.01173  1.0000
  H   H1388     1.0  0.93105  0.41238  0.01263  1.0000
  H   H1389     1.0  0.85049  0.46603  0.12041  1.0000
  C   C785      1.0  0.54643  0.27345  0.07010  1.0000
  H   H1390     1.0  0.76959  0.25584  0.18280  1.0000
  C   C786      1.0  0.95644  0.43932  0.46790  1.0000
  H   H1391     1.0  0.66029  0.24417  0.08840  1.0000
  S   S182      1.0  0.72116  0.27262  0.14729  1.0000
  C   C787      1.0  0.68557  0.47011  0.20105  1.0000
  Fe  Fe89      1.0  0.85091  0.39742  0.01604  1.0000
  C   C788      1.0  0.86562  0.46150  0.12289  1.0000
  S   S183      1.0  0.88261  0.40690  0.03252  1.0000
  Fe  Fe90      1.0  0.79950  0.37709  0.03735  1.0000
  H   H1392     1.0  0.69908  0.33901  0.04668  1.0000
  S   S184      1.0  0.77004  0.36765  0.07800  1.0000
  C   C789      1.0  0.89395  0.44709  0.09918  1.0000
  C   C790      1.0  0.91880  0.24751  0.12866  1.0000
  H   H1393     1.0  0.56270  0.25553  0.99585  1.0000
  H   H1394     1.0  0.53017  0.31729  0.01823  1.0000
  S   S185      1.0  0.82756  0.36387  0.02821  1.0000
  S   S186      1.0  0.82308  0.41005  0.02898  1.0000
  C   C791      1.0  0.73570  0.29887  0.12769  1.0000
  C   C792      1.0  0.72699  0.31377  0.13603  1.0000
  C   C793      1.0  0.73785  0.33485  0.12065  1.0000
  C   C794      1.0  0.75740  0.34114  0.09675  1.0000
  C   C795      1.0  0.76632  0.32632  0.08836  1.0000
  C   C796      1.0  0.75545  0.30512  0.10392  1.0000
  H   H1395     1.0  0.71175  0.30899  0.15438  1.0000
  H   H1396     1.0  0.73099  0.34631  0.12721  1.0000
  H   H1397     1.0  0.78163  0.33126  0.07012  1.0000
  H   H1398     1.0  0.76234  0.29366  0.09761  1.0000
  H   H1399     1.0  0.76534  0.42719  0.98347  1.0000
  N   N42       1.0  0.54534  0.24346  0.04310  1.0000
  C   C797      1.0  0.80735  0.24651  0.03440  1.0000
  C   C798      1.0  0.58612  0.25208  0.05278  1.0000
  C   C799      1.0  0.88472  0.48183  0.12293  1.0000
  H   H1400     1.0  0.82674  0.30105  0.01089  1.0000
  H   H1401     1.0  0.82000  0.26147  0.98719  1.0000
  H   H1402     1.0  0.91391  0.27291  0.06257  1.0000
  H   H1403     1.0  0.73020  0.43485  0.00613  1.0000
  C   C800      1.0  0.64646  0.41636  0.01588  1.0000
  C   C801      1.0  0.64994  0.43474  0.02548  1.0000
  C   C802      1.0  0.67076  0.45167  0.01293  1.0000
  Fe  Fe91      1.0  0.82556  0.37140  0.98036  1.0000
  Fe  Fe92      1.0  0.82105  0.41320  0.98138  1.0000
  H   H1404     1.0  0.74733  0.40099  0.98583  1.0000
  H   H1405     1.0  0.63693  0.43563  0.04322  1.0000
  H   H1406     1.0  0.67364  0.46565  0.02080  1.0000
  S   S187      1.0  0.92392  0.30958  0.98738  1.0000
  C   C803      1.0  0.63246  0.45460  0.10818  1.0000
  H   H1407     1.0  0.75656  0.26724  0.99644  1.0000
  H   H1408     1.0  0.53184  0.37317  0.98355  1.0000
  H   H1409     1.0  0.89157  0.44888  0.04057  1.0000
  H   H1410     1.0  0.59293  0.26686  0.03487  1.0000
  N   N43       1.0  0.87165  0.45085  0.09896  1.0000
  C   C804      1.0  0.49770  0.41748  0.13205  1.0000
  H   H1411     1.0  0.92143  0.28356  0.09319  1.0000
  H   H1412     1.0  0.95456  0.42323  0.04712  1.0000
  H   H1413     1.0  0.68571  0.28829  0.06795  1.0000
  C   C805      1.0  0.93149  0.35866  0.40184  1.0000
  H   H1414     1.0  0.93249  0.39049  0.03790  1.0000
  H   H1415     1.0  0.94705  0.43537  0.45076  1.0000
  C   C806      1.0  0.48173  0.30272  0.00938  1.0000
  H   H1416     1.0  0.73993  0.25966  0.03381  1.0000
  H   H1417     1.0  0.64171  0.46804  0.14448  1.0000
  H   H1418     1.0  0.89369  0.33454  0.31954  1.0000
  C   C807      1.0  0.85307  0.25100  0.03339  1.0000
  C   C808      1.0  0.59871  0.45433  0.23547  1.0000
  H   H1419     1.0  0.50072  0.38317  0.98848  1.0000
  C   C809      1.0  0.87428  0.46475  0.06870  1.0000
  H   H1420     1.0  0.73696  0.25096  0.24332  1.0000
  H   H1421     1.0  0.70601  0.26491  0.01025  1.0000
  Fe  Fe93      1.0  0.90909  0.27483  0.99441  1.0000
  H   H1422     1.0  0.93711  0.32800  0.08321  1.0000
  C   C810      1.0  0.86500  0.37376  0.13155  1.0000
  C   C811      1.0  0.88794  0.38437  0.11534  1.0000
  C   C812      1.0  0.89332  0.39463  0.08493  1.0000
  C   C813      1.0  0.87581  0.39359  0.07031  1.0000
  C   C814      1.0  0.85286  0.38263  0.08631  1.0000
  C   C815      1.0  0.84742  0.37312  0.11709  1.0000
  H   H1423     1.0  0.90160  0.38505  0.12633  1.0000
  H   H1424     1.0  0.91105  0.40328  0.07282  1.0000
  H   H1425     1.0  0.83922  0.38201  0.07525  1.0000
  H   H1426     1.0  0.82968  0.36491  0.12937  1.0000
  H   H1427     1.0  0.77877  0.33499  0.98574  1.0000
  C   C816      1.0  0.84531  0.26721  0.15714  1.0000
  C   C817      1.0  0.49138  0.48394  0.23653  1.0000
  C   C818      1.0  0.53453  0.32513  0.05931  1.0000
  H   H1428     1.0  0.52522  0.25552  0.99257  1.0000
  H   H1429     1.0  0.58497  0.46078  0.24172  1.0000
  H   H1430     1.0  0.85505  0.28081  0.13866  1.0000
  C   C819      1.0  0.96547  0.35693  0.06219  1.0000
  C   C820      1.0  0.96725  0.46335  0.46275  1.0000
  H   H1431     1.0  0.53077  0.45420  0.10047  1.0000
  C   C821      1.0  0.96234  0.43106  0.29387  1.0000
  N   N44       1.0  0.73236  0.41121  0.04134  1.0000
  H   H1432     1.0  0.97633  0.36336  0.17572  1.0000
  C   C822      1.0  0.71379  0.41344  0.06473  1.0000
  C   C823      1.0  0.75556  0.42530  0.04275  1.0000
  C   C824      1.0  0.73232  0.38916  0.04801  1.0000
  C   C825      1.0  0.71098  0.37207  0.04522  1.0000
  H   H1433     1.0  0.48824  0.29815  0.02906  1.0000
  H   H1434     1.0  0.67778  0.41595  0.16154  1.0000
  C   C826      1.0  0.68988  0.41015  0.05824  1.0000
  C   C827      1.0  0.67226  0.40993  0.08557  1.0000
  C   C828      1.0  0.71459  0.35108  0.04871  1.0000
  C   C829      1.0  0.96336  0.38919  0.21514  1.0000
  H   H1435     1.0  0.66507  0.39540  0.19585  1.0000
  C   C830      1.0  0.82455  0.25615  0.00753  1.0000
  C   C831      1.0  0.82353  0.25392  0.15645  1.0000
  H   H1436     1.0  0.71119  0.40284  0.08705  1.0000
  H   H1437     1.0  0.71926  0.42951  0.06799  1.0000
  H   H1438     1.0  0.75828  0.44190  0.03259  1.0000
  H   H1439     1.0  0.65612  0.43981  0.14777  1.0000
  H   H1440     1.0  0.74792  0.38829  0.03353  1.0000
  H   H1441     1.0  0.73376  0.38433  0.07136  1.0000
  H   H1442     1.0  0.96858  0.42791  0.27205  1.0000
  H   H1443     1.0  0.69578  0.36985  0.06337  1.0000
  C   C832      1.0  0.68364  0.43246  0.97960  1.0000
  C   C833      1.0  0.96193  0.41828  0.02757  1.0000
  H   H1444     1.0  0.63486  0.45239  0.19552  1.0000
  H   H1445     1.0  0.72902  0.25031  0.20816  1.0000
  H   H1446     1.0  0.69137  0.42334  0.03971  1.0000
  H   H1447     1.0  0.68300  0.39550  0.05156  1.0000
  H   H1448     1.0  0.66973  0.39677  0.10486  1.0000
  H   H1449     1.0  0.67802  0.42492  0.09204  1.0000
  H   H1450     1.0  0.65548  0.40793  0.08002  1.0000
  H   H1451     1.0  0.71749  0.34599  0.07111  1.0000
  H   H1452     1.0  0.93179  0.25178  0.06115  1.0000
  H   H1453     1.0  0.72966  0.35229  0.03102  1.0000
  C   C834      1.0  0.93330  0.36353  0.43199  1.0000
  H   H1454     1.0  0.49337  0.41139  0.11275  1.0000
  H   H1455     1.0  0.91271  0.33920  0.01569  1.0000
  H   H1456     1.0  0.54844  0.34385  0.01390  1.0000
  S   S188      1.0  0.58383  0.46760  0.07625  1.0000
  C   C835      1.0  0.49861  0.34546  0.11566  1.0000
  H   H1457     1.0  0.65154  0.42450  0.19993  1.0000
  H   H1458     1.0  0.91294  0.35242  0.40244  1.0000
  H   H1459     1.0  0.90786  0.30583  0.05814  1.0000
  H   H1460     1.0  0.86143  0.44245  0.04260  1.0000
  H   H1461     1.0  0.65432  0.39257  0.16319  1.0000
  S   S189      1.0  0.77261  0.25470  0.11432  1.0000
  C   C836      1.0  0.94747  0.41074  0.31751  1.0000
  C   C837      1.0  0.58703  0.39989  0.18661  1.0000
  C   C838      1.0  0.63933  0.42696  0.15894  1.0000
  H   H1462     1.0  0.54624  0.29355  0.10060  1.0000
  H   H1463     1.0  0.58490  0.42885  0.16280  1.0000
  H   H1464     1.0  0.62819  0.40158  0.20092  1.0000
  S   S190      1.0  0.88110  0.25239  0.03357  1.0000
  S   S191      1.0  0.58957  0.43377  0.02390  1.0000
  H   H1465     1.0  0.96989  0.43212  0.46725  1.0000
  H   H1466     1.0  0.96863  0.41465  0.42612  1.0000
  H   H1467     1.0  0.60031  0.41725  0.14060  1.0000
  H   H1468     1.0  0.54024  0.28321  0.05454  1.0000
  H   H1469     1.0  0.59516  0.43974  0.25287  1.0000
  C   C839      1.0  0.91959  0.43405  0.12757  1.0000
  C   C840      1.0  0.94245  0.40380  0.01805  1.0000
  N   N45       1.0  0.79372  0.29909  0.18111  1.0000
  C   C841      1.0  0.76961  0.28424  0.19734  1.0000
  C   C842      1.0  0.79513  0.32096  0.18219  1.0000
  C   C843      1.0  0.79861  0.29724  0.14924  1.0000
  C   C844      1.0  0.81139  0.29383  0.19556  1.0000
  C   C845      1.0  0.80790  0.29316  0.22940  1.0000
  C   C846      1.0  0.76600  0.26059  0.20397  1.0000
  C   C847      1.0  0.82210  0.31231  0.12811  1.0000
  C   C848      1.0  0.78111  0.33048  0.16358  1.0000
  C   C849      1.0  0.78048  0.35099  0.17033  1.0000
  C   C850      1.0  0.82352  0.28322  0.24289  1.0000
  H   H1470     1.0  0.52231  0.26890  0.02149  1.0000
  C   C851      1.0  0.82398  0.31005  0.09603  1.0000
  H   H1471     1.0  0.75724  0.28646  0.18405  1.0000
  H   H1472     1.0  0.76349  0.28778  0.21891  1.0000
  H   H1473     1.0  0.78918  0.32145  0.20584  1.0000
  H   H1474     1.0  0.81331  0.33186  0.17462  1.0000
  H   H1475     1.0  0.78474  0.29921  0.13874  1.0000
  H   H1476     1.0  0.79820  0.28123  0.14897  1.0000
  H   H1477     1.0  0.81249  0.27872  0.19235  1.0000
  H   H1478     1.0  0.82891  0.30554  0.18428  1.0000
  H   H1479     1.0  0.78999  0.28394  0.24260  1.0000
  H   H1480     1.0  0.81225  0.30930  0.23229  1.0000
  C   C852      1.0  0.64332  0.47637  0.08676  1.0000
  H   H1481     1.0  0.97209  0.43243  0.00893  1.0000
  H   H1482     1.0  0.83656  0.30885  0.13547  1.0000
  H   H1483     1.0  0.82444  0.32882  0.12744  1.0000
  H   H1484     1.0  0.78894  0.33380  0.13916  1.0000
  H   H1485     1.0  0.76308  0.31976  0.16862  1.0000
  H   H1486     1.0  0.79812  0.36204  0.16743  1.0000
  H   H1487     1.0  0.77223  0.35836  0.15470  1.0000
  H   H1488     1.0  0.77032  0.34803  0.19373  1.0000
  H   H1489     1.0  0.84176  0.29146  0.23004  1.0000
  H   H1490     1.0  0.82198  0.28412  0.26656  1.0000
  H   H1491     1.0  0.81852  0.26652  0.24250  1.0000
  C   C853      1.0  0.82532  0.46234  0.99525  1.0000
  H   H1492     1.0  0.51243  0.47927  0.03805  1.0000
  H   H1493     1.0  0.93638  0.35041  0.30240  1.0000
  H   H1494     1.0  0.84076  0.32112  0.08131  1.0000
  H   H1495     1.0  0.82287  0.29392  0.09517  1.0000
  H   H1496     1.0  0.81010  0.31373  0.08730  1.0000
  H   H1497     1.0  0.52040  0.27089  0.10989  1.0000
  H   H1498     1.0  0.66053  0.40113  0.98531  1.0000
  H   H1499     1.0  0.86009  0.45049  0.14563  1.0000
  C   C854      1.0  0.75509  0.30580  0.98048  1.0000
  C   C855      1.0  0.76907  0.29755  0.02601  1.0000
  C   C856      1.0  0.79236  0.29844  0.00686  1.0000
  H   H1500     1.0  0.74971  0.33423  0.98950  1.0000
  C   C857      1.0  0.71695  0.28057  0.06189  1.0000
  H   H1501     1.0  0.92001  0.42475  0.14932  1.0000
  H   H1502     1.0  0.61134  0.24012  0.03131  1.0000
  C   C858      1.0  0.81056  0.30124  0.02472  1.0000
  H   H1503     1.0  0.51574  0.35321  0.03481  1.0000
  C   C859      1.0  0.69916  0.28745  0.07991  1.0000
  H   H1504     1.0  0.90888  0.46205  0.09039  1.0000
  H   H1505     1.0  0.95214  0.44136  0.29037  1.0000
  C   C860      1.0  0.79524  0.48376  0.98586  1.0000
  C   C861      1.0  0.74119  0.24736  0.22130  1.0000
  C   C862      1.0  0.87747  0.45522  0.04146  1.0000
  H   H1506     1.0  0.73569  0.31210  0.03532  1.0000
  H   H1507     1.0  0.77214  0.31282  0.03174  1.0000
  H   H1508     1.0  0.76510  0.28584  0.04776  1.0000
  H   H1509     1.0  0.49409  0.37193  0.02813  1.0000
  C   C863      1.0  0.84755  0.25868  0.00706  1.0000
  H   H1510     1.0  0.93329  0.38850  0.37718  1.0000
  C   C864      1.0  0.69628  0.47044  0.14845  1.0000
  H   H1511     1.0  0.72939  0.27904  0.07519  1.0000
  N   N46       1.0  0.74893  0.29240  0.01209  1.0000
  C   C865      1.0  0.53489  0.26738  0.00291  1.0000
  H   H1512     1.0  0.85924  0.46996  0.06884  1.0000
  N   N47       1.0  0.62025  0.43577  0.16510  1.0000
  H   H1513     1.0  0.87495  0.33963  0.04192  1.0000
  H   H1514     1.0  0.61543  0.46599  0.23500  1.0000
  H   H1515     1.0  0.53623  0.47021  0.03832  1.0000
  H   H1516     1.0  0.81420  0.31639  0.03078  1.0000
  H   H1517     1.0  0.80475  0.28827  0.04546  1.0000
  H   H1518     1.0  0.89692  0.43740  0.08354  1.0000
  H   H1519     1.0  0.89033  0.29762  0.09623  1.0000
  S   S192      1.0  0.51976  0.36327  0.12687  1.0000
  C   C866      1.0  0.95866  0.32604  0.04302  1.0000
  H   H1520     1.0  0.70755  0.30297  0.08374  1.0000
  H   H1521     1.0  0.88946  0.47934  0.06362  1.0000
  H   H1522     1.0  0.93353  0.25795  0.10957  1.0000
  H   H1523     1.0  0.58493  0.40197  0.20971  1.0000
  C   C867      1.0  0.82855  0.43045  0.10382  1.0000
  S   S193      1.0  0.79487  0.38119  0.99068  1.0000
  H   H1524     1.0  0.64478  0.44640  0.10385  1.0000
  C   C868      1.0  0.51151  0.33870  0.02698  1.0000
  H   H1525     1.0  0.77725  0.25652  0.21780  1.0000
  H   H1526     1.0  0.96100  0.47507  0.40950  1.0000
  C   C869      1.0  0.85277  0.43000  0.10496  1.0000
  H   H1527     1.0  0.93863  0.34613  0.39985  1.0000
  C   C870      1.0  0.66136  0.40389  0.17597  1.0000
  C   C871      1.0  0.89045  0.34532  0.05035  1.0000
  H   H1528     1.0  0.88196  0.26113  0.12575  1.0000
  H   H1529     1.0  0.85073  0.42007  0.12751  1.0000
  H   H1530     1.0  0.85752  0.42132  0.08877  1.0000
  H   H1531     1.0  0.92380  0.42618  0.10989  1.0000
  H   H1532     1.0  0.91693  0.34813  0.35462  1.0000
  H   H1533     1.0  0.83698  0.45412  0.99879  1.0000
  H   H1534     1.0  0.48374  0.46828  0.08164  1.0000
  H   H1535     1.0  0.56697  0.27471  0.01611  1.0000
  H   H1536     1.0  0.89075  0.33245  0.06798  1.0000
  H   H1537     1.0  0.97066  0.46355  0.35377  1.0000
  H   H1538     1.0  0.54718  0.44661  0.18483  1.0000
  N   N48       1.0  0.94825  0.37484  0.34450  1.0000
  H   H1539     1.0  0.76984  0.42217  0.02887  1.0000
  C   C872      1.0  0.92541  0.36396  0.33883  1.0000
  C   C873      1.0  0.53944  0.27670  0.10134  1.0000
  H   H1540     1.0  0.94218  0.41496  0.33869  1.0000
  S   S194      1.0  0.74151  0.47313  0.04141  1.0000
  H   H1541     1.0  0.59341  0.25023  0.18070  1.0000
  H   H1542     1.0  0.94863  0.35819  0.98253  1.0000
  C   C874      1.0  0.85515  0.26190  0.18063  1.0000
  H   H1543     1.0  0.63639  0.41721  0.14266  1.0000
  S   S195      1.0  0.57830  0.40723  0.09365  1.0000
  C   C875      1.0  0.62671  0.45595  0.14129  1.0000
  C   C876      1.0  0.72937  0.29642  0.03085  1.0000
  C   C877      1.0  0.76014  0.42366  0.07445  1.0000
  H   H1544     1.0  0.97731  0.43942  0.30159  1.0000
  S   S196      1.0  0.53685  0.41858  0.06739  1.0000
  H   H1545     1.0  0.55143  0.39659  0.18688  1.0000
  S   S197      1.0  0.94316  0.27051  0.98940  1.0000
  C   C878      1.0  0.51346  0.45521  0.10069  1.0000
  C   C879      1.0  0.89569  0.43552  0.12991  1.0000
  H   H1546     1.0  0.96742  0.39342  0.29926  1.0000
  C   C880      1.0  0.96285  0.36133  0.34186  1.0000
  C   C881      1.0  0.55375  0.26057  0.01429  1.0000
  C   C882      1.0  0.81095  0.40822  0.11205  1.0000
  C   C883      1.0  0.64404  0.41406  0.18624  1.0000
  C   C884      1.0  0.56312  0.45515  0.13712  1.0000
  C   C885      1.0  0.91217  0.35276  0.02459  1.0000
  H   H1547     1.0  0.90337  0.34809  0.28028  1.0000
  C   C886      1.0  0.59789  0.42108  0.16267  1.0000
  C   C887      1.0  0.61814  0.44095  0.19518  1.0000
  H   H1548     1.0  0.55637  0.43944  0.13460  1.0000
  H   H1549     1.0  0.79723  0.43918  0.05830  1.0000
  C   C888      1.0  0.59910  0.44997  0.20461  1.0000
  H   H1550     1.0  0.58185  0.43881  0.20600  1.0000
  H   H1551     1.0  0.61473  0.42703  0.21365  1.0000
  Fe  Fe94      1.0  0.55406  0.41475  0.02364  1.0000
  H   H1552     1.0  0.74633  0.42539  0.09101  1.0000
  C   C889      1.0  0.90222  0.35019  0.30339  1.0000
  H   H1553     1.0  0.89158  0.36003  0.30706  1.0000
  H   H1554     1.0  0.93289  0.44987  0.12223  1.0000
  H   H1555     1.0  0.49054  0.36925  0.08813  1.0000
  N   N49       1.0  0.89771  0.23861  0.11787  1.0000
  H   H1556     1.0  0.85536  0.33597  0.98328  1.0000
  H   H1557     1.0  0.81539  0.39958  0.09561  1.0000
  C   C890      1.0  0.57717  0.47152  0.11211  1.0000
  H   H1558     1.0  0.79079  0.28413  0.99911  1.0000
  H   H1559     1.0  0.82873  0.43851  0.08099  1.0000
  H   H1560     1.0  0.88397  0.46397  0.99292  1.0000
  H   H1561     1.0  0.76175  0.40835  0.08311  1.0000
  H   H1562     1.0  0.49649  0.32728  0.04469  1.0000
  S   S198      1.0  0.70693  0.45990  0.12043  1.0000
  H   H1563     1.0  0.88945  0.35821  0.06077  1.0000
  C   C891      1.0  0.78243  0.44087  0.07317  1.0000
  H   H1564     1.0  0.88023  0.28540  0.06792  1.0000
  H   H1565     1.0  0.59785  0.39018  0.18333  1.0000
  H   H1566     1.0  0.82239  0.43849  0.12007  1.0000
  C   C892      1.0  0.67677  0.48599  0.19354  1.0000
  C   C893      1.0  0.92638  0.36064  0.30684  1.0000
  H   H1567     1.0  0.93443  0.37564  0.28926  1.0000
  H   H1568     1.0  0.96914  0.36180  0.31784  1.0000
  H   H1569     1.0  0.56544  0.27950  0.06292  1.0000
  H   H1570     1.0  0.64768  0.47494  0.06340  1.0000
  H   H1571     1.0  0.70134  0.44949  0.18439  1.0000
  C   C894      1.0  0.96362  0.37115  0.23378  1.0000
  H   H1572     1.0  0.88302  0.41933  0.13746  1.0000
  C   C895      1.0  0.88933  0.25598  0.10650  1.0000
  H   H1573     1.0  0.47822  0.43756  0.12807  1.0000
  H   H1574     1.0  0.48327  0.46940  0.25507  1.0000
  C   C896      1.0  0.55780  0.45924  0.16539  1.0000
  S   S199      1.0  0.95795  0.37040  0.08818  1.0000
  H   H1575     1.0  0.96211  0.38674  0.00012  1.0000
  C   C897      1.0  0.60314  0.24151  0.19154  1.0000
  H   H1576     1.0  0.89256  0.44358  0.14767  1.0000
  H   H1577     1.0  0.95029  0.38815  0.20296  1.0000
  C   C898      1.0  0.94403  0.37855  0.37542  1.0000
  H   H1578     1.0  0.78514  0.43990  0.09604  1.0000
  H   H1579     1.0  0.86086  0.26612  0.98633  1.0000
  C   C899      1.0  0.56320  0.38768  0.18371  1.0000
  C   C900      1.0  0.53216  0.33116  0.02732  1.0000
  C   C901      1.0  0.89558  0.29217  0.07615  1.0000
  H   H1580     1.0  0.68481  0.46383  0.22429  1.0000
  H   H1581     1.0  0.90441  0.38057  0.01013  1.0000
  C   C902      1.0  0.72968  0.41835  0.01017  1.0000
  H   H1582     1.0  0.78151  0.45651  0.06459  1.0000
  H   H1583     1.0  0.62092  0.48580  0.98309  1.0000
  H   H1584     1.0  0.70729  0.37600  0.02309  1.0000
  H   H1585     1.0  0.55568  0.37253  0.20108  1.0000
  C   C903      1.0  0.74233  0.26980  0.01124  1.0000
  H   H1586     1.0  0.61654  0.44630  0.10216  1.0000
  H   H1587     1.0  0.61260  0.46242  0.14332  1.0000
  S   S200      1.0  0.55706  0.38426  0.04403  1.0000
  H   H1588     1.0  0.92739  0.35782  0.03366  1.0000
  H   H1589     1.0  0.50865  0.44932  0.08141  1.0000
  H   H1590     1.0  0.71263  0.40925  0.00770  1.0000
  H   H1591     1.0  0.55072  0.32188  0.05868  1.0000
  C   C904      1.0  0.82336  0.47716  0.01127  1.0000
  Fe  Fe95      1.0  0.57278  0.43545  0.06929  1.0000
  C   C905      1.0  0.49351  0.32392  0.12623  1.0000
  Fe  Fe96      1.0  0.54352  0.38990  0.08813  1.0000
  H   H1592     1.0  0.96739  0.42574  0.13091  1.0000
  H   H1593     1.0  0.50257  0.31832  0.14145  1.0000
  H   H1594     1.0  0.51974  0.31096  0.07289  1.0000
  H   H1595     1.0  0.79898  0.31170  0.98663  1.0000
  H   H1596     1.0  0.95248  0.34457  0.35279  1.0000
  Fe  Fe97      1.0  0.73531  0.24952  0.13160  1.0000
  C   C906      1.0  0.95226  0.33616  0.06472  1.0000
  H   H1597     1.0  0.62071  0.25542  0.05680  1.0000
  H   H1598     1.0  0.95147  0.36807  0.43339  1.0000
  H   H1599     1.0  0.51704  0.24658  0.07385  1.0000
  H   H1600     1.0  0.52813  0.24640  0.17632  1.0000
  H   H1601     1.0  0.54674  0.26840  0.11722  1.0000
  H   H1602     1.0  0.58151  0.25540  0.07494  1.0000
  C   C907      1.0  0.48433  0.34871  0.00190  1.0000
  C   C908      1.0  0.66329  0.41527  0.99289  1.0000
  C   C909      1.0  0.52210  0.48517  0.12293  1.0000
  H   H1603     1.0  0.70770  0.26487  0.05938  1.0000
  H   H1604     1.0  0.69079  0.27599  0.10216  1.0000
  H   H1605     1.0  0.81021  0.39952  0.13482  1.0000
  Fe  Fe98      1.0  0.72147  0.48356  0.07560  1.0000
  H   H1606     1.0  0.91334  0.37240  0.34377  1.0000
  C   C910      1.0  0.95197  0.39596  0.99129  1.0000
  C   C911      1.0  0.95119  0.24119  0.14953  1.0000
  H   H1607     1.0  0.87502  0.25025  0.09600  1.0000
  C   C912      1.0  0.48799  0.37066  0.00760  1.0000
  H   H1608     1.0  0.71611  0.29712  0.01838  1.0000
  C   C913      1.0  0.56689  0.47960  0.16856  1.0000
  C   C914      1.0  0.96101  0.39564  0.32171  1.0000
  H   H1609     1.0  0.90071  0.47906  0.12557  1.0000
  H   H1610     1.0  0.60204  0.46493  0.18860  1.0000
  H   H1611     1.0  0.89915  0.36308  0.98736  1.0000
  C   C915      1.0  0.53588  0.25009  0.07023  1.0000
  H   H1612     1.0  0.51527  0.41793  0.13312  1.0000
  C   C916      1.0  0.72079  0.26102  0.99962  1.0000
  H   H1613     1.0  0.96046  0.38771  0.37959  1.0000
  C   C917      1.0  0.91189  0.37044  0.99929  1.0000
  C   C918      1.0  0.69496  0.46206  0.17854  1.0000
  C   C919      1.0  0.49603  0.43918  0.12925  1.0000
  H   H1614     1.0  0.63126  0.48509  0.08874  1.0000
  C   C920      1.0  0.54560  0.28817  0.97886  1.0000
  H   H1615     1.0  0.79355  0.40862  0.11196  1.0000
  H   H1616     1.0  0.92687  0.37641  0.43495  1.0000
  H   H1617     1.0  0.53752  0.24053  0.09101  1.0000
  H   H1618     1.0  0.64131  0.47595  0.99562  1.0000
  C   C921      1.0  0.68794  0.48654  0.14095  1.0000
  H   H1619     1.0  0.61937  0.25305  0.19282  1.0000
  H   H1620     1.0  0.97681  0.40423  0.32768  1.0000
  N   N50       1.0  0.50531  0.34239  0.99738  1.0000
  H   H1621     1.0  0.48532  0.40646  0.15296  1.0000
  C   C922      1.0  0.81305  0.23934  0.06075  1.0000
  C   C923      1.0  0.97684  0.47098  0.40807  1.0000
  H   H1622     1.0  0.56299  0.48302  0.27493  1.0000
  C   C924      1.0  0.74782  0.41726  0.98392  1.0000
  H   H1623     1.0  0.83305  0.48004  0.02775  1.0000
  H   H1624     1.0  0.55420  0.30092  0.98859  1.0000
  H   H1625     1.0  0.85031  0.23953  0.22184  1.0000
  C   C925      1.0  0.49241  0.48000  0.09300  1.0000
  H   H1626     1.0  0.95945  0.40706  0.10912  1.0000
  H   H1627     1.0  0.56561  0.45769  0.99591  1.0000
  H   H1628     1.0  0.97155  0.45413  0.40847  1.0000
  H   H1629     1.0  0.95313  0.46985  0.46332  1.0000
  C   C926      1.0  0.53058  0.48378  0.03933  1.0000
  C   C927      1.0  0.84272  0.24393  0.20392  1.0000
  H   H1630     1.0  0.97344  0.41002  0.03438  1.0000
  H   H1631     1.0  0.96363  0.24739  0.12703  1.0000
  H   H1632     1.0  0.95218  0.25414  0.16062  1.0000
  H   H1633     1.0  0.55613  0.47038  0.31434  1.0000
  N   N51       1.0  0.51486  0.47766  0.09679  1.0000
  C   C928      1.0  0.97280  0.42163  0.10961  1.0000
  S   S201      1.0  0.54169  0.41917  0.98181  1.0000
  H   H1634     1.0  0.50859  0.47719  0.14425  1.0000
  C   C929      1.0  0.55966  0.48542  0.29791  1.0000
  H   H1635     1.0  0.97732  0.32844  0.19402  1.0000
  H   H1636     1.0  0.87309  0.47933  0.17074  1.0000
  C   C930      1.0  0.48683  0.35266  0.09609  1.0000
  H   H1637     1.0  0.97400  0.43437  0.09052  1.0000
  H   H1638     1.0  0.91569  0.25776  0.14347  1.0000
  H   H1639     1.0  0.49152  0.28010  0.98838  1.0000
  H   H1640     1.0  0.53703  0.48086  0.12686  1.0000
  H   H1641     1.0  0.52405  0.47996  0.30152  1.0000
  H   H1642     1.0  0.90093  0.48358  0.00803  1.0000
  H   H1643     1.0  0.87083  0.47950  0.01144  1.0000
  H   H1644     1.0  0.65940  0.48529  0.09175  1.0000
  C   C931      1.0  0.49965  0.32278  0.98639  1.0000
  H   H1645     1.0  0.49743  0.47965  0.21563  1.0000
  C   C932      1.0  0.83581  0.24132  0.06017  1.0000
  S   S202      1.0  0.56259  0.48492  0.20393  1.0000
  C   C933      1.0  0.87043  0.28138  0.83719  1.0000
  S   S203      1.0  0.89271  0.26483  0.74000  1.0000
  H   H1646     1.0  0.86773  0.31929  0.72115  1.0000
  S   S204      1.0  0.95232  0.28078  0.68462  1.0000
  S   S205      1.0  0.95572  0.26641  0.60854  1.0000
  C   C934      1.0  0.86638  0.30043  0.78753  1.0000
  C   C935      1.0  0.92742  0.30930  0.62314  1.0000
  H   H1647     1.0  0.90956  0.33410  0.66682  1.0000
  C   C936      1.0  0.55531  0.47182  0.91696  1.0000
  C   C937      1.0  0.54771  0.45080  0.93322  1.0000
  H   H1648     1.0  0.72669  0.41498  0.95185  1.0000
  H   H1649     1.0  0.62338  0.43289  0.92574  1.0000
  Fe  Fe99      1.0  0.97232  0.37642  0.57152  1.0000
  H   H1650     1.0  0.94749  0.40775  0.93559  1.0000
  H   H1651     1.0  0.53876  0.43861  0.92381  1.0000
  C   C938      1.0  0.93622  0.31881  0.72745  1.0000
  H   H1652     1.0  0.87386  0.29723  0.91976  1.0000
  C   C939      1.0  0.88561  0.35032  0.89838  1.0000
  H   H1653     1.0  0.92604  0.42267  0.96938  1.0000
  C   C940      1.0  0.76952  0.34172  0.94411  1.0000
  H   H1654     1.0  0.59457  0.42753  0.94763  1.0000
  H   H1655     1.0  0.86463  0.31504  0.77580  1.0000
  H   H1656     1.0  0.93811  0.33585  0.84040  1.0000
  H   H1657     1.0  0.92881  0.30647  0.71634  1.0000
  H   H1658     1.0  0.83933  0.27489  0.88674  1.0000
  C   C941      1.0  0.61879  0.45803  0.94503  1.0000
  H   H1659     1.0  0.90348  0.41211  0.91882  1.0000
  H   H1660     1.0  0.54044  0.35387  0.97032  1.0000
  H   H1661     1.0  0.92095  0.29176  0.83073  1.0000
  H   H1662     1.0  0.87665  0.34309  0.69134  1.0000
  C   C942      1.0  0.93110  0.29033  0.62500  1.0000
  C   C943      1.0  0.86548  0.30033  0.82033  1.0000
  C   C944      1.0  0.89801  0.30051  0.86384  1.0000
  C   C945      1.0  0.86519  0.35401  0.90774  1.0000
  C   C946      1.0  0.89551  0.25506  0.86804  1.0000
  C   C947      1.0  0.91350  0.42307  0.93008  1.0000
  H   H1663     1.0  0.92135  0.27721  0.64418  1.0000
  H   H1664     1.0  0.88287  0.29950  0.77589  1.0000
  C   C948      1.0  0.94023  0.32100  0.83741  1.0000
  H   H1665     1.0  0.91251  0.26522  0.86940  1.0000
  H   H1666     1.0  0.94753  0.43192  0.51692  1.0000
  H   H1667     1.0  0.61445  0.46542  0.92486  1.0000
  H   H1668     1.0  0.92489  0.43560  0.50028  1.0000
  H   H1669     1.0  0.93037  0.43308  0.91426  1.0000
  H   H1670     1.0  0.89488  0.31538  0.86432  1.0000
  C   C949      1.0  0.61316  0.43485  0.94623  1.0000
  H   H1671     1.0  0.61687  0.42664  0.96638  1.0000
  Fe  Fe100     1.0  0.92604  0.31078  0.93881  1.0000
  H   H1672     1.0  0.76844  0.30223  0.96550  1.0000
  H   H1673     1.0  0.90493  0.29717  0.88368  1.0000
  Fe  Fe101     1.0  0.92211  0.25595  0.71880  1.0000
  C   C950      1.0  0.90178  0.32745  0.69131  1.0000
  H   H1674     1.0  0.91333  0.31322  0.81506  1.0000
  C   C951      1.0  0.85425  0.34885  0.93832  1.0000
  C   C952      1.0  0.54272  0.38463  0.92283  1.0000
  N   N52       1.0  0.87581  0.28296  0.86696  1.0000
  C   C953      1.0  0.94781  0.28853  0.60261  1.0000
  H   H1675     1.0  0.93816  0.34120  0.76925  1.0000
  H   H1676     1.0  0.51821  0.35365  0.93211  1.0000
  H   H1677     1.0  0.90495  0.33640  0.73240  1.0000
  H   H1678     1.0  0.78776  0.46652  0.95297  1.0000
  H   H1679     1.0  0.64956  0.45880  0.96049  1.0000
  H   H1680     1.0  0.89581  0.25513  0.84434  1.0000
  Fe  Fe102     1.0  0.97365  0.26609  0.70747  1.0000
  H   H1681     1.0  0.89395  0.35432  0.87467  1.0000
  H   H1682     1.0  0.85190  0.28703  0.78620  1.0000
  C   C954      1.0  0.52156  0.36660  0.94332  1.0000
  S   S206      1.0  0.93942  0.35134  0.60023  1.0000
  H   H1683     1.0  0.84057  0.29647  0.95604  1.0000
  C   C955      1.0  0.87550  0.24782  0.77473  1.0000
  H   H1684     1.0  0.87785  0.31537  0.82106  1.0000
  C   C956      1.0  0.91769  0.30578  0.83509  1.0000
  C   C957      1.0  0.56302  0.46147  0.97372  1.0000
  Fe  Fe103     1.0  0.94279  0.27420  0.94106  1.0000
  C   C958      1.0  0.85611  0.28680  0.88588  1.0000
  C   C959      1.0  0.86389  0.34011  0.95963  1.0000
  C   C960      1.0  0.89478  0.34081  0.91949  1.0000
  H   H1685     1.0  0.54636  0.39834  0.93254  1.0000
  S   S207      1.0  0.91942  0.33510  0.90652  1.0000
  C   C961      1.0  0.93080  0.39694  0.95113  1.0000
  C   C962      1.0  0.85279  0.24681  0.78425  1.0000
  C   C963      1.0  0.96697  0.37890  0.93868  1.0000
  H   H1686     1.0  0.50677  0.37210  0.94505  1.0000
  C   C964      1.0  0.83854  0.29487  0.93346  1.0000
  H   H1687     1.0  0.88439  0.27889  0.82186  1.0000
  Fe  Fe104     1.0  0.94993  0.25670  0.65838  1.0000
  H   H1688     1.0  0.96972  0.25589  0.82009  1.0000
  C   C965      1.0  0.87630  0.26222  0.88284  1.0000
  S   S208      1.0  0.81430  0.43974  0.95445  1.0000
  H   H1689     1.0  0.91487  0.31064  0.64088  1.0000
  H   H1690     1.0  0.85543  0.30226  0.87550  1.0000
  C   C966      1.0  0.87700  0.32700  0.69723  1.0000
  S   S209      1.0  0.71431  0.47074  0.97523  1.0000
  C   C967      1.0  0.91684  0.41097  0.95864  1.0000
  H   H1691     1.0  0.85769  0.36065  0.89126  1.0000
  C   C968      1.0  0.94064  0.32661  0.59908  1.0000
  C   C969      1.0  0.88394  0.33569  0.95016  1.0000
  C   C970      1.0  0.85681  0.28700  0.91879  1.0000
  C   C971      1.0  0.95790  0.31524  0.73463  1.0000
  H   H1692     1.0  0.65406  0.46836  0.92151  1.0000
  H   H1693     1.0  0.96835  0.32794  0.74281  1.0000
  H   H1694     1.0  0.85501  0.26721  0.84050  1.0000
  H   H1695     1.0  0.72483  0.26743  0.97493  1.0000
  H   H1696     1.0  0.91713  0.35749  0.69938  1.0000
  H   H1697     1.0  0.94304  0.29666  0.78101  1.0000
  C   C972      1.0  0.74354  0.42517  0.95363  1.0000
  S   S210      1.0  0.96124  0.30877  0.92814  1.0000
  H   H1698     1.0  0.86789  0.31795  0.68314  1.0000
  H   H1699     1.0  0.84792  0.29958  0.83102  1.0000
  H   H1700     1.0  0.85937  0.24965  0.88620  1.0000
  H   H1701     1.0  0.92170  0.38703  0.93773  1.0000
  H   H1702     1.0  0.90379  0.43327  0.93601  1.0000
  H   H1703     1.0  0.53956  0.38944  0.90052  1.0000
  H   H1704     1.0  0.85310  0.27102  0.93264  1.0000
  C   C973      1.0  0.95592  0.32425  0.57540  1.0000
  H   H1705     1.0  0.55206  0.47576  0.89514  1.0000
  C   C974      1.0  0.95959  0.30521  0.57718  1.0000
  H   H1706     1.0  0.94576  0.31406  0.85678  1.0000
  H   H1707     1.0  0.55805  0.37984  0.91965  1.0000
  C   C975      1.0  0.79767  0.46941  0.96927  1.0000
  S   S211      1.0  0.82713  0.35091  0.94904  1.0000
  H   H1708     1.0  0.93896  0.28183  0.75349  1.0000
  H   H1709     1.0  0.84586  0.25586  0.76974  1.0000
  H   H1710     1.0  0.53205  0.29211  0.96966  1.0000
  H   H1711     1.0  0.90116  0.31107  0.69737  1.0000
  H   H1712     1.0  0.78311  0.33774  0.93042  1.0000
  S   S212      1.0  0.97406  0.39623  0.52720  1.0000
  H   H1713     1.0  0.77621  0.35879  0.94211  1.0000
  H   H1714     1.0  0.96674  0.29110  0.76096  1.0000
  C   C976      1.0  0.64453  0.46886  0.94352  1.0000
  C   C977      1.0  0.93903  0.42920  0.49853  1.0000
  H   H1715     1.0  0.95394  0.32456  0.81659  1.0000
  H   H1716     1.0  0.82100  0.28374  0.93597  1.0000
  H   H1717     1.0  0.69233  0.47903  0.92590  1.0000
  H   H1718     1.0  0.74379  0.44148  0.95074  1.0000
  C   C978      1.0  0.94059  0.35636  0.75400  1.0000
  H   H1719     1.0  0.94717  0.35453  0.66083  1.0000
  H   H1720     1.0  0.69659  0.43158  0.96177  1.0000
  H   H1721     1.0  0.75735  0.42505  0.93524  1.0000
  H   H1722     1.0  0.94629  0.32833  0.66936  1.0000
  C   C979      1.0  0.95119  0.29497  0.75903  1.0000
  H   H1723     1.0  0.55840  0.28711  0.96005  1.0000
  H   H1724     1.0  0.95343  0.37290  0.70668  1.0000
  S   S213      1.0  0.94382  0.24318  0.74396  1.0000
  H   H1725     1.0  0.93154  0.41205  0.50152  1.0000
  C   C980      1.0  0.95192  0.34322  0.67626  1.0000
  H   H1726     1.0  0.87893  0.26255  0.90551  1.0000
  H   H1727     1.0  0.60742  0.45923  0.96496  1.0000
  C   C981      1.0  0.95183  0.35756  0.72103  1.0000
  S   S214      1.0  0.90771  0.27636  0.94678  1.0000
  S   S215      1.0  0.95036  0.25181  0.91567  1.0000
  H   H1728     1.0  0.92364  0.35832  0.75594  1.0000
  H   H1729     1.0  0.97750  0.29342  0.81225  1.0000
  H   H1730     1.0  0.75412  0.33804  0.93502  1.0000
  C   C982      1.0  0.55148  0.44558  0.96169  1.0000
  C   C983      1.0  0.91579  0.34111  0.70894  1.0000
  H   H1731     1.0  0.93163  0.35753  0.95613  1.0000
  H   H1732     1.0  0.49266  0.32510  0.96640  1.0000
  H   H1733     1.0  0.96875  0.31366  0.71439  1.0000
  H   H1734     1.0  0.92314  0.31482  0.74910  1.0000
  H   H1735     1.0  0.96501  0.33711  0.55578  1.0000
  N   N53       1.0  0.93944  0.34009  0.70855  1.0000
  C   C984      1.0  0.52559  0.35928  0.97457  1.0000
  H   H1736     1.0  0.96459  0.35175  0.92129  1.0000
  H   H1737     1.0  0.84037  0.31042  0.91989  1.0000
  C   C985      1.0  0.81247  0.45847  0.97424  1.0000
  H   H1738     1.0  0.97214  0.30369  0.55949  1.0000
  S   S216      1.0  0.85146  0.40385  0.96723  1.0000
  H   H1739     1.0  0.96346  0.38685  0.91821  1.0000
  C   C986      1.0  0.57100  0.48245  0.95717  1.0000
  S   S217      1.0  0.97426  0.24425  0.67793  1.0000
  H   H1740     1.0  0.97350  0.46560  0.48303  1.0000
  C   C987      1.0  0.97697  0.36289  0.92979  1.0000
  H   H1741     1.0  0.73994  0.30207  0.97085  1.0000
  H   H1742     1.0  0.89085  0.32820  0.96657  1.0000
  C   C988      1.0  0.94457  0.36835  0.96459  1.0000
  H   H1743     1.0  0.96982  0.35855  0.71997  1.0000
  H   H1744     1.0  0.94700  0.37253  0.78869  1.0000
  C   C989      1.0  0.95563  0.37358  0.76524  1.0000
  H   H1745     1.0  0.89942  0.40155  0.97330  1.0000
  H   H1746     1.0  0.95840  0.38924  0.75098  1.0000
  H   H1747     1.0  0.96492  0.40979  0.97396  1.0000
  C   C990      1.0  0.76337  0.32972  0.97707  1.0000
  N   N54       1.0  0.93474  0.38322  0.97717  1.0000
  H   H1748     1.0  0.97255  0.37183  0.76508  1.0000
  Fe  Fe105     1.0  0.95801  0.30536  0.97747  1.0000
  H   H1749     1.0  0.51548  0.31940  0.97835  1.0000
  C   C991      1.0  0.57943  0.70617  0.45252  1.0000
  S   S218      1.0  0.50223  0.55255  0.40815  1.0000
  S   S219      1.0  0.62722  0.51048  0.16947  1.0000
  Fe  Fe106     1.0  0.49176  0.56883  0.37058  1.0000
  C   C992      1.0  0.53362  0.49050  0.06857  1.0000
  S   S220      1.0  0.52429  0.57511  0.33609  1.0000
  Fe  Fe107     1.0  0.62310  0.54694  0.22164  1.0000
  C   C993      1.0  0.59241  0.59497  0.14902  1.0000
  H   H1750     1.0  0.59041  0.66251  0.40863  1.0000
  H   H1751     1.0  0.68629  0.62062  0.14473  1.0000
  N   N55       1.0  0.73131  0.55632  0.12791  1.0000
  H   H1752     1.0  0.58382  0.60850  0.18472  1.0000
  C   C994      1.0  0.55808  0.66819  0.27617  1.0000
  H   H1753     1.0  0.58613  0.63784  0.45225  1.0000
  H   H1754     1.0  0.61481  0.58536  0.35875  1.0000
  H   H1755     1.0  0.60705  0.70434  0.33588  1.0000
  H   H1756     1.0  0.75539  0.54021  0.12054  1.0000
  C   C995      1.0  0.55053  0.68498  0.26888  1.0000
  H   H1757     1.0  0.58737  0.51166  0.14552  1.0000
  C   C996      1.0  0.59683  0.57724  0.29379  1.0000
  C   C997      1.0  0.73033  0.57789  0.12640  1.0000
  H   H1758     1.0  0.62938  0.66144  0.36396  1.0000
  H   H1759     1.0  0.60777  0.68497  0.37983  1.0000
  S   S221      1.0  0.55971  0.63394  0.31327  1.0000
  C   C998      1.0  0.58985  0.55130  0.08554  1.0000
  H   H1760     1.0  0.72947  0.58514  0.10355  1.0000
  Fe  Fe108     1.0  0.64405  0.51507  0.20691  1.0000
  H   H1761     1.0  0.67168  0.60639  0.06523  1.0000
  H   H1762     1.0  0.52246  0.64432  0.34615  1.0000
  H   H1763     1.0  0.51521  0.54578  0.25782  1.0000
  C   C999      1.0  0.53024  0.65555  0.32456  1.0000
  H   H1764     1.0  0.58561  0.50234  0.47154  1.0000
  H   H1765     1.0  0.55192  0.51388  0.25895  1.0000
  S   S222      1.0  0.52122  0.71010  0.36436  1.0000
  H   H1766     1.0  0.57188  0.66674  0.26028  1.0000
  H   H1767     1.0  0.52801  0.67879  0.41749  1.0000
  H   H1768     1.0  0.65360  0.55937  0.05187  1.0000
  C   C1000     1.0  0.54807  0.65350  0.30403  1.0000
  H   H1769     1.0  0.49564  0.49547  0.07759  1.0000
  C   C1001     1.0  0.60146  0.57262  0.40699  1.0000
  C   C1002     1.0  0.58862  0.71392  0.30529  1.0000
  H   H1770     1.0  0.61441  0.56487  0.40763  1.0000
  H   H1771     1.0  0.66149  0.63526  0.04570  1.0000
  C   C1003     1.0  0.50704  0.64640  0.43078  1.0000
  H   H1772     1.0  0.72537  0.55522  0.08424  1.0000
  H   H1773     1.0  0.65174  0.61375  0.12514  1.0000
  H   H1774     1.0  0.66197  0.65392  0.12279  1.0000
  H   H1775     1.0  0.89070  0.50530  0.14820  1.0000
  H   H1776     1.0  0.57539  0.70026  0.47731  1.0000
  H   H1777     1.0  0.55280  0.67890  0.45042  1.0000
  H   H1778     1.0  0.60325  0.72842  0.29254  1.0000
  C   C1004     1.0  0.62442  0.63716  0.13450  1.0000
  H   H1779     1.0  0.64923  0.65745  0.07512  1.0000
  C   C1005     1.0  0.69230  0.54632  0.11301  1.0000
  H   H1780     1.0  0.71711  0.53026  0.10946  1.0000
  C   C1006     1.0  0.64946  0.60646  0.14913  1.0000
  H   H1781     1.0  0.62876  0.62723  0.22655  1.0000
  H   H1782     1.0  0.67138  0.59800  0.17643  1.0000
  H   H1783     1.0  0.63680  0.59031  0.15531  1.0000
  Fe  Fe109     1.0  0.73357  0.52595  0.03250  1.0000
  H   H1784     1.0  0.57755  0.64401  0.36842  1.0000
  H   H1785     1.0  0.51792  0.51566  0.10858  1.0000
  S   S223      1.0  0.55427  0.53882  0.37221  1.0000
  H   H1786     1.0  0.66087  0.53015  0.10129  1.0000
  C   C1007     1.0  0.57557  0.54889  0.33830  1.0000
  C   C1008     1.0  0.58570  0.53591  0.32622  1.0000
  C   C1009     1.0  0.60075  0.54340  0.29736  1.0000
  H   H1787     1.0  0.58130  0.51990  0.33871  1.0000
  H   H1788     1.0  0.61512  0.63700  0.99732  1.0000
  S   S224      1.0  0.72789  0.55663  0.02597  1.0000
  H   H1789     1.0  0.52454  0.49124  0.24534  1.0000
  H   H1790     1.0  0.58506  0.63863  0.23803  1.0000
  C   C1010     1.0  0.52657  0.66495  0.40844  1.0000
  H   H1791     1.0  0.68200  0.53873  0.13631  1.0000
  H   H1792     1.0  0.66373  0.68233  0.08146  1.0000
  C   C1011     1.0  0.87686  0.49069  0.14877  1.0000
  C   C1012     1.0  0.50426  0.50501  0.27318  1.0000
  C   C1013     1.0  0.58065  0.49585  0.14342  1.0000
  C   C1014     1.0  0.59366  0.54511  0.46533  1.0000
  H   H1793     1.0  0.62596  0.62775  0.11808  1.0000
  C   C1015     1.0  0.72116  0.53236  0.21418  1.0000
  C   C1016     1.0  0.60227  0.63921  0.24105  1.0000
  H   H1794     1.0  0.60014  0.55605  0.12569  1.0000
  H   H1795     1.0  0.61384  0.65577  0.23566  1.0000
  N   N56       1.0  0.52291  0.52035  0.28225  1.0000
  C   C1017     1.0  0.53347  0.68762  0.28979  1.0000
  C   C1018     1.0  0.51372  0.52345  0.31275  1.0000
  C   C1019     1.0  0.53047  0.54113  0.25937  1.0000
  H   H1796     1.0  0.56359  0.50555  0.01064  1.0000
  H   H1797     1.0  0.76463  0.58267  0.07649  1.0000
  C   C1020     1.0  0.59127  0.67150  0.38604  1.0000
  C   C1021     1.0  0.54928  0.55944  0.26503  1.0000
  H   H1798     1.0  0.55838  0.61095  0.43545  1.0000
  C   C1022     1.0  0.67978  0.53514  0.09234  1.0000
  H   H1799     1.0  0.51074  0.64361  0.45317  1.0000
  H   H1800     1.0  0.70443  0.69757  0.99502  1.0000
  C   C1023     1.0  0.54852  0.58061  0.25018  1.0000
  C   C1024     1.0  0.56972  0.68790  0.35631  1.0000
  H   H1801     1.0  0.69408  0.63088  0.05931  1.0000
  H   H1802     1.0  0.52793  0.52838  0.32390  1.0000
  H   H1803     1.0  0.50686  0.53650  0.31024  1.0000
  H   H1804     1.0  0.55154  0.58288  0.22552  1.0000
  H   H1805     1.0  0.55849  0.69637  0.24738  1.0000
  H   H1806     1.0  0.59823  0.66655  0.34057  1.0000
  H   H1807     1.0  0.55706  0.52546  0.28843  1.0000
  C   C1025     1.0  0.57002  0.57605  0.16106  1.0000
  H   H1808     1.0  0.55479  0.53051  0.44832  1.0000
  S   S225      1.0  0.80431  0.50497  0.02843  1.0000
  H   H1809     1.0  0.59174  0.72084  0.34722  1.0000
  H   H1810     1.0  0.56655  0.55899  0.25557  1.0000
  H   H1811     1.0  0.54754  0.55863  0.28916  1.0000
  H   H1812     1.0  0.72212  0.69797  0.02107  1.0000
  C   C1026     1.0  0.52992  0.60557  0.47295  1.0000
  H   H1813     1.0  0.49081  0.64977  0.43334  1.0000
  H   H1814     1.0  0.53508  0.50720  0.06422  1.0000
  H   H1815     1.0  0.66629  0.51024  0.99587  1.0000
  H   H1816     1.0  0.60222  0.64302  0.18399  1.0000
  C   C1027     1.0  0.61686  0.63781  0.18727  1.0000
  C   C1028     1.0  0.79375  0.57277  0.07731  1.0000
  H   H1817     1.0  0.61276  0.55097  0.46136  1.0000
  C   C1029     1.0  0.61266  0.64861  0.36808  1.0000
  H   H1818     1.0  0.51173  0.50821  0.16428  1.0000
  H   H1819     1.0  0.53160  0.58179  0.25948  1.0000
  C   C1030     1.0  0.53359  0.73034  0.43730  1.0000
  H   H1820     1.0  0.71581  0.66077  0.02722  1.0000
  C   C1031     1.0  0.57117  0.68790  0.43865  1.0000
  C   C1032     1.0  0.64139  0.61892  0.17019  1.0000
  C   C1033     1.0  0.59071  0.70737  0.33729  1.0000
  H   H1821     1.0  0.75069  0.55171  0.17860  1.0000
  H   H1822     1.0  0.76140  0.55783  0.06900  1.0000
  H   H1823     1.0  0.68869  0.66505  0.03545  1.0000
  H   H1824     1.0  0.49003  0.51112  0.27144  1.0000
  H   H1825     1.0  0.80149  0.58370  0.09021  1.0000
  H   H1826     1.0  0.55079  0.49047  0.07138  1.0000
  H   H1827     1.0  0.62828  0.60206  0.38042  1.0000
  H   H1828     1.0  0.56679  0.67582  0.34354  1.0000
  C   C1034     1.0  0.63326  0.50769  0.02111  1.0000
  C   C1035     1.0  0.61166  0.59113  0.37915  1.0000
  H   H1829     1.0  0.68873  0.49271  0.11775  1.0000
  C   C1036     1.0  0.75081  0.59427  0.13264  1.0000
  H   H1830     1.0  0.79746  0.55813  0.08334  1.0000
  H   H1831     1.0  0.59833  0.71427  0.44378  1.0000
  C   C1037     1.0  0.54502  0.50148  0.01147  1.0000
  H   H1832     1.0  0.50970  0.67458  0.33366  1.0000
  H   H1833     1.0  0.65242  0.64382  0.01409  1.0000
  Fe  Fe110     1.0  0.59589  0.55433  0.98502  1.0000
  C   C1038     1.0  0.76779  0.56792  0.08362  1.0000
  C   C1039     1.0  0.69236  0.61924  0.01840  1.0000
  S   S226      1.0  0.66467  0.49575  0.22174  1.0000
  C   C1040     1.0  0.54355  0.51379  0.28210  1.0000
  C   C1041     1.0  0.48869  0.50966  0.36639  1.0000
  C   C1042     1.0  0.74495  0.61346  0.13698  1.0000
  H   H1834     1.0  0.75596  0.58809  0.15264  1.0000
  H   H1835     1.0  0.64480  0.59736  0.03724  1.0000
  H   H1836     1.0  0.76667  0.56364  0.13093  1.0000
  C   C1043     1.0  0.59634  0.57986  0.43613  1.0000
  S   S227      1.0  0.74950  0.51435  0.06813  1.0000
  H   H1837     1.0  0.59967  0.59972  0.37678  1.0000
  H   H1838     1.0  0.63791  0.60916  0.19336  1.0000
  H   H1839     1.0  0.62554  0.55223  0.02099  1.0000
  S   S228      1.0  0.50991  0.58581  0.46339  1.0000
  H   H1840     1.0  0.59163  0.70770  0.39505  1.0000
  C   C1044     1.0  0.65876  0.63169  0.02433  1.0000
  H   H1841     1.0  0.57236  0.71705  0.30546  1.0000
  C   C1045     1.0  0.52941  0.51465  0.14925  1.0000
  C   C1046     1.0  0.57413  0.69557  0.40440  1.0000
  H   H1842     1.0  0.73054  0.53698  0.23110  1.0000
  C   C1047     1.0  0.73202  0.54900  0.18428  1.0000
  C   C1048     1.0  0.72078  0.54217  0.15937  1.0000
  C   C1049     1.0  0.54930  0.66035  0.40301  1.0000
  C   C1050     1.0  0.60590  0.56393  0.28091  1.0000
  H   H1843     1.0  0.60612  0.58993  0.13808  1.0000
  H   H1844     1.0  0.67742  0.59476  0.13894  1.0000
  H   H1845     1.0  0.54182  0.49655  0.99098  1.0000
  H   H1846     1.0  0.60820  0.53326  0.28776  1.0000
  C   C1051     1.0  0.60567  0.55502  0.10305  1.0000
  Fe  Fe111     1.0  0.53681  0.60516  0.34941  1.0000
  H   H1847     1.0  0.51951  0.51296  0.22392  1.0000
  H   H1848     1.0  0.63204  0.65233  0.18242  1.0000
  N   N57       1.0  0.68089  0.63308  0.00381  1.0000
  H   H1849     1.0  0.67025  0.50558  0.15784  1.0000
  C   C1052     1.0  0.63864  0.61053  0.03222  1.0000
  H   H1850     1.0  0.60906  0.64158  0.13274  1.0000
  H   H1851     1.0  0.74038  0.62064  0.11685  1.0000
  H   H1852     1.0  0.59637  0.50459  0.09593  1.0000
  H   H1853     1.0  0.57074  0.71749  0.44735  1.0000
  N   N58       1.0  0.57104  0.67887  0.38742  1.0000
  H   H1854     1.0  0.60041  0.59260  0.19222  1.0000
  H   H1855     1.0  0.60825  0.63827  0.39105  1.0000
  C   C1053     1.0  0.53898  0.49245  0.30383  1.0000
  H   H1856     1.0  0.72913  0.56335  0.18820  1.0000
  S   S229      1.0  0.62225  0.57285  0.24356  1.0000
  S   S230      1.0  0.50304  0.60010  0.38085  1.0000
  H   H1857     1.0  0.68546  0.60322  0.01522  1.0000
  C   C1054     1.0  0.67256  0.60492  0.15257  1.0000
  S   S231      1.0  0.64911  0.56584  0.11102  1.0000
  C   C1055     1.0  0.75547  0.55655  0.11721  1.0000
  Fe  Fe112     1.0  0.59588  0.50979  0.20161  1.0000
  C   C1056     1.0  0.55907  0.55603  0.47184  1.0000
  H   H1858     1.0  0.70250  0.60212  0.08793  1.0000
  H   H1859     1.0  0.57400  0.57988  0.33172  1.0000
  H   H1860     1.0  0.64516  0.66894  0.13568  1.0000
  S   S232      1.0  0.61205  0.51219  0.24017  1.0000
  Fe  Fe113     1.0  0.51669  0.58430  0.41554  1.0000
  H   H1861     1.0  0.56659  0.56821  0.14291  1.0000
  H   H1862     1.0  0.65618  0.63321  0.16841  1.0000
  H   H1863     1.0  0.60013  0.63185  0.26506  1.0000
  S   S233      1.0  0.65663  0.55009  0.19172  1.0000
  H   H1864     1.0  0.68400  0.52109  0.09013  1.0000
  Fe  Fe114     1.0  0.63614  0.54517  0.15777  1.0000
  Fe  Fe115     1.0  0.53598  0.56162  0.37483  1.0000
  C   C1057     1.0  0.62876  0.55837  0.09067  1.0000
  S   S234      1.0  0.52613  0.71002  0.28086  1.0000
  C   C1058     1.0  0.64801  0.66805  0.08988  1.0000
  S   S235      1.0  0.60338  0.54414  0.18663  1.0000
  H   H1865     1.0  0.68459  0.54584  0.06966  1.0000
  H   H1866     1.0  0.55075  0.65232  0.42497  1.0000
  C   C1059     1.0  0.52318  0.67280  0.31761  1.0000
  C   C1060     1.0  0.61970  0.60859  0.05924  1.0000
  H   H1867     1.0  0.60093  0.59318  0.28127  1.0000
  H   H1868     1.0  0.71403  0.57668  0.14192  1.0000
  S   S236      1.0  0.55154  0.59215  0.38529  1.0000
  H   H1869     1.0  0.61452  0.62257  0.05602  1.0000
  H   H1870     1.0  0.55534  0.58108  0.16871  1.0000
  H   H1871     1.0  0.52342  0.72177  0.42447  1.0000
  H   H1872     1.0  0.72074  0.52610  0.15944  1.0000
  S   S237      1.0  0.57743  0.54716  0.03366  1.0000
  C   C1061     1.0  0.58150  0.56967  0.32235  1.0000
  H   H1873     1.0  0.49821  0.49039  0.33933  1.0000
  C   C1062     1.0  0.49395  0.50481  0.33589  1.0000
  C   C1063     1.0  0.59701  0.55043  0.05588  1.0000
  C   C1064     1.0  0.71735  0.54651  0.10797  1.0000
  H   H1874     1.0  0.73029  0.60908  0.15704  1.0000
  H   H1875     1.0  0.57107  0.56461  0.18014  1.0000
  H   H1876     1.0  0.61444  0.63925  0.35156  1.0000
  C   C1065     1.0  0.61235  0.62735  0.22124  1.0000
  H   H1877     1.0  0.70042  0.58887  0.05846  1.0000
  C   C1066     1.0  0.64601  0.65743  0.12242  1.0000
  H   H1878     1.0  0.62929  0.49260  0.03736  1.0000
  H   H1879     1.0  0.52144  0.66764  0.38705  1.0000
  H   H1880     1.0  0.59043  0.53821  0.44634  1.0000
  H   H1881     1.0  0.60035  0.61096  0.22784  1.0000
  N   N59       1.0  0.62070  0.62451  0.16609  1.0000
  H   H1882     1.0  0.68948  0.56961  0.02146  1.0000
  H   H1883     1.0  0.57231  0.54996  0.09458  1.0000
  C   C1067     1.0  0.59920  0.60507  0.17451  1.0000
  C   C1068     1.0  0.52188  0.53158  0.46633  1.0000
  H   H1884     1.0  0.53777  0.54008  0.23652  1.0000
  H   H1885     1.0  0.63285  0.67273  0.08834  1.0000
  C   C1069     1.0  0.63584  0.55706  0.06126  1.0000
  H   H1886     1.0  0.72347  0.61358  0.05206  1.0000
  C   C1070     1.0  0.59368  0.65745  0.36433  1.0000
  H   H1887     1.0  0.73149  0.69345  0.98504  1.0000
  H   H1888     1.0  0.54673  0.64841  0.38990  1.0000
  H   H1889     1.0  0.69240  0.56252  0.10803  1.0000
  Fe  Fe116     1.0  0.51256  0.71999  0.32110  1.0000
  C   C1071     1.0  0.61997  0.55306  0.04382  1.0000
  H   H1890     1.0  0.70246  0.54039  0.16735  1.0000
  Fe  Fe117     1.0  0.76841  0.50462  0.03148  1.0000
  H   H1891     1.0  0.58915  0.60610  0.13161  1.0000
  H   H1892     1.0  0.64162  0.52058  0.03073  1.0000
  C   C1072     1.0  0.68971  0.61599  0.05271  1.0000
  H   H1893     1.0  0.56195  0.59324  0.25504  1.0000
  H   H1894     1.0  0.62573  0.60664  0.08004  1.0000
  C   C1073     1.0  0.70504  0.60446  0.06331  1.0000
  H   H1895     1.0  0.76006  0.62525  0.14040  1.0000
  H   H1896     1.0  0.60436  0.59467  0.06177  1.0000
  H   H1897     1.0  0.76619  0.59968  0.11334  1.0000
  H   H1898     1.0  0.61338  0.59047  0.43698  1.0000
  H   H1899     1.0  0.53588  0.53190  0.14536  1.0000
  H   H1900     1.0  0.80183  0.58018  0.05297  1.0000
  H   H1901     1.0  0.55453  0.69270  0.35742  1.0000
  H   H1902     1.0  0.56218  0.70424  0.40118  1.0000
  H   H1903     1.0  0.48386  0.52384  0.36413  1.0000
  C   C1074     1.0  0.52936  0.50906  0.11921  1.0000
  C   C1075     1.0  0.55278  0.61522  0.45575  1.0000
  H   H1904     1.0  0.58577  0.56155  0.40396  1.0000
  H   H1905     1.0  0.50390  0.51223  0.37591  1.0000
  H   H1906     1.0  0.54710  0.51668  0.10448  1.0000
  H   H1907     1.0  0.55332  0.56973  0.46922  1.0000
  H   H1908     1.0  0.58126  0.67775  0.44322  1.0000
  H   H1909     1.0  0.70296  0.53080  0.22273  1.0000
  H   H1910     1.0  0.48069  0.49233  0.13053  1.0000
  H   H1911     1.0  0.54965  0.55311  0.42983  1.0000
  H   H1912     1.0  0.50461  0.63206  0.42264  1.0000
  C   C1076     1.0  0.69507  0.56566  0.00093  1.0000
  C   C1077     1.0  0.56842  0.63041  0.46518  1.0000
  H   H1913     1.0  0.54085  0.50840  0.16043  1.0000
  S   S238      1.0  0.75499  0.51878  0.99506  1.0000
  H   H1914     1.0  0.58590  0.59001  0.43258  1.0000
  N   N60       1.0  0.58497  0.56307  0.46549  1.0000
  H   H1915     1.0  0.51333  0.54307  0.46961  1.0000
  C   C1078     1.0  0.51183  0.49913  0.24348  1.0000
  H   H1916     1.0  0.72184  0.51696  0.21168  1.0000
  H   H1917     1.0  0.54031  0.51560  0.01154  1.0000
  C   C1079     1.0  0.67765  0.49391  0.16355  1.0000
  C   C1080     1.0  0.71621  0.69035  0.00370  1.0000
  C   C1081     1.0  0.52786  0.72295  0.46870  1.0000
  C   C1082     1.0  0.54763  0.54276  0.45196  1.0000
  H   H1918     1.0  0.61674  0.50887  0.01773  1.0000
  C   C1083     1.0  0.71392  0.55896  0.99716  1.0000
  H   H1919     1.0  0.71107  0.62511  0.00696  1.0000
  H   H1920     1.0  0.48739  0.73181  0.45541  1.0000
  C   C1084     1.0  0.58574  0.49184  0.11531  1.0000
  C   C1085     1.0  0.70372  0.66687  0.01740  1.0000
  H   H1921     1.0  0.58897  0.70148  0.29361  1.0000
  Fe  Fe118     1.0  0.48461  0.70510  0.38521  1.0000
  H   H1922     1.0  0.63082  0.60910  0.01297  1.0000
  H   H1923     1.0  0.51400  0.52244  0.45146  1.0000
  H   H1924     1.0  0.59535  0.60509  0.47183  1.0000
  S   S239      1.0  0.70332  0.49599  0.04377  1.0000
  H   H1925     1.0  0.49618  0.48994  0.29058  1.0000
  H   H1926     1.0  0.66360  0.60967  0.98295  1.0000
  H   H1927     1.0  0.88894  0.49401  0.10170  1.0000
  H   H1928     1.0  0.47837  0.49127  0.23318  1.0000
  H   H1929     1.0  0.57522  0.49718  0.30036  1.0000
  H   H1930     1.0  0.53581  0.49381  0.32736  1.0000
  S   S240      1.0  0.64780  0.67904  0.98223  1.0000
  C   C1086     1.0  0.64923  0.50890  0.99158  1.0000
  H   H1931     1.0  0.96773  0.48862  0.35383  1.0000
  H   H1932     1.0  0.78349  0.49189  0.98222  1.0000
  C   C1087     1.0  0.69674  0.65568  0.99310  1.0000
  C   C1088     1.0  0.63975  0.48925  0.97983  1.0000
  H   H1933     1.0  0.86121  0.49442  0.14673  1.0000
  H   H1934     1.0  0.66803  0.57101  0.98204  1.0000
  C   C1089     1.0  0.80816  0.48772  0.00675  1.0000
  Fe  Fe119     1.0  0.72596  0.48794  0.00878  1.0000
  H   H1935     1.0  0.68883  0.66502  0.97937  1.0000
  C   C1090     1.0  0.68305  0.56652  0.97860  1.0000
  H   H1936     1.0  0.47794  0.50169  0.32804  1.0000
  Fe  Fe120     1.0  0.55563  0.66462  0.53563  1.0000
  H   H1937     1.0  0.56443  0.52057  0.49984  1.0000
  C   C1091     1.0  0.58772  0.69509  0.63237  1.0000
  H   H1938     1.0  0.65664  0.68794  0.68030  1.0000
  H   H1939     1.0  0.49937  0.57744  0.55836  1.0000
  S   S241      1.0  0.64221  0.73383  0.76484  1.0000
  H   H1940     1.0  0.75660  0.68306  0.76080  1.0000
  C   C1092     1.0  0.81610  0.71447  0.81791  1.0000
  H   H1941     1.0  0.57623  0.64118  0.83914  1.0000
  H   H1942     1.0  0.57679  0.69705  0.77432  1.0000
  H   H1943     1.0  0.78525  0.69109  0.73627  1.0000
  H   H1944     1.0  0.60559  0.70054  0.75516  1.0000
  C   C1093     1.0  0.69594  0.62760  0.95151  1.0000
  Fe  Fe121     1.0  0.63977  0.56132  0.93830  1.0000
  S   S242      1.0  0.62359  0.56663  0.90042  1.0000
  Fe  Fe122     1.0  0.67365  0.70949  0.95290  1.0000
  Fe  Fe123     1.0  0.60917  0.58602  0.92565  1.0000
  S   S243      1.0  0.61391  0.61866  0.90126  1.0000
  H   H1945     1.0  0.82883  0.71567  0.79735  1.0000
  H   H1946     1.0  0.56796  0.58933  0.49800  1.0000
  C   C1094     1.0  0.69259  0.49519  0.91786  1.0000
  H   H1947     1.0  0.66972  0.51854  0.88585  1.0000
  S   S244      1.0  0.57646  0.55930  0.95044  1.0000
  C   C1095     1.0  0.67693  0.50030  0.94279  1.0000
  H   H1948     1.0  0.73607  0.54900  0.96726  1.0000
  S   S245      1.0  0.57941  0.65591  0.50272  1.0000
  H   H1949     1.0  0.66566  0.63551  0.96601  1.0000
  H   H1950     1.0  0.54904  0.64360  0.74241  1.0000
  H   H1951     1.0  0.60385  0.72214  0.90798  1.0000
  H   H1952     1.0  0.79685  0.73469  0.94982  1.0000
  H   H1953     1.0  0.68222  0.51760  0.93852  1.0000
  S   S246      1.0  0.70710  0.70974  0.92672  1.0000
  S   S247      1.0  0.57533  0.51403  0.90840  1.0000
  C   C1096     1.0  0.66010  0.72926  0.78768  1.0000
  H   H1954     1.0  0.64285  0.66052  0.69853  1.0000
  S   S248      1.0  0.62747  0.58261  0.96187  1.0000
  H   H1955     1.0  0.56423  0.61368  0.84198  1.0000
  H   H1956     1.0  0.60229  0.61294  0.96579  1.0000
  S   S249      1.0  0.66613  0.72782  0.91400  1.0000
  C   C1097     1.0  0.57148  0.63338  0.79699  1.0000
  H   H1957     1.0  0.58624  0.68925  0.71190  1.0000
  H   H1958     1.0  0.58856  0.63178  0.79072  1.0000
  H   H1959     1.0  0.58266  0.66651  0.79188  1.0000
  C   C1098     1.0  0.62212  0.63563  0.92397  1.0000
  H   H1960     1.0  0.60566  0.73699  0.59456  1.0000
  H   H1961     1.0  0.61958  0.50793  0.88178  1.0000
  C   C1099     1.0  0.63744  0.66255  0.95977  1.0000
  C   C1100     1.0  0.64529  0.66941  0.92845  1.0000
  C   C1101     1.0  0.63716  0.65616  0.91063  1.0000
  H   H1962     1.0  0.71894  0.52610  0.89869  1.0000
  H   H1963     1.0  0.66247  0.73183  0.50192  1.0000
  H   H1964     1.0  0.65759  0.68492  0.91784  1.0000
  H   H1965     1.0  0.64283  0.66177  0.88653  1.0000
  C   C1102     1.0  0.72133  0.55389  0.97052  1.0000
  H   H1966     1.0  0.83433  0.70185  0.84711  1.0000
  C   C1103     1.0  0.64568  0.67645  0.70174  1.0000
  Fe  Fe124     1.0  0.50681  0.64949  0.57370  1.0000
  H   H1967     1.0  0.61509  0.66901  0.75770  1.0000
  C   C1104     1.0  0.60404  0.69199  0.61101  1.0000
  H   H1968     1.0  0.55446  0.65562  0.78725  1.0000
  H   H1969     1.0  0.68705  0.49602  0.89681  1.0000
  C   C1105     1.0  0.62946  0.72746  0.53147  1.0000
  C   C1106     1.0  0.56685  0.48775  0.92896  1.0000
  H   H1970     1.0  0.54656  0.62956  0.83854  1.0000
  Fe  Fe125     1.0  0.54683  0.67522  0.59574  1.0000
  H   H1971     1.0  0.80210  0.69897  0.82393  1.0000
  C   C1107     1.0  0.71001  0.55565  0.94765  1.0000
  C   C1108     1.0  0.68331  0.59983  0.84284  1.0000
  H   H1972     1.0  0.72672  0.67368  0.83392  1.0000
  H   H1973     1.0  0.58452  0.49585  0.51095  1.0000
  S   S250      1.0  0.61022  0.53252  0.96538  1.0000
  C   C1109     1.0  0.57860  0.68276  0.73634  1.0000
  C   C1110     1.0  0.77627  0.71645  0.75025  1.0000
  H   H1974     1.0  0.67336  0.58613  0.86225  1.0000
  S   S251      1.0  0.53893  0.64479  0.58284  1.0000
  S   S252      1.0  0.52309  0.66755  0.52548  1.0000
  C   C1111     1.0  0.65148  0.50785  0.89332  1.0000
  H   H1975     1.0  0.67715  0.62724  0.91683  1.0000
  C   C1112     1.0  0.69063  0.56156  0.95187  1.0000
  H   H1976     1.0  0.63455  0.72127  0.82944  1.0000
  S   S253      1.0  0.68104  0.72808  0.69687  1.0000
  H   H1977     1.0  0.76280  0.69694  0.72192  1.0000
  H   H1978     1.0  0.48345  0.67720  0.48816  1.0000
  N   N61       1.0  0.58184  0.66229  0.74731  1.0000
  H   H1979     1.0  0.68360  0.63252  0.79856  1.0000
  C   C1113     1.0  0.68276  0.73172  0.77438  1.0000
  C   C1114     1.0  0.68772  0.61887  0.92631  1.0000
  C   C1115     1.0  0.69800  0.73000  0.79190  1.0000
  H   H1980     1.0  0.57411  0.66580  0.68878  1.0000
  S   S254      1.0  0.71027  0.72389  0.84402  1.0000
  H   H1981     1.0  0.59849  0.68176  0.59691  1.0000
  C   C1116     1.0  0.53835  0.62609  0.50857  1.0000
  H   H1982     1.0  0.71607  0.55209  0.92687  1.0000
  C   C1117     1.0  0.71247  0.66401  0.85392  1.0000
  H   H1983     1.0  0.84314  0.72994  0.83770  1.0000
  H   H1984     1.0  0.55860  0.62092  0.79103  1.0000
  H   H1985     1.0  0.64517  0.52107  0.85135  1.0000
  C   C1118     1.0  0.56420  0.62930  0.83119  1.0000
  H   H1986     1.0  0.70185  0.66620  0.90002  1.0000
  C   C1119     1.0  0.59105  0.72166  0.73364  1.0000
  C   C1120     1.0  0.76984  0.69554  0.74196  1.0000
  C   C1121     1.0  0.71707  0.67318  0.88036  1.0000
  C   C1122     1.0  0.56765  0.64599  0.73438  1.0000
  Fe  Fe126     1.0  0.59297  0.53923  0.92914  1.0000
  H   H1987     1.0  0.55994  0.68028  0.73932  1.0000
  C   C1123     1.0  0.62279  0.67986  0.70990  1.0000
  C   C1124     1.0  0.69054  0.72552  0.82302  1.0000
  H   H1988     1.0  0.67724  0.60203  0.93491  1.0000
  C   C1125     1.0  0.57359  0.65015  0.69975  1.0000
  C   C1126     1.0  0.55567  0.63435  0.68968  1.0000
  S   S255      1.0  0.51316  0.67821  0.59126  1.0000
  C   C1127     1.0  0.58853  0.70010  0.75188  1.0000
  C   C1128     1.0  0.82811  0.71518  0.84343  1.0000
  C   C1129     1.0  0.67522  0.62629  0.97644  1.0000
  H   H1989     1.0  0.56942  0.63064  0.74237  1.0000
  H   H1990     1.0  0.64019  0.69919  0.59191  1.0000
  H   H1991     1.0  0.70175  0.60430  0.84292  1.0000
  H   H1992     1.0  0.63910  0.53340  0.88089  1.0000
  H   H1993     1.0  0.81606  0.71415  0.86465  1.0000
  H   H1994     1.0  0.70754  0.64398  0.94115  1.0000
  C   C1130     1.0  0.48288  0.56882  0.57574  1.0000
  H   H1995     1.0  0.61503  0.67873  0.69071  1.0000
  H   H1996     1.0  0.73202  0.67021  0.88695  1.0000
  H   H1997     1.0  0.60807  0.64848  0.73984  1.0000
  S   S256      1.0  0.67610  0.56233  0.92347  1.0000
  H   H1998     1.0  0.50523  0.60414  0.51243  1.0000
  H   H1999     1.0  0.51332  0.70882  0.47990  1.0000
  H   H2000     1.0  0.59041  0.64852  0.69141  1.0000
  H   H2001     1.0  0.55440  0.61813  0.69966  1.0000
  H   H2002     1.0  0.53855  0.63589  0.69620  1.0000
  H   H2003     1.0  0.56073  0.63748  0.66480  1.0000
  H   H2004     1.0  0.53259  0.62986  0.52924  1.0000
  C   C1131     1.0  0.63796  0.51820  0.87584  1.0000
  H   H2005     1.0  0.65492  0.67867  0.71958  1.0000
  C   C1132     1.0  0.60684  0.66411  0.73987  1.0000
  C   C1133     1.0  0.57228  0.65537  0.78110  1.0000
  C   C1134     1.0  0.59198  0.57241  0.49051  1.0000
  N   N62       1.0  0.68328  0.65690  0.82115  1.0000
  C   C1135     1.0  0.65806  0.65273  0.82340  1.0000
  C   C1136     1.0  0.68815  0.63729  0.81868  1.0000
  C   C1137     1.0  0.68869  0.66336  0.84881  1.0000
  C   C1138     1.0  0.69818  0.67436  0.79391  1.0000
  C   C1139     1.0  0.69388  0.67126  0.76321  1.0000
  C   C1140     1.0  0.65084  0.67226  0.81964  1.0000
  C   C1141     1.0  0.67476  0.61788  0.84567  1.0000
  C   C1142     1.0  0.70572  0.69165  0.73854  1.0000
  C   C1143     1.0  0.62478  0.66608  0.82540  1.0000
  H   H2006     1.0  0.64751  0.64203  0.84564  1.0000
  H   H2007     1.0  0.65219  0.64412  0.80687  1.0000
  H   H2008     1.0  0.67543  0.65285  0.86946  1.0000
  H   H2009     1.0  0.68778  0.67913  0.84837  1.0000
  H   H2010     1.0  0.69658  0.68946  0.79654  1.0000
  H   H2011     1.0  0.71666  0.67683  0.79188  1.0000
  H   H2012     1.0  0.67536  0.66596  0.76376  1.0000
  H   H2013     1.0  0.70093  0.65948  0.75660  1.0000
  H   H2014     1.0  0.65631  0.68130  0.83572  1.0000
  H   H2015     1.0  0.65860  0.68266  0.79658  1.0000
  H   H2016     1.0  0.67669  0.62132  0.86736  1.0000
  H   H2017     1.0  0.65610  0.61236  0.84667  1.0000
  H   H2018     1.0  0.68095  0.59513  0.82190  1.0000
  H   H2019     1.0  0.72443  0.69794  0.73683  1.0000
  H   H2020     1.0  0.70333  0.68897  0.71652  1.0000
  H   H2021     1.0  0.69821  0.70354  0.74333  1.0000
  H   H2022     1.0  0.61620  0.65675  0.84900  1.0000
  H   H2023     1.0  0.62017  0.68036  0.82165  1.0000
  H   H2024     1.0  0.61847  0.65677  0.80990  1.0000
  H   H2025     1.0  0.59136  0.72941  0.56749  1.0000
  H   H2026     1.0  0.58673  0.58921  0.54021  1.0000
  H   H2027     1.0  0.59691  0.73347  0.74624  1.0000
  N   N63       1.0  0.65113  0.49076  0.94765  1.0000
  S   S257      1.0  0.66468  0.72851  0.62055  1.0000
  C   C1144     1.0  0.59534  0.60093  0.51822  1.0000
  H   H2028     1.0  0.62666  0.69615  0.71198  1.0000
  S   S258      1.0  0.56638  0.69465  0.54916  1.0000
  H   H2029     1.0  0.66148  0.71760  0.86080  1.0000
  H   H2030     1.0  0.72119  0.69031  0.87393  1.0000
  S   S259      1.0  0.55807  0.68257  0.63687  1.0000
  H   H2031     1.0  0.70274  0.62055  0.90822  1.0000
  H   H2032     1.0  0.70692  0.64021  0.81484  1.0000
  C   C1145     1.0  0.62164  0.64226  0.97317  1.0000
  H   H2033     1.0  0.77318  0.70356  0.79726  1.0000
  H   H2034     1.0  0.71310  0.64801  0.85911  1.0000
  S   S260      1.0  0.53088  0.72722  0.52492  1.0000
  C   C1146     1.0  0.62762  0.70186  0.60820  1.0000
  C   C1147     1.0  0.59508  0.70808  0.65094  1.0000
  Fe  Fe127     1.0  0.53228  0.69575  0.54378  1.0000
  C   C1148     1.0  0.64244  0.50443  0.92748  1.0000
  C   C1149     1.0  0.63501  0.71517  0.62632  1.0000
  H   H2035     1.0  0.80016  0.70828  0.77281  1.0000
  H   H2036     1.0  0.58248  0.71064  0.66735  1.0000
  N   N64       1.0  0.79630  0.73553  0.78629  1.0000
  C   C1150     1.0  0.52284  0.61110  0.49926  1.0000
  H   H2037     1.0  0.72875  0.50470  0.89498  1.0000
  H   H2038     1.0  0.58915  0.53168  0.51352  1.0000
  C   C1151     1.0  0.61433  0.62867  0.95531  1.0000
  H   H2039     1.0  0.62236  0.73071  0.51193  1.0000
  C   C1152     1.0  0.64920  0.71988  0.52131  1.0000
  H   H2040     1.0  0.64703  0.52024  0.93138  1.0000
  H   H2041     1.0  0.62327  0.49836  0.93331  1.0000
  H   H2042     1.0  0.58312  0.56106  0.51279  1.0000
  Fe  Fe128     1.0  0.70101  0.73020  0.88886  1.0000
  C   C1153     1.0  0.78677  0.71527  0.77777  1.0000
  H   H2043     1.0  0.70599  0.61849  0.96062  1.0000
  H   H2044     1.0  0.76226  0.73047  0.81275  1.0000
  C   C1154     1.0  0.66760  0.72211  0.83669  1.0000
  H   H2045     1.0  0.62427  0.72855  0.66167  1.0000
  H   H2046     1.0  0.57984  0.49447  0.96668  1.0000
  H   H2047     1.0  0.72373  0.51072  0.93083  1.0000
  C   C1155     1.0  0.71751  0.51013  0.91019  1.0000
  H   H2048     1.0  0.68198  0.49492  0.96360  1.0000
  H   H2049     1.0  0.57436  0.72177  0.72935  1.0000
  H   H2050     1.0  0.48633  0.55912  0.59471  1.0000
  H   H2051     1.0  0.65139  0.52348  0.97534  1.0000
  H   H2052     1.0  0.79233  0.72837  0.83477  1.0000
  H   H2053     1.0  0.61590  0.71441  0.54913  1.0000
  H   H2054     1.0  0.61428  0.60507  0.51397  1.0000
  H   H2055     1.0  0.60414  0.72621  0.71192  1.0000
  H   H2056     1.0  0.71331  0.65729  0.97806  1.0000
  C   C1156     1.0  0.80588  0.73211  0.81351  1.0000
  H   H2057     1.0  0.65004  0.49294  0.88723  1.0000
  H   H2058     1.0  0.55103  0.54727  0.49583  1.0000
  H   H2059     1.0  0.55348  0.72261  0.60211  1.0000
  C   C1157     1.0  0.61868  0.71820  0.64781  1.0000
  H   H2060     1.0  0.78861  0.72833  0.73010  1.0000
  H   H2061     1.0  0.59128  0.61526  0.51946  1.0000
  H   H2062     1.0  0.64248  0.70525  0.51429  1.0000
  C   C1158     1.0  0.65228  0.72388  0.81897  1.0000
  H   H2063     1.0  0.76034  0.72022  0.75509  1.0000
  H   H2064     1.0  0.68883  0.73502  0.75049  1.0000
  H   H2065     1.0  0.65731  0.71662  0.53988  1.0000
  H   H2066     1.0  0.47850  0.73032  0.49446  1.0000
  C   C1159     1.0  0.56156  0.73649  0.61012  1.0000
  H   H2067     1.0  0.71566  0.73241  0.78118  1.0000
  H   H2068     1.0  0.56743  0.73146  0.63020  1.0000
  C   C1160     1.0  0.56103  0.63599  0.49145  1.0000
  H   H2069     1.0  0.83131  0.73193  0.74244  1.0000
  C   C1161     1.0  0.54014  0.73448  0.48563  1.0000
  C   C1162     1.0  0.59165  0.50864  0.48990  1.0000
  C   C1163     1.0  0.58351  0.52672  0.49413  1.0000
  C   C1164     1.0  0.58676  0.59253  0.49293  1.0000
  H   H2070     1.0  0.61074  0.51387  0.48450  1.0000
  H   H2071     1.0  0.61079  0.57609  0.48818  1.0000
  H   H2072     1.0  0.51886  0.52058  0.48836  1.0000
  H   H2073     1.0  0.50621  0.80417  0.46876  1.0000
  C   C1165     1.0  0.52554  0.80758  0.39350  1.0000
  Fe  Fe129     1.0  0.52858  0.74321  0.36614  1.0000
  C   C1166     1.0  0.54096  0.79911  0.43634  1.0000
  H   H2074     1.0  0.51301  0.76007  0.47431  1.0000
  H   H2075     1.0  0.51448  0.82859  0.34412  1.0000
  C   C1167     1.0  0.51533  0.81298  0.34330  1.0000
  H   H2076     1.0  0.53740  0.79193  0.46076  1.0000
  S   S261      1.0  0.52300  0.75403  0.32088  1.0000
  H   H2077     1.0  0.48351  0.87164  0.39410  1.0000
  C   C1168     1.0  0.50498  0.77443  0.43364  1.0000
  H   H2078     1.0  0.59300  0.83723  0.43392  1.0000
  C   C1169     1.0  0.55843  0.82159  0.43044  1.0000
  C   C1170     1.0  0.56533  0.75970  0.43966  1.0000
  H   H2079     1.0  0.57788  0.81233  0.46106  1.0000
  H   H2080     1.0  0.54199  0.80616  0.38223  1.0000
  H   H2081     1.0  0.63589  0.78980  0.44595  1.0000
  H   H2082     1.0  0.54992  0.79026  0.42443  1.0000
  H   H2083     1.0  0.51495  0.76679  0.42054  1.0000
  H   H2084     1.0  0.51640  0.82585  0.43709  1.0000
  H   H2085     1.0  0.53299  0.81476  0.33130  1.0000
  C   C1171     1.0  0.50860  0.79874  0.37501  1.0000
  H   H2086     1.0  0.52905  0.82469  0.38933  1.0000
  H   H2087     1.0  0.57984  0.77391  0.42846  1.0000
  H   H2088     1.0  0.58930  0.81343  0.42216  1.0000
  S   S262      1.0  0.55767  0.75992  0.38410  1.0000
  C   C1172     1.0  0.50668  0.80872  0.44451  1.0000
  C   C1173     1.0  0.49782  0.76179  0.46702  1.0000
  N   N65       1.0  0.51896  0.79741  0.42699  1.0000
  C   C1174     1.0  0.62184  0.78089  0.46660  1.0000
  C   C1175     1.0  0.55208  0.74896  0.42279  1.0000
  H   H2089     1.0  0.56254  0.83051  0.40670  1.0000
  H   H2090     1.0  0.61100  0.79045  0.47115  1.0000
  H   H2091     1.0  0.50893  0.78321  0.37281  1.0000
  H   H2092     1.0  0.55145  0.83023  0.44511  1.0000
  C   C1176     1.0  0.58101  0.82104  0.43737  1.0000
  H   H2093     1.0  0.61123  0.76618  0.46242  1.0000
  H   H2094     1.0  0.71825  0.79367  0.99542  1.0000
  H   H2095     1.0  0.50241  0.86674  0.36453  1.0000
  C   C1177     1.0  0.55895  0.75281  0.47109  1.0000
  C   C1178     1.0  0.48083  0.73975  0.47157  1.0000
  H   H2096     1.0  0.48892  0.77193  0.42606  1.0000
  C   C1179     1.0  0.48185  0.80578  0.44228  1.0000
  H   H2097     1.0  0.49131  0.84883  0.40121  1.0000
  C   C1180     1.0  0.48714  0.85934  0.38412  1.0000
  H   H2098     1.0  0.50324  0.80598  0.33044  1.0000
  H   H2099     1.0  0.49076  0.79681  0.38559  1.0000
  H   H2100     1.0  0.48218  0.83438  0.45573  1.0000
  Fe  Fe130     1.0  0.48601  0.74529  0.34557  1.0000
  S   S263      1.0  0.49268  0.73744  0.39076  1.0000
  H   H2101     1.0  0.48169  0.81207  0.41893  1.0000
  Fe  Fe131     1.0  0.84693  0.81963  0.75054  1.0000
  S   S264      1.0  0.82473  0.81356  0.79685  1.0000
  S   S265      1.0  0.83514  0.81354  0.70910  1.0000
  Fe  Fe132     1.0  0.89179  0.83650  0.76965  1.0000
  S   S266      1.0  0.87297  0.83159  0.81718  1.0000
  Fe  Fe133     1.0  0.85061  0.80108  0.81263  1.0000
  S   S267      1.0  0.84496  0.77239  0.84860  1.0000
  Fe  Fe134     1.0  0.84939  0.84473  0.79692  1.0000
  S   S268      1.0  0.83703  0.86770  0.81640  1.0000
  S   S269      1.0  0.87110  0.80475  0.76633  1.0000
  S   S270      1.0  0.86978  0.85196  0.74929  1.0000
  Fe  Fe135     1.0  0.69951  0.87974  0.77249  1.0000
  S   S271      1.0  0.69578  0.89548  0.81010  1.0000
  S   S272      1.0  0.67021  0.85622  0.76255  1.0000
  Fe  Fe136     1.0  0.75102  0.89764  0.75601  1.0000
  S   S273      1.0  0.75220  0.91510  0.79152  1.0000
  S   S274      1.0  0.78380  0.89830  0.72724  1.0000
  Fe  Fe137     1.0  0.72474  0.88587  0.82121  1.0000
  S   S275      1.0  0.72785  0.87551  0.86811  1.0000
  Fe  Fe138     1.0  0.72363  0.92347  0.77737  1.0000
  S   S276      1.0  0.72589  0.95657  0.77576  1.0000
  S   S277      1.0  0.72586  0.86752  0.78698  1.0000
  S   S278      1.0  0.72494  0.90871  0.73860  1.0000
  H   H2102     1.0  0.82669  0.78691  0.67051  1.0000
  C   C1181     1.0  0.80929  0.79478  0.70813  1.0000
  H   H2103     1.0  0.78681  0.80015  0.74388  1.0000
  C   C1182     1.0  0.76765  0.77673  0.72431  1.0000
  S   S279      1.0  0.70006  0.77363  0.71313  1.0000
  S   S280      1.0  0.67002  0.78062  0.93174  1.0000
  Fe  Fe139     1.0  0.67667  0.74559  0.65460  1.0000
  H   H2104     1.0  0.96198  0.82967  0.83764  1.0000
  C   C1183     1.0  0.78786  0.79129  0.72731  1.0000
  C   C1184     1.0  0.75497  0.97266  0.76341  1.0000
  H   H2105     1.0  0.94357  0.79699  0.81243  1.0000
  Fe  Fe140     1.0  0.69463  0.78719  0.66919  1.0000
  H   H2106     1.0  0.76252  0.83666  0.81795  1.0000
  H   H2107     1.0  0.82090  0.76705  0.76726  1.0000
  C   C1185     1.0  0.77097  0.96639  0.74634  1.0000
  H   H2108     1.0  0.85582  0.77961  0.72272  1.0000
  H   H2109     1.0  0.66760  0.80387  0.57785  1.0000
  C   C1186     1.0  0.77910  0.88300  0.92339  1.0000
  H   H2110     1.0  0.76532  0.95196  0.73967  1.0000
  C   C1187     1.0  0.71237  0.84897  0.88525  1.0000
  C   C1188     1.0  0.69648  0.84334  0.91305  1.0000
  C   C1189     1.0  0.68365  0.82228  0.92709  1.0000
  C   C1190     1.0  0.68751  0.80667  0.91421  1.0000
  C   C1191     1.0  0.70414  0.81219  0.88695  1.0000
  C   C1192     1.0  0.71616  0.83342  0.87204  1.0000
  H   H2111     1.0  0.69355  0.85532  0.92334  1.0000
  H   H2112     1.0  0.96058  0.80337  0.84844  1.0000
  H   H2113     1.0  0.70713  0.80016  0.87693  1.0000
  H   H2114     1.0  0.72835  0.83778  0.85042  1.0000
  C   C1193     1.0  0.81977  0.76441  0.87758  1.0000
  H   H2115     1.0  0.60058  0.75016  0.51827  1.0000
  H   H2116     1.0  0.70952  0.96476  0.85591  1.0000
  H   H2117     1.0  0.76567  0.81292  0.81160  1.0000
  C   C1194     1.0  0.80163  0.77132  0.87387  1.0000
  H   H2118     1.0  0.76478  0.84473  0.86683  1.0000
  H   H2119     1.0  0.75112  0.77395  0.73916  1.0000
  H   H2120     1.0  0.80332  0.78235  0.85342  1.0000
  C   C1195     1.0  0.82342  0.87809  0.79158  1.0000
  C   C1196     1.0  0.80218  0.87976  0.80273  1.0000
  C   C1197     1.0  0.78970  0.88526  0.78292  1.0000
  C   C1198     1.0  0.79906  0.89049  0.75189  1.0000
  C   C1199     1.0  0.82095  0.89011  0.74075  1.0000
  C   C1200     1.0  0.83300  0.88357  0.76056  1.0000
  H   H2121     1.0  0.79488  0.87613  0.82661  1.0000
  H   H2122     1.0  0.77279  0.88531  0.79188  1.0000
  H   H2123     1.0  0.82854  0.89486  0.71686  1.0000
  H   H2124     1.0  0.84979  0.88305  0.75181  1.0000
  C   C1201     1.0  0.94536  0.85971  0.78001  1.0000
  C   C1202     1.0  0.79043  0.76907  0.68351  1.0000
  H   H2125     1.0  0.62383  0.76535  0.60846  1.0000
  C   C1203     1.0  0.94597  0.87403  0.82355  1.0000
  C   C1204     1.0  0.93435  0.86651  0.80274  1.0000
  H   H2126     1.0  0.93728  0.87904  0.84126  1.0000
  H   H2127     1.0  0.91690  0.86599  0.80431  1.0000
  C   C1205     1.0  0.72757  0.96675  0.85658  1.0000
  H   H2128     1.0  0.85525  0.98427  0.81509  1.0000
  H   H2129     1.0  0.84637  0.74738  0.76452  1.0000
  C   C1206     1.0  0.89661  0.84316  0.89982  1.0000
  C   C1207     1.0  0.70694  0.85224  0.68481  1.0000
  C   C1208     1.0  0.69940  0.85972  0.70913  1.0000
  C   C1209     1.0  0.68019  0.84681  0.73246  1.0000
  C   C1210     1.0  0.66882  0.82625  0.73171  1.0000
  H   H2130     1.0  0.89510  0.74525  0.91143  1.0000
  H   H2131     1.0  0.72144  0.86248  0.66652  1.0000
  H   H2132     1.0  0.70811  0.87564  0.70940  1.0000
  H   H2133     1.0  0.65379  0.81633  0.74949  1.0000
  C   C1211     1.0  0.81032  0.78395  0.68587  1.0000
  N   N66       1.0  0.65032  0.78452  0.83265  1.0000
  C   C1212     1.0  0.67285  0.78117  0.83224  1.0000
  H   H2134     1.0  0.79215  0.81568  0.93297  1.0000
  C   C1213     1.0  0.64089  0.77633  0.80824  1.0000
  C   C1214     1.0  0.65344  0.80741  0.82708  1.0000
  C   C1215     1.0  0.66691  0.81938  0.84673  1.0000
  C   C1216     1.0  0.69234  0.79235  0.80289  1.0000
  H   H2135     1.0  0.64261  0.77733  0.88127  1.0000
  H   H2136     1.0  0.64350  0.79100  0.49530  1.0000
  H   H2137     1.0  0.64221  0.74109  0.56510  1.0000
  C   C1217     1.0  0.66320  0.84005  0.84665  1.0000
  C   C1218     1.0  0.71462  0.78904  0.80664  1.0000
  H   H2138     1.0  0.84447  0.97390  0.71989  1.0000
  C   C1219     1.0  0.85626  0.97513  0.77225  1.0000
  H   H2139     1.0  0.67942  0.78567  0.85140  1.0000
  H   H2140     1.0  0.78691  0.84636  0.93609  1.0000
  H   H2141     1.0  0.62203  0.78749  0.55964  1.0000
  H   H2142     1.0  0.90281  0.83649  0.85696  1.0000
  H   H2143     1.0  0.65271  0.78526  0.78578  1.0000
  H   H2144     1.0  0.66228  0.81582  0.80314  1.0000
  H   H2145     1.0  0.63639  0.80936  0.83075  1.0000
  H   H2146     1.0  0.68556  0.82286  0.83782  1.0000
  H   H2147     1.0  0.66162  0.81029  0.87045  1.0000
  H   H2148     1.0  0.68776  0.78578  0.78405  1.0000
  H   H2149     1.0  0.69588  0.80941  0.79642  1.0000
  H   H2150     1.0  0.61839  0.79409  0.79921  1.0000
  H   H2151     1.0  0.75951  0.97302  0.89266  1.0000
  C   C1220     1.0  0.63776  0.74682  0.54405  1.0000
  C   C1221     1.0  0.61704  0.77754  0.80643  1.0000
  H   H2152     1.0  0.92794  0.79006  0.91163  1.0000
  N   N67       1.0  0.84138  0.95223  0.78225  1.0000
  C   C1222     1.0  0.72702  0.94515  0.87351  1.0000
  H   H2153     1.0  0.66889  0.85021  0.82352  1.0000
  H   H2154     1.0  0.64477  0.83734  0.85616  1.0000
  H   H2155     1.0  0.67342  0.84831  0.86049  1.0000
  H   H2156     1.0  0.71164  0.77209  0.81406  1.0000
  H   H2157     1.0  0.72787  0.79558  0.78484  1.0000
  H   H2158     1.0  0.72121  0.79692  0.82343  1.0000
  H   H2159     1.0  0.65445  0.75790  0.52875  1.0000
  H   H2160     1.0  0.71080  0.80910  0.96624  1.0000
  H   H2161     1.0  0.88644  0.77507  0.88478  1.0000
  C   C1223     1.0  0.72092  0.79886  0.97074  1.0000
  H   H2162     1.0  0.76784  0.89252  0.92272  1.0000
  C   C1224     1.0  0.83031  0.94577  0.75771  1.0000
  H   H2163     1.0  0.77269  0.97434  0.83555  1.0000
  C   C1225     1.0  0.85463  0.93846  0.79145  1.0000
  C   C1226     1.0  0.87562  0.93981  0.76720  1.0000
  H   H2164     1.0  0.61896  0.77833  0.86683  1.0000
  C   C1227     1.0  0.80417  0.92708  0.82234  1.0000
  C   C1228     1.0  0.84388  0.95746  0.72461  1.0000
  C   C1229     1.0  0.83245  0.94736  0.70239  1.0000
  C   C1230     1.0  0.88857  0.92644  0.78011  1.0000
  H   H2165     1.0  0.87020  0.97854  0.75180  1.0000
  C   C1231     1.0  0.78434  0.92685  0.84677  1.0000
  H   H2166     1.0  0.79753  0.97118  0.87026  1.0000
  C   C1232     1.0  0.76851  0.86336  0.91328  1.0000
  H   H2167     1.0  0.82612  0.92872  0.76000  1.0000
  H   H2168     1.0  0.71439  0.78483  0.96230  1.0000
  H   H2169     1.0  0.81478  0.82310  0.86597  1.0000
  H   H2170     1.0  0.81340  0.94803  0.76010  1.0000
  H   H2171     1.0  0.60285  0.77445  0.52602  1.0000
  H   H2172     1.0  0.84329  0.92172  0.79816  1.0000
  H   H2173     1.0  0.75114  0.85473  0.92869  1.0000
  H   H2174     1.0  0.86979  0.93360  0.74871  1.0000
  C   C1233     1.0  0.88874  0.75535  0.92391  1.0000
  H   H2175     1.0  0.71389  0.98122  0.96109  1.0000
  H   H2176     1.0  0.81187  0.91612  0.83276  1.0000
  H   H2177     1.0  0.79685  0.92100  0.80475  1.0000
  H   H2178     1.0  0.88761  0.78619  0.91671  1.0000
  H   H2179     1.0  0.86182  0.95780  0.71980  1.0000
  H   H2180     1.0  0.86718  0.76057  0.71159  1.0000
  H   H2181     1.0  0.64899  0.78714  0.54159  1.0000
  H   H2182     1.0  0.90330  0.92733  0.76218  1.0000
  H   H2183     1.0  0.89535  0.93209  0.79846  1.0000
  H   H2184     1.0  0.87708  0.90980  0.78895  1.0000
  H   H2185     1.0  0.75387  0.75268  0.84484  1.0000
  H   H2186     1.0  0.77704  0.89122  0.59571  1.0000
  H   H2187     1.0  0.67074  0.81806  0.94809  1.0000
  H   H2188     1.0  0.92489  0.82226  0.90632  1.0000
  H   H2189     1.0  0.77529  0.93689  0.83732  1.0000
  C   C1234     1.0  0.78657  0.81588  0.63208  1.0000
  C   C1235     1.0  0.81787  0.75093  0.90484  1.0000
  H   H2190     1.0  0.93787  0.84094  0.87136  1.0000
  H   H2191     1.0  0.72756  0.93178  0.83508  1.0000
  C   C1236     1.0  0.91982  0.80713  0.84148  1.0000
  H   H2192     1.0  0.74455  0.94530  0.87403  1.0000
  H   H2193     1.0  0.96595  0.83300  0.89051  1.0000
  H   H2194     1.0  0.60495  0.74954  0.79073  1.0000
  C   C1237     1.0  0.77963  0.75115  0.92450  1.0000
  H   H2195     1.0  0.86031  0.94138  0.81186  1.0000
  H   H2196     1.0  0.90086  0.80293  0.84771  1.0000
  C   C1238     1.0  0.77651  0.74299  0.79479  1.0000
  S   S281      1.0  0.71976  0.76035  0.89856  1.0000
  H   H2197     1.0  0.75592  0.80025  0.96252  1.0000
  C   C1239     1.0  0.72126  0.98104  0.90013  1.0000
  H   H2198     1.0  0.74508  0.80188  0.91453  1.0000
  H   H2199     1.0  0.64016  0.75997  0.81015  1.0000
  C   C1240     1.0  0.60026  0.74335  0.57473  1.0000
  C   C1241     1.0  0.63212  0.77598  0.49296  1.0000
  H   H2200     1.0  0.92020  0.77568  0.83955  1.0000
  N   N68       1.0  0.92972  0.80880  0.86834  1.0000
  C   C1242     1.0  0.74649  0.81069  0.95570  1.0000
  H   H2201     1.0  0.89374  0.83565  0.92396  1.0000
  H   H2202     1.0  0.69900  0.92724  0.85713  1.0000
  H   H2203     1.0  0.71598  0.91289  0.87103  1.0000
  C   C1243     1.0  0.63273  0.77742  0.55895  1.0000
  H   H2204     1.0  0.78359  0.79143  0.60862  1.0000
  H   H2205     1.0  0.59158  0.76850  0.78130  1.0000
  Fe  Fe141     1.0  0.68539  0.75588  0.92775  1.0000
  H   H2206     1.0  0.79516  0.76420  0.81906  1.0000
  C   C1244     1.0  0.85110  0.76368  0.71904  1.0000
  C   C1245     1.0  0.96972  0.82086  0.88027  1.0000
  H   H2207     1.0  0.70299  0.97601  0.89894  1.0000
  C   C1246     1.0  0.86810  0.98447  0.79533  1.0000
  H   H2208     1.0  0.84115  0.95723  0.67914  1.0000
  H   H2209     1.0  0.64284  0.76664  0.48687  1.0000
  H   H2210     1.0  0.79072  0.93234  0.86544  1.0000
  C   C1247     1.0  0.76204  0.83546  0.71709  1.0000
  C   C1248     1.0  0.83589  0.74726  0.74789  1.0000
  H   H2211     1.0  0.79439  0.82848  0.61099  1.0000
  C   C1249     1.0  0.92136  0.78810  0.89150  1.0000
  H   H2212     1.0  0.82352  0.84294  0.88530  1.0000
  H   H2213     1.0  0.76315  0.78351  0.64465  1.0000
  C   C1250     1.0  0.82241  0.94942  0.80927  1.0000
  H   H2214     1.0  0.76657  0.86866  0.89044  1.0000
  H   H2215     1.0  0.80636  0.97465  0.72275  1.0000
  H   H2216     1.0  0.89625  0.75634  0.94349  1.0000
  H   H2217     1.0  0.77879  0.80699  0.85885  1.0000
  C   C1251     1.0  0.91162  0.78886  0.80036  1.0000
  H   H2218     1.0  0.74519  0.85557  0.73415  1.0000
  H   H2219     1.0  0.64007  0.80418  0.59705  1.0000
  H   H2220     1.0  0.88647  0.81403  0.88761  1.0000
  H   H2221     1.0  0.78069  0.87876  0.94674  1.0000
  C   C1252     1.0  0.74260  0.83868  0.73809  1.0000
  C   C1253     1.0  0.79045  0.81725  0.90949  1.0000
  C   C1254     1.0  0.89493  0.77711  0.90328  1.0000
  S   S282      1.0  0.75516  0.74366  0.95452  1.0000
  C   C1255     1.0  0.63407  0.77320  0.86335  1.0000
  Fe  Fe142     1.0  0.71477  0.75411  0.68861  1.0000
  H   H2222     1.0  0.80153  0.83299  0.68973  1.0000
  H   H2223     1.0  0.79634  0.89260  0.90813  1.0000
  H   H2224     1.0  0.92637  0.82269  0.82500  1.0000
  Fe  Fe143     1.0  0.66609  0.74859  0.71882  1.0000
  H   H2225     1.0  0.97686  0.85585  0.76018  1.0000
  H   H2226     1.0  0.59503  0.74456  0.90666  1.0000
  C   C1256     1.0  0.90145  0.82878  0.88049  1.0000
  H   H2227     1.0  0.74854  0.76549  0.81078  1.0000
  C   C1257     1.0  0.96824  0.86107  0.77771  1.0000
  C   C1258     1.0  0.96866  0.87482  0.82179  1.0000
  C   C1259     1.0  0.67694  0.81848  0.70801  1.0000
  H   H2228     1.0  0.84570  0.98456  0.76567  1.0000
  H   H2229     1.0  0.83388  0.93176  0.70373  1.0000
  C   C1260     1.0  0.76148  0.76558  0.82396  1.0000
  C   C1261     1.0  0.76899  0.76554  0.70237  1.0000
  H   H2230     1.0  0.75184  0.85723  0.63136  1.0000
  S   S283      1.0  0.74481  0.74567  0.69949  1.0000
  N   N69       1.0  0.62091  0.75791  0.55001  1.0000
  H   H2231     1.0  0.88096  0.84643  0.89657  1.0000
  H   H2232     1.0  0.58890  0.76625  0.59425  1.0000
  H   H2233     1.0  0.84716  0.81978  0.88405  1.0000
  C   C1262     1.0  0.65146  0.79480  0.59569  1.0000
  H   H2234     1.0  0.80669  0.75647  0.74186  1.0000
  H   H2235     1.0  0.79059  0.83439  0.81084  1.0000
  H   H2236     1.0  0.77178  0.91065  0.85598  1.0000
  S   S284      1.0  0.70607  0.82208  0.65444  1.0000
  H   H2237     1.0  0.65604  0.79190  0.61748  1.0000
  H   H2238     1.0  0.92870  0.77703  0.88287  1.0000
  S   S285      1.0  0.93062  0.84835  0.75532  1.0000
  H   H2239     1.0  0.88798  0.95606  0.75805  1.0000
  C   C1263     1.0  0.69590  0.83155  0.68438  1.0000
  C   C1264     1.0  0.80101  0.98629  0.85404  1.0000
  H   H2240     1.0  0.73697  0.97015  0.83265  1.0000
  H   H2241     1.0  0.91611  0.80411  0.78397  1.0000
  H   H2242     1.0  0.89282  0.78251  0.81092  1.0000
  H   H2243     1.0  0.76496  0.97417  0.67420  1.0000
  H   H2244     1.0  0.67029  0.76431  0.83584  1.0000
  H   H2245     1.0  0.76377  0.84351  0.60769  1.0000
  C   C1265     1.0  0.77611  0.83561  0.87073  1.0000
  H   H2246     1.0  0.78228  0.80098  0.90822  1.0000
  H   H2247     1.0  0.76652  0.78041  0.83070  1.0000
  H   H2248     1.0  0.72570  0.83032  0.73432  1.0000
  C   C1266     1.0  0.76869  0.81736  0.85583  1.0000
  H   H2249     1.0  0.79164  0.76044  0.66665  1.0000
  H   H2250     1.0  0.84202  0.76314  0.70089  1.0000
  C   C1267     1.0  0.60806  0.76652  0.78343  1.0000
  H   H2251     1.0  0.65114  0.76506  0.58944  1.0000
  C   C1268     1.0  0.77207  0.82585  0.82208  1.0000
  H   H2252     1.0  0.80108  0.85996  0.89829  1.0000
  H   H2253     1.0  0.79370  0.84611  0.85773  1.0000
  H   H2254     1.0  0.77035  0.86427  0.68350  1.0000
  H   H2255     1.0  0.76900  0.74623  0.77555  1.0000
  H   H2256     1.0  0.66825  0.80252  0.70773  1.0000
  H   H2257     1.0  0.85005  0.88198  0.68464  1.0000
  S   S286      1.0  0.65878  0.76424  0.67728  1.0000
  C   C1269     1.0  0.75086  0.81685  0.92104  1.0000
  C   C1270     1.0  0.71674  0.92829  0.85821  1.0000
  C   C1271     1.0  0.78266  0.76341  0.80534  1.0000
  C   C1272     1.0  0.63927  0.77396  0.58943  1.0000
  H   H2258     1.0  0.80693  0.87164  0.69026  1.0000
  C   C1273     1.0  0.81519  0.82591  0.88846  1.0000
  C   C1274     1.0  0.76549  0.84734  0.68416  1.0000
  H   H2259     1.0  0.74237  0.83265  0.76182  1.0000
  H   H2260     1.0  0.91126  0.85827  0.89325  1.0000
  H   H2261     1.0  0.62041  0.74418  0.91924  1.0000
  C   C1275     1.0  0.83894  0.86602  0.68522  1.0000
  H   H2262     1.0  0.83336  0.85625  0.70875  1.0000
  H   H2263     1.0  0.76725  0.76928  0.89376  1.0000
  H   H2264     1.0  0.82430  0.87907  0.65227  1.0000
  H   H2265     1.0  0.77787  0.84139  0.72475  1.0000
  H   H2266     1.0  0.60406  0.77013  0.82832  1.0000
  C   C1276     1.0  0.77224  0.79655  0.62417  1.0000
  H   H2267     1.0  0.75760  0.81843  0.71969  1.0000
  H   H2268     1.0  0.79054  0.77709  0.78556  1.0000
  C   C1277     1.0  0.95558  0.81562  0.85706  1.0000
  H   H2269     1.0  0.91600  0.77786  0.78800  1.0000
  H   H2270     1.0  0.87897  0.97578  0.80302  1.0000
  C   C1278     1.0  0.81794  0.86683  0.67385  1.0000
  H   H2271     1.0  0.84944  0.85944  0.67093  1.0000
  H   H2272     1.0  0.83418  0.82009  0.92153  1.0000
  C   C1279     1.0  0.76768  0.85791  0.61580  1.0000
  H   H2273     1.0  0.74822  0.84288  0.67952  1.0000
  H   H2274     1.0  0.80068  0.81224  0.64028  1.0000
  C   C1280     1.0  0.80459  0.84541  0.66916  1.0000
  C   C1281     1.0  0.78393  0.84972  0.91330  1.0000
  H   H2275     1.0  0.57449  0.75767  0.56657  1.0000
  C   C1282     1.0  0.92503  0.79139  0.82424  1.0000
  C   C1283     1.0  0.92433  0.82530  0.88233  1.0000
  C   C1284     1.0  0.77394  0.87643  0.58863  1.0000
  H   H2276     1.0  0.78955  0.87757  0.57197  1.0000
  C   C1285     1.0  0.78756  0.86015  0.63154  1.0000
  N   N70       1.0  0.78243  0.84373  0.66039  1.0000
  H   H2277     1.0  0.81677  0.84249  0.65158  1.0000
  C   C1286     1.0  0.61290  0.76409  0.52240  1.0000
  H   H2278     1.0  0.79219  0.87597  0.63580  1.0000
  H   H2279     1.0  0.75947  0.87425  0.57772  1.0000
  C   C1287     1.0  0.58171  0.75266  0.58530  1.0000
  H   H2280     1.0  0.82231  0.79800  0.90700  1.0000
  H   H2281     1.0  0.76842  0.81010  0.67795  1.0000
  C   C1288     1.0  0.77182  0.82202  0.65671  1.0000
  H   H2282     1.0  0.80305  0.86082  0.61506  1.0000
  H   H2283     1.0  0.75020  0.80787  0.86549  1.0000
  N   N71       1.0  0.77528  0.82980  0.90364  1.0000
  H   H2284     1.0  0.73894  0.82491  0.91528  1.0000
  H   H2285     1.0  0.75448  0.81962  0.65259  1.0000
  C   C1289     1.0  0.78128  0.76411  0.89692  1.0000
  H   H2286     1.0  0.71630  0.94042  0.89694  1.0000
  H   H2287     1.0  0.63923  0.74290  0.86864  1.0000
  C   C1290     1.0  0.83059  0.81525  0.90110  1.0000
  S   S287      1.0  0.71222  0.76973  0.64351  1.0000
  H   H2288     1.0  0.75942  0.80022  0.61289  1.0000
  Fe  Fe144     1.0  0.72289  0.73948  0.93900  1.0000
  H   H2289     1.0  0.75195  0.82461  0.96460  1.0000
  H   H2290     1.0  0.81319  0.96040  0.80360  1.0000
  H   H2291     1.0  0.83193  0.74565  0.90787  1.0000
  C   C1291     1.0  0.79804  0.74470  0.92851  1.0000
  H   H2292     1.0  0.61415  0.74322  0.85581  1.0000
  H   H2293     1.0  0.86973  0.74798  0.93235  1.0000
  C   C1292     1.0  0.81434  0.75224  0.76050  1.0000
  C   C1293     1.0  0.62491  0.74897  0.87083  1.0000
  H   H2294     1.0  0.81396  0.94559  0.70710  1.0000
  C   C1294     1.0  0.61013  0.73946  0.90316  1.0000
  H   H2295     1.0  0.62064  0.77323  0.76102  1.0000
  H   H2296     1.0  0.81947  0.74681  0.81346  1.0000
  H   H2297     1.0  0.96600  0.80668  0.89851  1.0000
  H   H2298     1.0  0.48947  0.76938  0.48210  1.0000
  H   H2299     1.0  0.72230  0.96782  0.91659  1.0000
  C   C1295     1.0  0.79425  0.97916  0.73691  1.0000
  H   H2300     1.0  0.82957  0.95331  0.82828  1.0000
  H   H2301     1.0  0.54832  0.74338  0.61678  1.0000
  H   H2302     1.0  0.79511  0.98346  0.67298  1.0000
  H   H2303     1.0  0.56839  0.76176  0.48420  1.0000
  N   N72       1.0  0.73726  0.98468  0.86985  1.0000
  C   C1296     1.0  0.76080  0.98624  0.87414  1.0000
  H   H2304     1.0  0.48442  0.73753  0.54774  1.0000
  S   S288      1.0  0.68991  0.73730  0.96933  1.0000
