data_image0
_chemical_formula_structural       H2FeCSFeCHCS2CH3CH2C2HCFeH3SH2CHC2HNH3CHCH2CH3SCH2CH3SHCHCH2FeC2H2CH3FeSH4FeHCHFeS2FeS2FeCFeS4FeS2H4C3HC6H5C5H2NC8HC3H18CHC2H5C2H3CH4CH8C2HCSHFeC3HCH2C3H2CSHCH3C2H3CHCH2CHC2H2CHNHCH2CH2CH9CH5FeH2CH2C2HCHCH4CH2C2H3CHCH4CH5CHCH6NH5FeS2FeSHFeSFeS3FeCSH3S2CFeS2HFeSH2SC2H2SC3H3CH3C6H4C4HCH2CH2CHCH3NH2CHC3SCH4CFeH2NHCH3CHCH3CHCSH2CHCFeH2CH2SC2HCH3CHCHCH2CN2FeC4H2SHCHNCH9C2H3CHCH4CH4C2H6CHC2H4SH5CHC2HCH2C2H2C4HCHCH2C3H8C2H2CH6C2HC2H2CHC5H2CH2C2H8CN2HCH4FeCSH6FeS2FeS2FeSFeS3HCHC6H5SCHC3H2C3HC4H4C3HC2H3CNH3CH3CH2NH2CHC2H3CH4CH3SCH2CH3NCHCH2CHCH3CH2CHCH3NC3H3C2HC2H4C3H2C2H5CHC2HCH5CH2C2H6CH2CH4CH2CHC2SHCH5SH2C2HSFeHCHCH2SC2FeSHSH8CH2C3FeH2S2H2C7H6C2H2CH4CHCH3CH2CHC2H5SH3SC2H4CHSCH2CNHCHFeH3CH3C2SCHCH2CHNH4CHC2H6CH2SH4CHSHFeSHSC3HCH4CSH3C6H3CSNC11H28CNC3H2C6H3CH4CH4CH3CH3C2H6FeHSH7CHCH4CH2CHC2HSHCH2CHFeH4CH5CH2NCHCHCHSCH2C2SHCH2CSHCFeS2FeS2FeHFeS3FeC2H3FeS2C2HC2H2C6H4CHCH3CH2NHSC2H2CH5CHCHCHSHCH4CHCHCH5CHCHC3H3CHSHCHCH2CH5C2H4SHNHCHCHCH3CHCHCH6SCH3NHCH4C2HC4H4CH6SHC2HFeS2H2FeCH3CH3SH2FeS2FeS2FeSFeS3CHSNFeC6H4CHC7H4CHS2CHSCH3FeHCNC2H3C4HCH6CHCH3CH2CFeH3CHC2SH5CH4CHFeHC2HC3HCH2FeH2CH6CHCH8C2H3C3SHCSC2HNH3NC7H2C3H3CH17NH4CSC2H2CH4C2SCH4C2HCH3CHSCS2FeS2FeS2FeHFeS3CHFeH3C2FeH3C6H7C2H3CH8CHCH2FeSCH4CH2CHCNC4HC2HCH2CH2C2H4CHCH2C2HCH4C3H5CH11CH3CHCH3CH2CH3C4HCH2C2H2C2H2C2H4NCHCH4CHC2HNCH3CHCH2CH2C2H6CHC3H5CSH2FeCH2CSHSCH2CH4SHCH2C2HCHCH5FeCH5SFeHSFeHCHS2H2CHCH4NH2C6H2CH2CHCH2CH4CSFeH7CH
_chemical_formula_sum              "H1024 Fe64 C576 S128 N32"
_cell_length_a       54.169
_cell_length_b       54.0961
_cell_length_c       37.801
_cell_angle_alpha    87.9733
_cell_angle_beta     87.7581
_cell_angle_gamma    118.966

_space_group_name_H-M_alt    "P 1"
_space_group_IT_number       1

loop_
  _space_group_symop_operation_xyz
  'x, y, z'

loop_
  _atom_site_type_symbol
  _atom_site_label
  _atom_site_symmetry_multiplicity
  _atom_site_fract_x
  _atom_site_fract_y
  _atom_site_fract_z
  _atom_site_occupancy
  H   H1        1.0  0.36399  0.25107  0.36878  1.0000
  H   H2        1.0  0.42821  0.16191  0.41428  1.0000
  Fe  Fe1       1.0  0.44084  0.07473  0.37989  1.0000
  C   C1        1.0  0.39975  0.23307  0.49302  1.0000
  S   S1        1.0  0.41826  0.03112  0.35611  1.0000
  Fe  Fe2       1.0  0.45002  0.12031  0.43305  1.0000
  C   C2        1.0  0.39247  0.23270  0.41378  1.0000
  H   H3        1.0  0.45979  0.01717  0.41066  1.0000
  C   C3        1.0  0.44344  0.25090  0.40274  1.0000
  S   S2        1.0  0.43082  0.11091  0.37981  1.0000
  S   S3        1.0  0.45652  0.08191  0.43490  1.0000
  C   C4        1.0  0.40734  0.15876  0.40662  1.0000
  H   H4        1.0  0.37287  0.21657  0.42904  1.0000
  H   H5        1.0  0.42646  0.19925  0.37876  1.0000
  H   H6        1.0  0.39279  0.26913  0.43901  1.0000
  C   C5        1.0  0.47218  0.19034  0.47475  1.0000
  H   H7        1.0  0.36551  0.27866  0.39550  1.0000
  H   H8        1.0  0.47865  0.25886  0.43625  1.0000
  C   C6        1.0  0.40885  0.18734  0.39908  1.0000
  C   C7        1.0  0.42427  0.24659  0.46376  1.0000
  H   H9        1.0  0.34624  0.24231  0.41271  1.0000
  C   C8        1.0  0.47101  0.25006  0.41035  1.0000
  Fe  Fe3       1.0  0.47556  0.13926  0.35705  1.0000
  H   H10       1.0  0.40188  0.14671  0.38232  1.0000
  H   H11       1.0  0.43827  0.24479  0.37507  1.0000
  H   H12       1.0  0.38178  0.00596  0.42195  1.0000
  S   S4        1.0  0.43183  0.13331  0.47997  1.0000
  H   H13       1.0  0.39354  0.19034  0.45104  1.0000
  H   H14       1.0  0.39103  0.14606  0.42822  1.0000
  C   C9        1.0  0.44774  0.16884  0.49286  1.0000
  H   H15       1.0  0.41048  0.27762  0.39542  1.0000
  C   C10       1.0  0.36529  0.25801  0.39629  1.0000
  C   C11       1.0  0.39351  0.99572  0.37182  1.0000
  H   H16       1.0  0.44894  0.27357  0.40236  1.0000
  N   N1        1.0  0.41826  0.23338  0.42846  1.0000
  H   H17       1.0  0.39011  0.22561  0.38622  1.0000
  H   H18       1.0  0.43160  0.26969  0.46056  1.0000
  H   H19       1.0  0.38011  0.23212  0.48402  1.0000
  C   C12       1.0  0.39215  0.26126  0.41217  1.0000
  H   H20       1.0  0.38878  0.18332  0.38759  1.0000
  C   C13       1.0  0.41296  0.20338  0.43349  1.0000
  H   H21       1.0  0.43013  0.20264  0.44791  1.0000
  H   H22       1.0  0.46781  0.22818  0.41065  1.0000
  C   C14       1.0  0.47581  0.01347  0.39606  1.0000
  H   H23       1.0  0.44218  0.24525  0.47493  1.0000
  H   H24       1.0  0.48199  0.18545  0.45275  1.0000
  H   H25       1.0  0.47642  0.03791  0.34850  1.0000
  S   S5        1.0  0.48396  0.10282  0.35211  1.0000
  C   C15       1.0  0.48390  0.21840  0.48485  1.0000
  H   H26       1.0  0.21763  0.31127  0.47234  1.0000
  H   H27       1.0  0.23665  0.29497  0.49140  1.0000
  C   C16       1.0  0.43524  0.17588  0.52134  1.0000
  H   H28       1.0  0.41632  0.15943  0.53555  1.0000
  H   H29       1.0  0.27348  0.31094  0.60166  1.0000
  H   H30       1.0  0.24405  0.31670  0.56212  1.0000
  S   S6        1.0  0.44483  0.27548  0.61084  1.0000
  H   H31       1.0  0.32448  0.32199  0.60382  1.0000
  C   C17       1.0  0.47472  0.07046  0.53624  1.0000
  H   H32       1.0  0.30423  0.30835  0.64567  1.0000
  C   C18       1.0  0.40752  0.25012  0.52609  1.0000
  H   H33       1.0  0.38989  0.23992  0.54686  1.0000
  H   H34       1.0  0.48375  0.23239  0.59767  1.0000
  Fe  Fe4       1.0  0.44843  0.31840  0.59641  1.0000
  C   C19       1.0  0.47135  0.22550  0.51308  1.0000
  C   C20       1.0  0.44697  0.20408  0.53146  1.0000
  H   H35       1.0  0.43697  0.20921  0.55314  1.0000
  H   H36       1.0  0.47225  0.20417  0.63167  1.0000
  C   C21       1.0  0.22638  0.30801  0.49708  1.0000
  H   H37       1.0  0.42663  0.25096  0.53696  1.0000
  H   H38       1.0  0.20859  0.29643  0.51741  1.0000
  H   H39       1.0  0.45265  0.06147  0.54766  1.0000
  Fe  Fe5       1.0  0.47796  0.28500  0.56659  1.0000
  S   S7        1.0  0.48570  0.26184  0.52158  1.0000
  H   H40       1.0  0.47434  0.07003  0.50691  1.0000
  H   H41       1.0  0.47407  0.03083  0.54495  1.0000
  H   H42       1.0  0.27416  0.32299  0.53520  1.0000
  H   H43       1.0  0.39521  0.21127  0.50114  1.0000
  Fe  Fe6       1.0  0.48218  0.30012  0.64417  1.0000
  H   H44       1.0  0.41161  0.27207  0.51990  1.0000
  C   C22       1.0  0.48518  0.22742  0.62604  1.0000
  H   H45       1.0  0.47635  0.23828  0.64249  1.0000
  Fe  Fe7       1.0  0.17202  0.48876  0.35424  1.0000
  S   S8        1.0  0.15761  0.45002  0.39148  1.0000
  S   S9        1.0  0.19843  0.49614  0.30297  1.0000
  Fe  Fe8       1.0  0.14483  0.51343  0.40168  1.0000
  S   S10       1.0  0.12857  0.47724  0.44275  1.0000
  S   S11       1.0  0.13639  0.54984  0.40698  1.0000
  Fe  Fe9       1.0  0.17183  0.48078  0.43481  1.0000
  C   C23       1.0  0.11666  0.40955  0.30994  1.0000
  Fe  Fe10      1.0  0.11558  0.44999  0.39623  1.0000
  S   S12       1.0  0.07207  0.40994  0.39754  1.0000
  S   S13       1.0  0.18864  0.51928  0.39696  1.0000
  S   S14       1.0  0.12938  0.48624  0.35561  1.0000
  S   S15       1.0  0.42961  0.58209  0.40708  1.0000
  Fe  Fe11      1.0  0.29292  0.64010  0.19055  1.0000
  S   S16       1.0  0.31565  0.62299  0.15660  1.0000
  S   S17       1.0  0.25111  0.61822  0.22345  1.0000
  H   H46       1.0  0.24402  0.57298  0.49038  1.0000
  H   H47       1.0  0.47129  0.54366  0.42646  1.0000
  H   H48       1.0  0.13835  0.45655  0.18635  1.0000
  H   H49       1.0  0.12371  0.43056  0.32082  1.0000
  C   C24       1.0  0.00866  0.42478  0.36559  1.0000
  C   C25       1.0  0.98749  0.37507  0.38349  1.0000
  C   C26       1.0  0.42754  0.56734  0.44969  1.0000
  H   H50       1.0  0.07882  0.43593  0.32191  1.0000
  C   C27       1.0  0.21360  0.53037  0.28148  1.0000
  C   C28       1.0  0.20859  0.55137  0.29508  1.0000
  C   C29       1.0  0.22053  0.57830  0.27721  1.0000
  C   C30       1.0  0.23805  0.58467  0.24606  1.0000
  C   C31       1.0  0.24341  0.56382  0.23272  1.0000
  C   C32       1.0  0.23093  0.53666  0.25017  1.0000
  H   H51       1.0  0.19507  0.54671  0.31900  1.0000
  H   H52       1.0  0.21598  0.59418  0.28745  1.0000
  H   H53       1.0  0.25649  0.56839  0.20841  1.0000
  H   H54       1.0  0.23435  0.52034  0.23908  1.0000
  H   H55       1.0  0.09850  0.49853  0.28338  1.0000
  C   C33       1.0  0.99681  0.37275  0.28248  1.0000
  C   C34       1.0  0.07667  0.48430  0.29493  1.0000
  C   C35       1.0  0.03521  0.42921  0.37602  1.0000
  C   C36       1.0  0.03834  0.40639  0.38896  1.0000
  C   C37       1.0  0.40087  0.62311  0.47001  1.0000
  H   H56       1.0  0.05345  0.45010  0.37304  1.0000
  H   H57       1.0  0.46259  0.48326  0.44405  1.0000
  N   N2        1.0  0.30700  0.55395  0.29818  1.0000
  C   C38       1.0  0.28376  0.53493  0.32563  1.0000
  C   C39       1.0  0.30578  0.58099  0.29043  1.0000
  C   C40       1.0  0.30174  0.53840  0.26446  1.0000
  C   C41       1.0  0.33592  0.56048  0.30918  1.0000
  C   C42       1.0  0.34533  0.57573  0.34397  1.0000
  C   C43       1.0  0.28112  0.50559  0.33506  1.0000
  C   C44       1.0  0.32022  0.55586  0.23070  1.0000
  C   C45       1.0  0.29575  0.59263  0.32156  1.0000
  H   H58       1.0  0.01134  0.44610  0.48946  1.0000
  C   C46       1.0  0.37334  0.57807  0.35436  1.0000
  C   C47       1.0  0.25798  0.48942  0.36462  1.0000
  C   C48       1.0  0.31146  0.53829  0.19815  1.0000
  H   H59       1.0  0.26290  0.53109  0.31651  1.0000
  H   H60       1.0  0.28596  0.54519  0.35103  1.0000
  H   H61       1.0  0.32672  0.59808  0.27897  1.0000
  H   H62       1.0  0.29073  0.57800  0.26965  1.0000
  H   H63       1.0  0.27922  0.52968  0.25825  1.0000
  H   H64       1.0  0.30528  0.51986  0.26787  1.0000
  H   H65       1.0  0.33783  0.54092  0.31103  1.0000
  H   H66       1.0  0.35238  0.57449  0.28837  1.0000
  H   H67       1.0  0.32955  0.56436  0.36644  1.0000
  H   H68       1.0  0.34886  0.59766  0.34019  1.0000
  H   H69       1.0  0.27525  0.49237  0.31181  1.0000
  H   H70       1.0  0.30119  0.50782  0.34448  1.0000
  H   H71       1.0  0.34288  0.56272  0.23377  1.0000
  H   H72       1.0  0.31811  0.57495  0.22470  1.0000
  H   H73       1.0  0.27256  0.57911  0.32738  1.0000
  H   H74       1.0  0.30629  0.59310  0.34617  1.0000
  H   H75       1.0  0.37988  0.58964  0.37896  1.0000
  H   H76       1.0  0.10202  0.46280  0.22060  1.0000
  C   C49       1.0  0.12594  0.57323  0.46457  1.0000
  H   H77       1.0  0.39327  0.60580  0.45142  1.0000
  C   C50       1.0  0.11596  0.44581  0.17917  1.0000
  C   C51       1.0  0.02659  0.38251  0.29444  1.0000
  H   H78       1.0  0.25611  0.46831  0.37063  1.0000
  H   H79       1.0  0.26311  0.50108  0.38928  1.0000
  H   H80       1.0  0.23722  0.48624  0.35634  1.0000
  H   H81       1.0  0.28913  0.53181  0.19301  1.0000
  H   H82       1.0  0.41789  0.48335  0.43084  1.0000
  C   C52       1.0  0.99919  0.57856  0.43033  1.0000
  C   C53       1.0  0.45953  0.39794  0.49620  1.0000
  H   H83       1.0  0.18682  0.60328  0.35220  1.0000
  H   H84       1.0  0.38208  0.54256  0.45288  1.0000
  H   H85       1.0  0.46227  0.51733  0.39591  1.0000
  C   C54       1.0  0.01628  0.46748  0.47880  1.0000
  H   H86       1.0  0.14204  0.39951  0.34457  1.0000
  H   H87       1.0  0.48199  0.55605  0.35312  1.0000
  H   H88       1.0  0.24396  0.61139  0.45193  1.0000
  H   H89       1.0  0.99795  0.58117  0.37304  1.0000
  C   C55       1.0  0.06528  0.45464  0.28149  1.0000
  H   H90       1.0  0.10672  0.38814  0.36279  1.0000
  H   H91       1.0  0.11733  0.58254  0.44642  1.0000
  H   H92       1.0  0.04317  0.44164  0.29272  1.0000
  H   H93       1.0  0.13128  0.41195  0.28706  1.0000
  H   H94       1.0  0.11269  0.36895  0.32824  1.0000
  H   H95       1.0  0.00361  0.61380  0.48654  1.0000
  H   H96       1.0  0.15961  0.61078  0.36834  1.0000
  H   H97       1.0  0.07432  0.43144  0.20259  1.0000
  C   C56       1.0  0.01515  0.57195  0.45892  1.0000
  C   C57       1.0  0.22547  0.56911  0.47519  1.0000
  H   H98       1.0  0.37119  0.55674  0.35952  1.0000
  C   C58       1.0  0.42161  0.62051  0.49410  1.0000
  S   S18       1.0  0.37455  0.62859  0.21943  1.0000
  H   H99       1.0  0.29327  0.62087  0.03039  1.0000
  Fe  Fe12      1.0  0.35276  0.64907  0.18930  1.0000
  C   C59       1.0  0.17114  0.65450  0.44574  1.0000
  C   C60       1.0  0.14791  0.54422  0.47539  1.0000
  C   C61       1.0  0.08342  0.44086  0.29275  1.0000
  H   H100      1.0  0.00684  0.44240  0.35417  1.0000
  C   C62       1.0  0.40115  0.54873  0.46667  1.0000
  H   H101      1.0  0.11080  0.42519  0.16817  1.0000
  H   H102      1.0  0.44557  0.63516  0.30098  1.0000
  C   C63       1.0  0.30535  0.63577  0.00838  1.0000
  C   C64       1.0  0.22437  0.59657  0.46794  1.0000
  C   C65       1.0  0.24937  0.44998  0.47730  1.0000
  H   H103      1.0  0.10611  0.45743  0.28979  1.0000
  H   H104      1.0  0.02724  0.36357  0.30567  1.0000
  C   C66       1.0  0.22927  0.45846  0.46884  1.0000
  S   S19       1.0  0.19787  0.48590  0.48324  1.0000
  H   H105      1.0  0.34252  0.40871  0.46386  1.0000
  C   C67       1.0  0.41425  0.63282  0.26540  1.0000
  H   H106      1.0  0.29455  0.63045  0.33521  1.0000
  H   H107      1.0  0.41149  0.64367  0.45410  1.0000
  H   H108      1.0  0.04583  0.46800  0.43735  1.0000
  C   C68       1.0  0.46036  0.50202  0.45003  1.0000
  C   C69       1.0  0.19434  0.64590  0.33741  1.0000
  H   H109      1.0  0.00159  0.60001  0.43215  1.0000
  H   H110      1.0  0.21771  0.45148  0.44522  1.0000
  H   H111      1.0  0.32510  0.55123  0.17455  1.0000
  C   C70       1.0  0.30143  0.62262  0.31219  1.0000
  H   H112      1.0  0.05190  0.50276  0.44841  1.0000
  C   C71       1.0  0.09612  0.44146  0.21154  1.0000
  H   H113      1.0  0.08037  0.37613  0.28698  1.0000
  H   H114      1.0  0.00923  0.54936  0.45667  1.0000
  C   C72       1.0  0.13671  0.55616  0.45196  1.0000
  H   H115      1.0  0.09806  0.40401  0.23008  1.0000
  C   C73       1.0  0.44784  0.36730  0.48618  1.0000
  C   C74       1.0  0.42879  0.49229  0.45528  1.0000
  H   H116      1.0  0.06448  0.45656  0.25243  1.0000
  H   H117      1.0  0.15712  0.53181  0.46566  1.0000
  C   C75       1.0  0.40618  0.64765  0.24143  1.0000
  H   H118      1.0  0.39032  0.58991  0.33316  1.0000
  N   N3        1.0  0.07927  0.41497  0.27404  1.0000
  H   H119      1.0  0.99641  0.45620  0.42948  1.0000
  C   C76       1.0  0.20068  0.63509  0.47385  1.0000
  H   H120      1.0  0.23180  0.64279  0.32512  1.0000
  H   H121      1.0  0.38235  0.62132  0.48592  1.0000
  C   C77       1.0  0.01419  0.37940  0.39313  1.0000
  H   H122      1.0  0.18382  0.63880  0.31231  1.0000
  H   H123      1.0  0.11359  0.45932  0.15824  1.0000
  C   C78       1.0  0.43959  0.64690  0.28270  1.0000
  H   H124      1.0  0.07225  0.39088  0.32408  1.0000
  H   H125      1.0  0.32439  0.63693  0.30582  1.0000
  H   H126      1.0  0.99220  0.35830  0.26055  1.0000
  H   H127      1.0  0.01627  0.36155  0.40311  1.0000
  H   H128      1.0  0.04813  0.37994  0.24665  1.0000
  H   H129      1.0  0.19273  0.62550  0.38906  1.0000
  H   H130      1.0  0.46420  0.36062  0.48803  1.0000
  H   H131      1.0  0.07685  0.48358  0.32428  1.0000
  H   H132      1.0  0.25687  0.65543  0.46047  1.0000
  C   C79       1.0  0.09947  0.42333  0.24159  1.0000
  H   H133      1.0  0.05169  0.63006  0.45885  1.0000
  H   H134      1.0  0.03033  0.39697  0.31598  1.0000
  H   H135      1.0  0.40105  0.61022  0.27023  1.0000
  H   H136      1.0  0.06297  0.49328  0.28704  1.0000
  H   H137      1.0  0.47254  0.58830  0.45393  1.0000
  Fe  Fe13      1.0  0.46871  0.62450  0.39796  1.0000
  H   H138      1.0  0.25315  0.43655  0.45991  1.0000
  H   H139      1.0  0.23332  0.65665  0.19719  1.0000
  C   C80       1.0  0.04827  0.63028  0.48795  1.0000
  H   H140      1.0  0.44122  0.36533  0.45853  1.0000
  H   H141      1.0  0.40363  0.65316  0.37354  1.0000
  C   C81       1.0  0.11958  0.39028  0.33810  1.0000
  C   C82       1.0  0.04939  0.39708  0.26330  1.0000
  H   H142      1.0  0.04274  0.40950  0.24610  1.0000
  C   C83       1.0  0.08572  0.39657  0.29888  1.0000
  H   H143      1.0  0.20610  0.59149  0.45160  1.0000
  C   C84       1.0  0.18283  0.61986  0.36335  1.0000
  H   H144      1.0  0.12169  0.43627  0.24884  1.0000
  H   H145      1.0  0.21044  0.63922  0.44632  1.0000
  H   H146      1.0  0.31393  0.51917  0.20193  1.0000
  H   H147      1.0  0.46983  0.50974  0.47560  1.0000
  C   C85       1.0  0.45214  0.57506  0.46746  1.0000
  H   H148      1.0  0.06151  0.48243  0.47798  1.0000
  H   H149      1.0  0.47714  0.41136  0.47644  1.0000
  C   C86       1.0  0.01022  0.57705  0.39306  1.0000
  C   C87       1.0  0.04557  0.48102  0.45932  1.0000
  H   H150      1.0  0.28948  0.62289  0.28906  1.0000
  H   H151      1.0  0.03820  0.58390  0.45101  1.0000
  H   H152      1.0  0.99941  0.48800  0.44477  1.0000
  C   C88       1.0  0.47463  0.52558  0.41968  1.0000
  H   H153      1.0  0.00786  0.55573  0.38946  1.0000
  C   C89       1.0  0.22385  0.47552  0.49132  1.0000
  H   H154      1.0  0.39774  0.65710  0.32736  1.0000
  H   H155      1.0  0.15609  0.63274  0.43867  1.0000
  H   H156      1.0  0.43885  0.62138  0.47637  1.0000
  H   H157      1.0  0.42547  0.51030  0.46205  1.0000
  C   C90       1.0  0.18634  0.65374  0.47865  1.0000
  H   H158      1.0  0.23393  0.65151  0.26557  1.0000
  H   H159      1.0  0.03285  0.59328  0.38824  1.0000
  H   H160      1.0  0.30667  0.40265  0.46549  1.0000
  H   H161      1.0  0.22727  0.56034  0.44970  1.0000
  H   H162      1.0  0.18269  0.61310  0.47490  1.0000
  C   C91       1.0  0.99361  0.46589  0.45367  1.0000
  H   H163      1.0  0.37022  0.64945  0.36118  1.0000
  C   C92       1.0  0.32529  0.40817  0.48135  1.0000
  H   H164      1.0  0.20590  0.55296  0.49034  1.0000
  H   H165      1.0  0.33266  0.42962  0.49107  1.0000
  H   H166      1.0  0.44247  0.40353  0.49370  1.0000
  H   H167      1.0  0.99442  0.39125  0.27368  1.0000
  H   H168      1.0  0.41909  0.47575  0.47740  1.0000
  H   H169      1.0  0.26427  0.34782  0.48794  1.0000
  N   N4        1.0  0.00978  0.57728  0.49662  1.0000
  H   H170      1.0  0.17420  0.61970  0.82365  1.0000
  H   H171      1.0  0.20160  0.44885  0.66808  1.0000
  H   H172      1.0  0.25151  0.53900  0.73579  1.0000
  H   H173      1.0  0.46941  0.57200  0.51677  1.0000
  H   H174      1.0  0.24218  0.39945  0.62025  1.0000
  Fe  Fe14      1.0  0.35253  0.44205  0.61175  1.0000
  S   S20       1.0  0.37238  0.48392  0.63720  1.0000
  S   S21       1.0  0.36648  0.41041  0.63258  1.0000
  Fe  Fe15      1.0  0.31943  0.46133  0.56265  1.0000
  S   S22       1.0  0.33848  0.50485  0.58293  1.0000
  H   H175      1.0  0.08365  0.55388  0.69838  1.0000
  Fe  Fe16      1.0  0.37879  0.50249  0.58168  1.0000
  S   S23       1.0  0.42225  0.53722  0.56469  1.0000
  Fe  Fe17      1.0  0.33039  0.48276  0.63700  1.0000
  S   S24       1.0  0.30768  0.49353  0.68079  1.0000
  S   S25       1.0  0.36109  0.46115  0.55601  1.0000
  S   S26       1.0  0.30916  0.43881  0.61694  1.0000
  Fe  Fe18      1.0  0.33565  0.63477  0.77061  1.0000
  C   C93       1.0  0.22579  0.38037  0.60828  1.0000
  S   S27       1.0  0.36017  0.61413  0.74732  1.0000
  H   H176      1.0  0.24941  0.48969  0.67488  1.0000
  H   H177      1.0  0.20687  0.57492  0.60207  1.0000
  H   H178      1.0  0.24950  0.57002  0.60862  1.0000
  S   S28       1.0  0.24115  0.61761  0.73958  1.0000
  S   S29       1.0  0.29425  0.61314  0.80263  1.0000
  C   C94       1.0  0.19801  0.55460  0.58886  1.0000
  Fe  Fe19      1.0  0.07547  0.61268  0.60884  1.0000
  S   S30       1.0  0.10460  0.60046  0.63646  1.0000
  S   S31       1.0  0.02850  0.58055  0.62221  1.0000
  H   H179      1.0  0.26134  0.48362  0.63236  1.0000
  Fe  Fe20      1.0  0.12499  0.60416  0.58276  1.0000
  S   S32       1.0  0.13907  0.57280  0.56923  1.0000
  H   H180      1.0  0.24838  0.39033  0.55783  1.0000
  H   H181      1.0  0.22692  0.55668  0.67421  1.0000
  S   S33       1.0  0.09453  0.61341  0.55478  1.0000
  C   C95       1.0  0.22193  0.63330  0.72138  1.0000
  C   C96       1.0  0.39937  0.53881  0.50198  1.0000
  H   H182      1.0  0.41045  0.55674  0.88047  1.0000
  H   H183      1.0  0.19836  0.53015  0.63441  1.0000
  S   S34       1.0  0.15761  0.64940  0.58543  1.0000
  C   C97       1.0  0.22207  0.64955  0.60191  1.0000
  C   C98       1.0  0.40796  0.36419  0.62773  1.0000
  C   C99       1.0  0.42401  0.54762  0.52011  1.0000
  H   H184      1.0  0.08267  0.54385  0.78812  1.0000
  H   H185      1.0  0.27485  0.56837  0.65707  1.0000
  H   H186      1.0  0.39503  0.61331  0.57470  1.0000
  C   C100      1.0  0.20162  0.61842  0.69704  1.0000
  H   H187      1.0  0.11427  0.62334  0.72801  1.0000
  H   H188      1.0  0.41529  0.64574  0.53243  1.0000
  H   H189      1.0  0.12636  0.58258  0.80528  1.0000
  C   C101      1.0  0.32269  0.52708  0.69926  1.0000
  C   C102      1.0  0.35104  0.54734  0.69185  1.0000
  C   C103      1.0  0.36216  0.57392  0.70667  1.0000
  C   C104      1.0  0.34494  0.58072  0.72846  1.0000
  C   C105      1.0  0.31654  0.56045  0.73582  1.0000
  C   C106      1.0  0.30568  0.53357  0.72189  1.0000
  H   H190      1.0  0.36449  0.54231  0.67520  1.0000
  H   H191      1.0  0.38424  0.58930  0.70120  1.0000
  H   H192      1.0  0.30314  0.56532  0.75280  1.0000
  H   H193      1.0  0.28391  0.51775  0.72845  1.0000
  C   C107      1.0  0.13729  0.56603  0.52424  1.0000
  C   C108      1.0  0.41018  0.61170  0.59216  1.0000
  C   C109      1.0  0.99490  0.57673  0.61219  1.0000
  C   C110      1.0  0.32586  0.56957  0.57161  1.0000
  H   H194      1.0  0.02918  0.57915  0.54624  1.0000
  C   C111      1.0  0.12281  0.59882  0.79082  1.0000
  H   H195      1.0  0.21374  0.44332  0.62517  1.0000
  H   H196      1.0  0.15608  0.53906  0.52958  1.0000
  C   C112      1.0  0.39496  0.58221  0.61098  1.0000
  H   H197      1.0  0.16396  0.61732  0.76019  1.0000
  H   H198      1.0  0.36586  0.62540  0.83182  1.0000
  C   C113      1.0  0.25929  0.47598  0.53033  1.0000
  H   H199      1.0  0.27982  0.33625  0.63481  1.0000
  C   C114      1.0  0.02851  0.57083  0.51953  1.0000
  H   H200      1.0  0.27063  0.48265  0.55414  1.0000
  H   H201      1.0  0.20162  0.59298  0.51784  1.0000
  H   H202      1.0  0.01840  0.53602  0.79539  1.0000
  N   N5        1.0  0.45249  0.64322  0.54715  1.0000
  H   H203      1.0  0.38680  0.58247  0.93442  1.0000
  H   H204      1.0  0.33718  0.39246  0.52664  1.0000
  C   C115      1.0  0.40356  0.35400  0.59375  1.0000
  H   H205      1.0  0.41711  0.61629  0.84246  1.0000
  C   C116      1.0  0.37969  0.38189  0.58103  1.0000
  C   C117      1.0  0.38283  0.39095  0.61562  1.0000
  C   C118      1.0  0.39725  0.38211  0.63871  1.0000
  S   S35       1.0  0.30409  0.63599  0.89942  1.0000
  C   C119      1.0  0.11827  0.54673  0.68434  1.0000
  H   H206      1.0  0.36878  0.38845  0.56293  1.0000
  H   H207      1.0  0.39967  0.38871  0.66564  1.0000
  H   H208      1.0  0.27949  0.38898  0.52235  1.0000
  H   H209      1.0  0.41495  0.63371  0.78230  1.0000
  C   C120      1.0  0.22032  0.45157  0.65168  1.0000
  Fe  Fe21      1.0  0.31312  0.64956  0.83894  1.0000
  H   H210      1.0  0.46952  0.62299  0.51294  1.0000
  H   H211      1.0  0.41257  0.44846  0.56259  1.0000
  N   N6        1.0  0.10292  0.58559  0.76168  1.0000
  H   H212      1.0  0.04994  0.58324  0.74170  1.0000
  C   C121      1.0  0.29437  0.38558  0.53842  1.0000
  H   H213      1.0  0.20967  0.38547  0.59823  1.0000
  H   H214      1.0  0.43612  0.41893  0.54860  1.0000
  H   H215      1.0  0.05065  0.58176  0.50790  1.0000
  C   C122      1.0  0.24507  0.55321  0.72196  1.0000
  H   H216      1.0  0.03357  0.52063  0.82496  1.0000
  C   C123      1.0  0.31846  0.56131  0.83633  1.0000
  H   H217      1.0  0.43243  0.59767  0.55614  1.0000
  H   H218      1.0  0.45857  0.44833  0.51911  1.0000
  H   H219      1.0  0.08893  0.53148  0.72977  1.0000
  C   C124      1.0  0.21347  0.64264  0.53652  1.0000
  H   H220      1.0  0.13406  0.54246  0.69714  1.0000
  C   C125      1.0  0.26130  0.33301  0.54375  1.0000
  S   S36       1.0  0.41385  0.32889  0.57948  1.0000
  H   H221      1.0  0.45253  0.38533  0.55237  1.0000
  H   H222      1.0  0.46675  0.41273  0.60231  1.0000
  C   C126      1.0  0.25963  0.54533  0.66065  1.0000
  H   H223      1.0  0.12961  0.56564  0.66556  1.0000
  C   C127      1.0  0.45727  0.43833  0.54589  1.0000
  Fe  Fe22      1.0  0.28198  0.64004  0.76845  1.0000
  H   H224      1.0  0.24860  0.34451  0.60858  1.0000
  H   H225      1.0  0.13292  0.57120  0.74703  1.0000
  C   C128      1.0  0.17044  0.63605  0.81014  1.0000
  H   H226      1.0  0.37582  0.57948  0.62629  1.0000
  H   H227      1.0  0.22149  0.35363  0.56607  1.0000
  S   S37       1.0  0.28889  0.44659  0.51815  1.0000
  C   C129      1.0  0.15227  0.62405  0.77865  1.0000
  C   C130      1.0  0.43376  0.46710  0.56489  1.0000
  H   H228      1.0  0.32858  0.34557  0.63866  1.0000
  C   C131      1.0  0.26098  0.36394  0.59085  1.0000
  H   H229      1.0  0.21759  0.52086  0.68937  1.0000
  H   H230      1.0  0.41555  0.62711  0.61300  1.0000
  H   H231      1.0  0.24457  0.54672  0.57420  1.0000
  C   C132      1.0  0.07692  0.55990  0.77805  1.0000
  H   H232      1.0  0.32512  0.59891  0.93622  1.0000
  C   C133      1.0  0.47001  0.40155  0.53433  1.0000
  H   H233      1.0  0.23514  0.49764  0.53926  1.0000
  C   C134      1.0  0.40720  0.62996  0.83986  1.0000
  H   H234      1.0  0.41853  0.35730  0.64614  1.0000
  H   H235      1.0  0.45156  0.61643  0.59169  1.0000
  C   C135      1.0  0.11801  0.57693  0.73419  1.0000
  N   N7        1.0  0.25212  0.53261  0.62515  1.0000
  N   N8        1.0  0.35934  0.59462  0.87409  1.0000
  Fe  Fe23      1.0  0.13514  0.64668  0.63747  1.0000
  C   C136      1.0  0.37468  0.61146  0.83998  1.0000
  C   C137      1.0  0.32802  0.58015  0.86850  1.0000
  C   C138      1.0  0.36774  0.57230  0.88285  1.0000
  C   C139      1.0  0.39302  0.58072  0.90670  1.0000
  H   H236      1.0  0.06417  0.62663  0.50118  1.0000
  H   H237      1.0  0.32456  0.57488  0.81136  1.0000
  S   S38       1.0  0.48324  0.34189  0.63301  1.0000
  H   H238      1.0  0.36402  0.64100  0.96416  1.0000
  C   C140      1.0  0.40267  0.55844  0.90744  1.0000
  H   H239      1.0  0.28017  0.53046  0.81371  1.0000
  N   N9        1.0  0.27897  0.35935  0.56308  1.0000
  C   C141      1.0  0.43359  0.64479  0.51982  1.0000
  H   H240      1.0  0.99957  0.52695  0.54067  1.0000
  H   H241      1.0  0.37106  0.59719  0.81798  1.0000
  H   H242      1.0  0.07025  0.58458  0.70235  1.0000
  H   H243      1.0  0.32076  0.59615  0.86511  1.0000
  H   H244      1.0  0.31563  0.56647  0.89239  1.0000
  H   H245      1.0  0.34970  0.55316  0.89671  1.0000
  H   H246      1.0  0.37254  0.56457  0.85794  1.0000
  H   H247      1.0  0.36032  0.63204  0.89425  1.0000
  H   H248      1.0  0.41146  0.60130  0.89782  1.0000
  C   C142      1.0  0.35977  0.61897  0.96981  1.0000
  C   C143      1.0  0.09620  0.60758  0.74584  1.0000
  H   H249      1.0  0.38499  0.53745  0.91735  1.0000
  H   H250      1.0  0.19899  0.59842  0.68866  1.0000
  H   H251      1.0  0.01423  0.61094  0.52926  1.0000
  C   C144      1.0  0.34642  0.60097  0.93851  1.0000
  H   H252      1.0  0.02146  0.54408  0.84138  1.0000
  C   C145      1.0  0.26444  0.45861  0.50810  1.0000
  H   H253      1.0  0.34337  0.57945  0.94471  1.0000
  H   H254      1.0  0.47578  0.47674  0.57695  1.0000
  H   H255      1.0  0.06360  0.63374  0.73024  1.0000
  H   H256      1.0  0.16864  0.61717  0.66545  1.0000
  C   C146      1.0  0.28637  0.54241  0.83807  1.0000
  H   H257      1.0  0.21536  0.36274  0.62901  1.0000
  H   H258      1.0  0.41359  0.64493  0.86126  1.0000
  H   H259      1.0  0.09386  0.62035  0.76689  1.0000
  H   H260      1.0  0.04741  0.61332  0.69286  1.0000
  C   C147      1.0  0.29825  0.62847  0.97307  1.0000
  C   C148      1.0  0.18437  0.62900  0.68386  1.0000
  H   H261      1.0  0.27405  0.52504  0.58141  1.0000
  H   H262      1.0  0.26316  0.57516  0.71971  1.0000
  H   H263      1.0  0.27105  0.53629  0.67526  1.0000
  H   H264      1.0  0.43189  0.47981  0.58625  1.0000
  H   H265      1.0  0.15018  0.64144  0.76516  1.0000
  H   H266      1.0  0.27558  0.55536  0.83983  1.0000
  C   C149      1.0  0.31356  0.64730  0.94361  1.0000
  H   H267      1.0  0.22895  0.43898  0.66491  1.0000
  C   C150      1.0  0.23897  0.37206  0.57760  1.0000
  C   C151      1.0  0.06937  0.59679  0.72458  1.0000
  H   H268      1.0  0.28074  0.60792  0.96856  1.0000
  H   H269      1.0  0.16015  0.64380  0.82940  1.0000
  H   H270      1.0  0.22761  0.55325  0.73837  1.0000
  H   H271      1.0  0.27485  0.38055  0.60838  1.0000
  S   S39       1.0  0.47846  0.32540  0.54958  1.0000
  H   H272      1.0  0.34177  0.59197  0.56435  1.0000
  H   H273      1.0  0.29235  0.57943  0.57923  1.0000
  H   H274      1.0  0.21188  0.49614  0.64335  1.0000
  H   H275      1.0  0.29032  0.52883  0.62246  1.0000
  H   H276      1.0  0.05848  0.58411  0.80342  1.0000
  C   C152      1.0  0.30101  0.35553  0.58229  1.0000
  H   H277      1.0  0.31057  0.58028  0.61841  1.0000
  C   C153      1.0  0.24308  0.48271  0.64790  1.0000
  C   C154      1.0  0.03187  0.53989  0.81822  1.0000
  H   H278      1.0  0.08517  0.63586  0.69125  1.0000
  C   C155      1.0  0.30144  0.56833  0.59469  1.0000
  H   H279      1.0  0.17458  0.54473  0.59115  1.0000
  H   H280      1.0  0.31813  0.55855  0.54685  1.0000
  C   C156      1.0  0.23961  0.54719  0.60303  1.0000
  C   C157      1.0  0.27911  0.53715  0.60579  1.0000
  H   H281      1.0  0.20512  0.55874  0.56029  1.0000
  H   H282      1.0  0.22625  0.49281  0.60221  1.0000
  C   C158      1.0  0.20695  0.53459  0.60651  1.0000
  C   C159      1.0  0.06116  0.56537  0.80941  1.0000
  C   C160      1.0  0.09981  0.55121  0.71228  1.0000
  C   C161      1.0  0.02040  0.53916  0.52566  1.0000
  H   H283      1.0  0.23683  0.34916  0.51401  1.0000
  C   C162      1.0  0.12657  0.57845  0.50067  1.0000
  H   H284      1.0  0.40885  0.57932  0.62962  1.0000
  C   C163      1.0  0.23912  0.48434  0.52194  1.0000
  H   H285      1.0  0.19664  0.51433  0.59311  1.0000
  H   H286      1.0  0.00956  0.62059  0.59720  1.0000
  C   C164      1.0  0.38953  0.36320  0.57042  1.0000
  C   C165      1.0  0.23210  0.50107  0.62895  1.0000
  C   C166      1.0  0.23504  0.54295  0.68537  1.0000
  H   H287      1.0  0.31455  0.35131  0.56329  1.0000
  H   H288      1.0  0.06147  0.54934  0.75771  1.0000
  H   H289      1.0  0.38601  0.35555  0.54404  1.0000
  H   H290      1.0  0.38832  0.56567  0.59141  1.0000
  H   H291      1.0  0.30462  0.40474  0.55400  1.0000
  H   H292      1.0  0.11348  0.60697  0.81094  1.0000
  H   H293      1.0  0.31562  0.37546  0.59468  1.0000
  H   H294      1.0  0.27923  0.52701  0.86145  1.0000
  C   C167      1.0  0.31769  0.38636  0.51246  1.0000
  C   C168      1.0  0.43744  0.61664  0.57126  1.0000
  H   H295      1.0  0.10482  0.52837  0.66885  1.0000
  H   H296      1.0  0.32828  0.54749  0.83496  1.0000
  C   C169      1.0  0.41935  0.64765  0.80478  1.0000
  H   H297      1.0  0.19128  0.65412  0.80058  1.0000
  H   H298      1.0  0.23905  0.61074  0.51918  1.0000
  H   H299      1.0  0.13152  0.59511  0.71508  1.0000
  H   H300      1.0  0.07322  0.56906  0.83358  1.0000
  H   H301      1.0  0.37894  0.52484  0.51530  1.0000
  H   H302      1.0  0.06330  0.54661  0.53272  1.0000
  C   C170      1.0  0.04214  0.53603  0.54726  1.0000
  C   C171      1.0  0.45524  0.45759  0.57412  1.0000
  H   H303      1.0  0.33629  0.55944  0.58632  1.0000
  C   C172      1.0  0.06628  0.62151  0.70886  1.0000
  C   C173      1.0  0.14772  0.54871  0.51157  1.0000
  H   H304      1.0  0.44795  0.44561  0.60040  1.0000
  H   H305      1.0  0.19177  0.62539  0.54512  1.0000
  C   C174      1.0  0.47698  0.64259  0.52743  1.0000
  H   H306      1.0  0.04381  0.54544  0.57332  1.0000
  C   C175      1.0  0.01762  0.60785  0.50083  1.0000
  C   C176      1.0  0.28952  0.33115  0.61175  1.0000
  C   C177      1.0  0.23329  0.64510  0.56639  1.0000
  C   C178      1.0  0.18667  0.65421  0.69564  1.0000
  C   C179      1.0  0.36458  0.61464  0.90324  1.0000
  H   H307      1.0  0.44055  0.48045  0.53966  1.0000
  H   H308      1.0  0.23495  0.62558  0.57026  1.0000
  C   C180      1.0  0.45037  0.56545  0.50277  1.0000
  H   H309      1.0  0.42021  0.56459  0.92540  1.0000
  H   H310      1.0  0.38711  0.62557  0.90941  1.0000
  C   C181      1.0  0.99138  0.59963  0.60063  1.0000
  C   C182      1.0  0.24778  0.33667  0.50983  1.0000
  H   H311      1.0  0.11903  0.59225  0.51000  1.0000
  H   H312      1.0  0.03562  0.51328  0.55226  1.0000
  H   H313      1.0  0.42914  0.35292  0.50407  1.0000
  H   H314      1.0  0.20082  0.63134  0.60953  1.0000
  H   H315      1.0  0.37991  0.61931  0.97530  1.0000
  H   H316      1.0  0.31111  0.36541  0.50171  1.0000
  H   H317      1.0  0.17036  0.64483  0.50153  1.0000
  H   H318      1.0  0.41030  0.59951  0.50879  1.0000
  C   C183      1.0  0.22158  0.60919  0.50328  1.0000
  N   N10       1.0  0.48053  0.43049  0.54852  1.0000
  N   N11       1.0  0.22191  0.63732  0.50019  1.0000
  H   H319      1.0  0.01781  0.48061  0.50133  1.0000
  C   C184      1.0  0.31321  0.32655  0.62564  1.0000
  H   H320      1.0  0.01956  0.52934  0.50021  1.0000
  H   H321      1.0  0.34511  0.60998  0.99389  1.0000
  H   H322      1.0  0.23644  0.65109  0.62294  1.0000
  H   H323      1.0  0.34682  0.95599  0.44086  1.0000
  Fe  Fe24      1.0  0.34259  0.70013  0.18488  1.0000
  C   C185      1.0  0.28829  0.71119  0.47553  1.0000
  S   S40       1.0  0.36198  0.74457  0.20436  1.0000
  H   H324      1.0  0.42207  0.72083  0.28693  1.0000
  H   H325      1.0  0.24527  0.69339  0.46239  1.0000
  H   H326      1.0  0.48187  0.74615  0.31005  1.0000
  H   H327      1.0  0.44456  0.98439  0.36275  1.0000
  H   H328      1.0  0.38597  0.86421  0.44310  1.0000
  H   H329      1.0  0.18803  0.66086  0.34861  1.0000
  Fe  Fe25      1.0  0.32271  0.86069  0.38943  1.0000
  S   S41       1.0  0.34730  0.85096  0.34787  1.0000
  S   S42       1.0  0.32869  0.90301  0.40856  1.0000
  Fe  Fe26      1.0  0.29172  0.79846  0.42242  1.0000
  S   S43       1.0  0.31456  0.78461  0.38399  1.0000
  S   S44       1.0  0.26947  0.77260  0.47389  1.0000
  Fe  Fe27      1.0  0.35327  0.82574  0.39175  1.0000
  S   S45       1.0  0.39458  0.82630  0.39893  1.0000
  Fe  Fe28      1.0  0.30657  0.81034  0.34284  1.0000
  S   S46       1.0  0.29035  0.78966  0.29133  1.0000
  S   S47       1.0  0.33131  0.83762  0.43337  1.0000
  S   S48       1.0  0.28081  0.82181  0.38090  1.0000
  H   H330      1.0  0.42037  0.91327  0.40048  1.0000
  C   C186      1.0  0.21278  0.74511  0.45898  1.0000
  H   H331      1.0  0.21934  0.75645  0.43325  1.0000
  C   C187      1.0  0.34160  0.75654  0.22862  1.0000
  C   C188      1.0  0.35273  0.77263  0.25807  1.0000
  C   C189      1.0  0.33715  0.78271  0.27768  1.0000
  C   C190      1.0  0.31082  0.77783  0.26702  1.0000
  C   C191      1.0  0.30023  0.76279  0.23668  1.0000
  C   C192      1.0  0.31521  0.75157  0.21803  1.0000
  H   H332      1.0  0.37336  0.77712  0.26604  1.0000
  H   H333      1.0  0.34572  0.79459  0.30075  1.0000
  H   H334      1.0  0.28029  0.75974  0.22773  1.0000
  H   H335      1.0  0.30674  0.73983  0.19485  1.0000
  H   H336      1.0  0.41398  0.74686  0.33939  1.0000
  S   S49       1.0  0.30472  0.67811  0.15281  1.0000
  C   C193      1.0  0.43257  0.74412  0.28840  1.0000
  H   H337      1.0  0.44630  0.70193  0.36991  1.0000
  C   C194      1.0  0.23300  0.74915  0.48331  1.0000
  C   C195      1.0  0.40442  0.69291  0.35824  1.0000
  C   C196      1.0  0.46390  0.78128  0.39467  1.0000
  H   H338      1.0  0.44197  0.70365  0.32425  1.0000
  H   H339      1.0  0.34170  0.78374  0.10655  1.0000
  C   C197      1.0  0.18386  0.72674  0.46835  1.0000
  C   C198      1.0  0.43118  0.93313  0.38330  1.0000
  C   C199      1.0  0.40951  0.84192  0.43799  1.0000
  H   H340      1.0  0.35641  0.82752  0.13794  1.0000
  C   C200      1.0  0.43540  0.75294  0.32734  1.0000
  C   C201      1.0  0.36924  0.94503  0.36085  1.0000
  C   C202      1.0  0.35400  0.93846  0.39372  1.0000
  C   C203      1.0  0.35867  0.96072  0.41554  1.0000
  H   H341      1.0  0.36570  0.92826  0.34354  1.0000
  H   H342      1.0  0.44051  0.77778  0.44470  1.0000
  H   H343      1.0  0.20759  0.69577  0.30214  1.0000
  H   H344      1.0  0.27984  0.71138  0.04179  1.0000
  C   C204      1.0  0.40029  0.85864  0.45529  1.0000
  C   C205      1.0  0.23045  0.70518  0.30699  1.0000
  C   C206      1.0  0.27200  0.69843  0.30477  1.0000
  H   H345      1.0  0.45370  0.75344  0.27405  1.0000
  C   C207      1.0  0.24822  0.69056  0.23391  1.0000
  C   C208      1.0  0.23555  0.71915  0.34314  1.0000
  H   H346      1.0  0.43799  0.82480  0.43871  1.0000
  H   H347      1.0  0.41789  0.68850  0.21635  1.0000
  H   H348      1.0  0.31060  0.74864  0.07898  1.0000
  C   C209      1.0  0.22125  0.73744  0.34618  1.0000
  N   N12       1.0  0.36974  0.76814  0.08763  1.0000
  H   H349      1.0  0.30711  0.70244  0.03120  1.0000
  H   H350      1.0  0.22644  0.74831  0.37137  1.0000
  H   H351      1.0  0.41086  0.75898  0.05242  1.0000
  C   C210      1.0  0.25138  0.65970  0.48735  1.0000
  H   H352      1.0  0.24144  0.72306  0.28659  1.0000
  H   H353      1.0  0.28242  0.71699  0.28529  1.0000
  H   H354      1.0  0.27786  0.70742  0.33107  1.0000
  C   C211      1.0  0.39166  0.76223  0.10365  1.0000
  H   H355      1.0  0.23012  0.86385  0.43357  1.0000
  H   H356      1.0  0.24859  0.71111  0.23481  1.0000
  N   N13       1.0  0.44922  0.95836  0.40415  1.0000
  H   H357      1.0  0.25850  0.73333  0.34564  1.0000
  H   H358      1.0  0.27895  0.66340  0.32223  1.0000
  C   C212      1.0  0.41056  0.86926  0.48788  1.0000
  H   H359      1.0  0.27029  0.69434  0.23188  1.0000
  C   C213      1.0  0.39422  0.94081  0.48496  1.0000
  C   C214      1.0  0.41494  0.75439  0.26843  1.0000
  H   H360      1.0  0.34499  0.76043  0.13715  1.0000
  H   H361      1.0  0.35552  0.73263  0.05412  1.0000
  H   H362      1.0  0.40644  0.80413  0.06073  1.0000
  C   C215      1.0  0.44958  0.69079  0.25135  1.0000
  H   H363      1.0  0.39990  0.97826  0.32414  1.0000
  H   H364      1.0  0.29171  0.73313  0.47260  1.0000
  H   H365      1.0  0.22898  0.75392  0.32392  1.0000
  H   H366      1.0  0.19792  0.72421  0.34607  1.0000
  C   C216      1.0  0.42624  0.90065  0.33415  1.0000
  H   H367      1.0  0.40676  0.83889  0.01214  1.0000
  H   H368      1.0  0.38254  0.74822  0.12840  1.0000
  H   H369      1.0  0.45811  0.84568  0.49510  1.0000
  S   S50       1.0  0.36945  0.68747  0.15142  1.0000
  C   C217      1.0  0.38369  0.78975  0.05661  1.0000
  H   H370      1.0  0.39302  0.69941  0.33961  1.0000
  H   H371      1.0  0.43881  0.73814  0.07790  1.0000
  C   C218      1.0  0.25691  0.69058  0.48431  1.0000
  H   H372      1.0  0.42572  0.73924  0.12203  1.0000
  H   H373      1.0  0.45576  0.73819  0.40661  1.0000
  H   H374      1.0  0.45712  0.93077  0.46931  1.0000
  N   N14       1.0  0.24035  0.68366  0.30262  1.0000
  C   C219      1.0  0.25093  0.86543  0.42638  1.0000
  H   H375      1.0  0.45565  0.94499  0.33160  1.0000
  C   C220      1.0  0.35734  0.77807  0.11669  1.0000
  H   H376      1.0  0.34799  0.80257  0.17561  1.0000
  H   H377      1.0  0.29160  0.69625  0.07608  1.0000
  C   C221      1.0  0.43691  0.70993  0.35006  1.0000
  H   H378      1.0  0.18668  0.66590  0.42297  1.0000
  C   C222      1.0  0.36522  0.81798  0.15664  1.0000
  H   H379      1.0  0.38112  0.83502  0.17193  1.0000
  H   H380      1.0  0.23637  0.66745  0.35713  1.0000
  H   H381      1.0  0.42568  0.74129  0.39717  1.0000
  C   C223      1.0  0.45764  0.67589  0.27528  1.0000
  H   H382      1.0  0.38918  0.79598  0.15614  1.0000
  H   H383      1.0  0.41346  0.91908  0.45964  1.0000
  C   C224      1.0  0.47369  0.95637  0.41917  1.0000
  H   H384      1.0  0.39297  0.74428  0.28057  1.0000
  C   C225      1.0  0.44665  0.92719  0.35214  1.0000
  H   H385      1.0  0.32687  0.71226  0.27652  1.0000
  H   H386      1.0  0.16826  0.72386  0.44956  1.0000
  H   H387      1.0  0.41396  0.74849  0.24045  1.0000
  N   N15       1.0  0.45028  0.74169  0.35044  1.0000
  C   C226      1.0  0.43090  0.74953  0.09479  1.0000
  C   C227      1.0  0.40664  0.93447  0.45177  1.0000
  C   C228      1.0  0.32089  0.74066  0.06017  1.0000
  H   H388      1.0  0.39629  0.81955  0.11799  1.0000
  H   H389      1.0  0.37615  0.82522  0.06846  1.0000
  H   H390      1.0  0.24107  0.82668  0.45529  1.0000
  C   C229      1.0  0.29856  0.71084  0.05190  1.0000
  C   C230      1.0  0.43043  0.83728  0.45238  1.0000
  H   H391      1.0  0.39877  0.69590  0.38568  1.0000
  C   C231      1.0  0.48067  0.75449  0.33623  1.0000
  C   C232      1.0  0.37850  0.98913  0.40489  1.0000
  H   H392      1.0  0.28980  0.83179  0.48954  1.0000
  H   H393      1.0  0.33913  0.72390  0.09775  1.0000
  H   H394      1.0  0.40963  0.78216  0.11190  1.0000
  H   H395      1.0  0.46345  0.71319  0.24536  1.0000
  C   C233      1.0  0.43119  0.96184  0.43304  1.0000
  C   C234      1.0  0.37917  0.80350  0.13648  1.0000
  C   C235      1.0  0.34689  0.74046  0.07549  1.0000
  H   H396      1.0  0.29567  0.70640  0.45017  1.0000
  H   H397      1.0  0.44795  0.77182  0.09560  1.0000
  C   C236      1.0  0.44817  0.74921  0.38810  1.0000
  C   C237      1.0  0.37107  0.80953  0.04801  1.0000
  H   H398      1.0  0.34782  0.79785  0.04716  1.0000
  H   H399      1.0  0.26747  0.88809  0.42393  1.0000
  H   H400      1.0  0.44470  0.97529  0.45364  1.0000
  H   H401      1.0  0.38388  0.77896  0.03210  1.0000
  H   H402      1.0  0.38712  0.95645  0.47832  1.0000
  C   C238      1.0  0.44158  0.84885  0.48444  1.0000
  H   H403      1.0  0.20153  0.67582  0.48380  1.0000
  C   C239      1.0  0.23183  0.67092  0.26720  1.0000
  C   C240      1.0  0.38865  0.97345  0.34992  1.0000
  H   H404      1.0  0.22727  0.70327  0.36595  1.0000
  C   C241      1.0  0.28618  0.67975  0.30003  1.0000
  H   H405      1.0  0.38919  0.72566  0.07713  1.0000
  H   H406      1.0  0.41717  0.88182  0.35325  1.0000
  H   H407      1.0  0.24991  0.85651  0.40013  1.0000
  H   H408      1.0  0.43765  0.89679  0.31185  1.0000
  H   H409      1.0  0.45402  0.79237  0.38079  1.0000
  C   C242      1.0  0.25811  0.84904  0.45414  1.0000
  H   H410      1.0  0.47230  0.77511  0.44931  1.0000
  H   H411      1.0  0.35741  0.79250  0.47622  1.0000
  C   C243      1.0  0.40467  0.74834  0.07942  1.0000
  C   C244      1.0  0.26124  0.86196  0.49073  1.0000
  H   H412      1.0  0.45172  0.90991  0.43103  1.0000
  H   H413      1.0  0.41373  0.93568  0.37232  1.0000
  H   H414      1.0  0.46386  0.92364  0.36166  1.0000
  H   H415      1.0  0.32726  0.75367  0.03475  1.0000
  H   H416      1.0  0.40876  0.90326  0.32345  1.0000
  H   H417      1.0  0.42447  0.77777  0.26848  1.0000
  C   C245      1.0  0.46140  0.98443  0.37885  1.0000
  H   H418      1.0  0.38938  0.92408  0.43354  1.0000
  H   H419      1.0  0.24755  0.69171  0.17655  1.0000
  C   C246      1.0  0.31833  0.69753  0.30043  1.0000
  H   H420      1.0  0.07623  0.67568  0.48661  1.0000
  H   H421      1.0  0.32812  0.68368  0.30008  1.0000
  H   H422      1.0  0.15901  0.66580  0.45110  1.0000
  H   H423      1.0  0.44681  0.77651  0.32585  1.0000
  C   C247      1.0  0.42376  0.67685  0.23489  1.0000
  H   H424      1.0  0.42055  0.97335  0.42194  1.0000
  H   H425      1.0  0.47738  0.98444  0.35944  1.0000
  C   C248      1.0  0.46644  0.92964  0.44315  1.0000
  H   H426      1.0  0.32450  0.70986  0.32448  1.0000
  C   C249      1.0  0.46271  0.78593  0.43422  1.0000
  C   C250      1.0  0.23459  0.67758  0.19980  1.0000
  S   S51       1.0  0.33859  0.67256  0.05930  1.0000
  H   H427      1.0  0.27942  0.88397  0.48745  1.0000
  C   C251      1.0  0.32811  0.66213  0.01510  1.0000
  H   H428      1.0  0.24231  0.86443  0.49589  1.0000
  H   H429      1.0  0.47489  0.80892  0.43849  1.0000
  H   H430      1.0  0.27826  0.85017  0.44461  1.0000
  H   H431      1.0  0.20904  0.66363  0.26418  1.0000
  H   H432      1.0  0.48590  0.97454  0.43556  1.0000
  S   S52       1.0  0.46468  0.66322  0.38822  1.0000
  H   H433      1.0  0.21298  0.67502  0.19947  1.0000
  H   H434      1.0  0.28114  0.66903  0.27476  1.0000
  C   C252      1.0  0.38337  0.82606  0.01226  1.0000
  C   C253      1.0  0.39342  0.66123  0.35490  1.0000
  H   H435      1.0  0.37464  0.84059  0.00724  1.0000
  S   S53       1.0  0.32899  0.66365  0.22454  1.0000
  Fe  Fe29      1.0  0.33049  0.66291  0.12060  1.0000
  H   H436      1.0  0.03951  0.66560  0.48260  1.0000
  C   C254      1.0  0.22698  0.66005  0.33134  1.0000
  H   H437      1.0  0.34652  0.75748  0.49513  1.0000
  C   C255      1.0  0.05419  0.66007  0.49610  1.0000
  H   H438      1.0  0.37568  0.92101  0.49637  1.0000
  H   H439      1.0  0.24483  0.87048  0.61710  1.0000
  S   S54       1.0  0.44474  0.87957  0.54205  1.0000
  C   C256      1.0  0.35893  0.77420  0.56576  1.0000
  C   C257      1.0  0.46444  0.66946  0.56821  1.0000
  Fe  Fe30      1.0  0.33917  0.69254  0.77401  1.0000
  S   S55       1.0  0.36344  0.73931  0.75546  1.0000
  H   H440      1.0  0.43667  0.76799  0.53592  1.0000
  S   S56       1.0  0.16234  0.66574  0.68376  1.0000
  H   H441      1.0  0.39571  0.81337  0.65832  1.0000
  H   H442      1.0  0.29207  0.87797  0.55654  1.0000
  H   H443      1.0  0.33077  0.82362  0.50857  1.0000
  H   H444      1.0  0.47998  0.73766  0.52134  1.0000
  H   H445      1.0  0.38567  0.74250  0.55593  1.0000
  H   H446      1.0  0.18887  0.70600  0.55245  1.0000
  H   H447      1.0  0.32863  0.77662  0.50974  1.0000
  H   H448      1.0  0.20645  0.82398  0.51455  1.0000
  C   C258      1.0  0.30274  0.83229  0.54242  1.0000
  H   H449      1.0  0.39470  0.73792  0.60045  1.0000
  H   H450      1.0  0.23964  0.73800  0.53603  1.0000
  C   C259      1.0  0.45825  0.70617  0.60202  1.0000
  C   C260      1.0  0.41064  0.85609  0.63913  1.0000
  C   C261      1.0  0.43137  0.86462  0.50229  1.0000
  Fe  Fe31      1.0  0.12581  0.65901  0.56174  1.0000
  H   H451      1.0  0.34763  0.85837  0.52604  1.0000
  H   H452      1.0  0.38066  0.76559  0.64714  1.0000
  S   S57       1.0  0.29744  0.67481  0.80666  1.0000
  S   S58       1.0  0.47205  0.79367  0.64644  1.0000
  H   H453      1.0  0.47922  0.72334  0.59115  1.0000
  H   H454      1.0  0.19342  0.76782  0.55392  1.0000
  C   C262      1.0  0.34334  0.68107  0.98566  1.0000
  C   C263      1.0  0.44149  0.77894  0.67610  1.0000
  C   C264      1.0  0.43148  0.79570  0.69171  1.0000
  C   C265      1.0  0.40754  0.78324  0.71589  1.0000
  C   C266      1.0  0.39347  0.75396  0.72488  1.0000
  C   C267      1.0  0.40348  0.73718  0.70922  1.0000
  C   C268      1.0  0.42739  0.74964  0.68502  1.0000
  H   H455      1.0  0.44261  0.81836  0.68588  1.0000
  H   H456      1.0  0.40010  0.79642  0.72811  1.0000
  H   H457      1.0  0.39292  0.71463  0.71602  1.0000
  H   H458      1.0  0.43518  0.73654  0.67340  1.0000
  H   H459      1.0  0.35080  0.71632  0.67333  1.0000
  H   H460      1.0  0.34871  0.72284  0.60853  1.0000
  C   C269      1.0  0.18920  0.78103  0.53450  1.0000
  C   C270      1.0  0.20738  0.66942  0.71938  1.0000
  H   H461      1.0  0.27738  0.90241  0.60307  1.0000
  H   H462      1.0  0.44424  0.71551  0.60700  1.0000
  C   C271      1.0  0.34158  0.73424  0.62634  1.0000
  H   H463      1.0  0.22066  0.66938  0.60050  1.0000
  H   H464      1.0  0.23039  0.86572  0.55477  1.0000
  H   H465      1.0  0.26723  0.65881  0.50443  1.0000
  H   H466      1.0  0.36851  0.81619  0.60484  1.0000
  C   C272      1.0  0.25495  0.88876  0.59718  1.0000
  H   H467      1.0  0.37499  0.81355  0.53153  1.0000
  C   C273      1.0  0.38767  0.81363  0.60130  1.0000
  H   H468      1.0  0.40285  0.88162  0.50162  1.0000
  H   H469      1.0  0.34827  0.68866  0.92829  1.0000
  H   H470      1.0  0.39019  0.85561  0.64526  1.0000
  C   C274      1.0  0.40141  0.75219  0.57601  1.0000
  H   H471      1.0  0.41992  0.78805  0.60737  1.0000
  H   H472      1.0  0.30455  0.84275  0.56760  1.0000
  C   C275      1.0  0.26941  0.86176  0.55494  1.0000
  H   H473      1.0  0.31516  0.69619  0.66016  1.0000
  C   C276      1.0  0.40553  0.78154  0.58524  1.0000
  C   C277      1.0  0.21171  0.81216  0.53465  1.0000
  H   H474      1.0  0.33906  0.82741  0.55434  1.0000
  H   H475      1.0  0.32241  0.73354  0.61574  1.0000
  H   H476      1.0  0.42155  0.87047  0.61527  1.0000
  H   H477      1.0  0.25475  0.66337  0.56030  1.0000
  H   H478      1.0  0.35367  0.77505  0.64464  1.0000
  S   S59       1.0  0.35573  0.66968  0.80844  1.0000
  H   H479      1.0  0.41017  0.94924  0.50519  1.0000
  H   H480      1.0  0.42389  0.66724  0.58683  1.0000
  H   H481      1.0  0.44560  0.76320  0.58041  1.0000
  S   S60       1.0  0.47770  0.82888  0.55681  1.0000
  C   C278      1.0  0.37066  0.79143  0.52948  1.0000
  C   C279      1.0  0.19536  0.71641  0.52622  1.0000
  H   H482      1.0  0.42415  0.86472  0.66181  1.0000
  H   H483      1.0  0.42700  0.82798  0.62865  1.0000
  H   H484      1.0  0.42560  0.73298  0.55505  1.0000
  H   H485      1.0  0.16803  0.77857  0.54175  1.0000
  C   C280      1.0  0.33614  0.67382  0.95034  1.0000
  H   H486      1.0  0.32566  0.72866  0.68180  1.0000
  S   S61       1.0  0.32251  0.65936  0.73427  1.0000
  C   C281      1.0  0.33281  0.71796  0.66261  1.0000
  H   H487      1.0  0.47136  0.66519  0.59401  1.0000
  H   H488      1.0  0.39040  0.79181  0.51968  1.0000
  C   C282      1.0  0.42905  0.75434  0.56094  1.0000
  N   N16       1.0  0.37910  0.78310  0.59519  1.0000
  H   H489      1.0  0.21190  0.66234  0.53614  1.0000
  C   C283      1.0  0.34939  0.77862  0.50106  1.0000
  H   H490      1.0  0.20932  0.68893  0.72869  1.0000
  Fe  Fe32      1.0  0.47869  0.87055  0.55936  1.0000
  H   H491      1.0  0.26238  0.89749  0.54086  1.0000
  H   H492      1.0  0.24062  0.67079  0.75075  1.0000
  H   H493      1.0  0.40029  0.82771  0.57781  1.0000
  C   C284      1.0  0.36465  0.76550  0.62938  1.0000
  H   H494      1.0  0.41784  0.79711  0.56284  1.0000
  H   H495      1.0  0.30109  0.71012  0.49717  1.0000
  H   H496      1.0  0.24118  0.80356  0.50398  1.0000
  C   C285      1.0  0.40592  0.82634  0.63334  1.0000
  C   C286      1.0  0.22416  0.73474  0.51690  1.0000
  S   S62       1.0  0.13854  0.68976  0.51337  1.0000
  C   C287      1.0  0.24165  0.81598  0.52700  1.0000
  H   H497      1.0  0.33972  0.77560  0.57426  1.0000
  C   C288      1.0  0.22514  0.65917  0.73195  1.0000
  H   H498      1.0  0.24379  0.90133  0.59951  1.0000
  H   H499      1.0  0.37769  0.81137  0.99044  1.0000
  C   C289      1.0  0.33185  0.83572  0.53208  1.0000
  H   H500      1.0  0.35103  0.75169  0.56043  1.0000
  N   N17       1.0  0.26552  0.84604  0.52141  1.0000
  H   H501      1.0  0.41008  0.66176  0.80012  1.0000
  H   H502      1.0  0.26409  0.84691  0.57877  1.0000
  H   H503      1.0  0.21007  0.81923  0.56141  1.0000
  H   H504      1.0  0.36097  0.70154  0.99018  1.0000
  C   C290      1.0  0.29241  0.84491  0.51251  1.0000
  H   H505      1.0  0.46076  0.69737  0.62780  1.0000
  C   C291      1.0  0.44527  0.68294  0.57583  1.0000
  C   C292      1.0  0.25303  0.87848  0.55972  1.0000
  H   H506      1.0  0.44288  0.69284  0.55088  1.0000
  H   H507      1.0  0.05195  0.66163  0.52517  1.0000
  H   H508      1.0  0.44262  0.66101  0.80546  1.0000
  H   H509      1.0  0.24528  0.80486  0.54983  1.0000
  H   H510      1.0  0.28796  0.80928  0.54746  1.0000
  H   H511      1.0  0.48388  0.68689  0.55387  1.0000
  C   C293      1.0  0.17502  0.71230  0.50202  1.0000
  H   H512      1.0  0.25067  0.69677  0.50933  1.0000
  H   H513      1.0  0.44532  0.66494  0.50318  1.0000
  S   S63       1.0  0.10472  0.65954  0.61434  1.0000
  H   H514      1.0  0.30997  0.86653  0.50406  1.0000
  H   H515      1.0  0.18874  0.77321  0.50765  1.0000
  H   H516      1.0  0.55621  0.25548  0.03516  1.0000
  H   H517      1.0  0.55467  0.31769  0.38542  1.0000
  C   C294      1.0  0.79070  0.32129  0.28244  1.0000
  H   H518      1.0  0.52191  0.32266  0.49652  1.0000
  S   S64       1.0  0.83738  0.28736  0.45990  1.0000
  H   H519      1.0  0.54729  0.23885  0.15101  1.0000
  Fe  Fe33      1.0  0.63156  0.28240  0.21314  1.0000
  S   S65       1.0  0.60741  0.23536  0.22935  1.0000
  H   H520      1.0  0.52245  0.23344  0.28490  1.0000
  S   S66       1.0  0.67272  0.30019  0.17961  1.0000
  C   C295      1.0  0.59670  0.23932  0.08897  1.0000
  C   C296      1.0  0.59034  0.31080  0.34153  1.0000
  C   C297      1.0  0.61219  0.24857  0.12383  1.0000
  H   H521      1.0  0.59583  0.29900  0.36150  1.0000
  C   C298      1.0  0.82766  0.24374  0.37419  1.0000
  H   H522      1.0  0.55967  0.20485  0.40649  1.0000
  H   H523      1.0  0.60381  0.29197  0.08563  1.0000
  H   H524      1.0  0.50869  0.03624  0.35366  1.0000
  H   H525      1.0  0.57088  0.31255  0.13700  1.0000
  C   C299      1.0  0.78053  0.27048  0.45625  1.0000
  S   S67       1.0  0.49370  0.15000  0.41012  1.0000
  H   H526      1.0  0.82213  0.22113  0.37366  1.0000
  H   H527      1.0  0.62643  0.23998  0.40251  1.0000
  H   H528      1.0  0.60800  0.09947  0.48024  1.0000
  C   C300      1.0  0.52155  0.19340  0.29355  1.0000
  C   C301      1.0  0.53590  0.17829  0.28669  1.0000
  C   C302      1.0  0.56197  0.19132  0.26654  1.0000
  C   C303      1.0  0.57416  0.21969  0.25353  1.0000
  C   C304      1.0  0.55987  0.23488  0.26039  1.0000
  C   C305      1.0  0.53351  0.22165  0.27997  1.0000
  H   H529      1.0  0.52674  0.15643  0.29663  1.0000
  H   H530      1.0  0.57277  0.17935  0.26115  1.0000
  H   H531      1.0  0.56899  0.25673  0.25041  1.0000
  C   C306      1.0  0.53328  0.13120  0.48268  1.0000
  S   S68       1.0  0.61531  0.30729  0.18265  1.0000
  N   N18       1.0  0.75370  0.23338  0.34949  1.0000
  C   C307      1.0  0.74220  0.22832  0.31313  1.0000
  C   C308      1.0  0.75680  0.26100  0.36185  1.0000
  C   C309      1.0  0.78278  0.23593  0.34615  1.0000
  C   C310      1.0  0.73581  0.20912  0.37625  1.0000
  C   C311      1.0  0.70438  0.20115  0.38216  1.0000
  C   C312      1.0  0.73887  0.20131  0.29607  1.0000
  C   C313      1.0  0.80094  0.24646  0.37882  1.0000
  C   C314      1.0  0.73447  0.26954  0.35087  1.0000
  C   C315      1.0  0.73787  0.29539  0.36974  1.0000
  C   C316      1.0  0.68810  0.17378  0.40568  1.0000
  C   C317      1.0  0.72564  0.19796  0.26034  1.0000
  H   H532      1.0  0.64581  0.23901  0.10868  1.0000
  H   H533      1.0  0.75620  0.24683  0.29446  1.0000
  H   H534      1.0  0.72117  0.22709  0.31329  1.0000
  H   H535      1.0  0.75745  0.26112  0.39107  1.0000
  H   H536      1.0  0.77740  0.27906  0.35137  1.0000
  H   H537      1.0  0.79553  0.25073  0.32306  1.0000
  H   H538      1.0  0.78119  0.21516  0.34066  1.0000
  H   H539      1.0  0.73692  0.18981  0.36949  1.0000
  H   H540      1.0  0.74438  0.21385  0.40290  1.0000
  H   H541      1.0  0.69381  0.19787  0.35692  1.0000
  H   H542      1.0  0.70278  0.21799  0.39630  1.0000
  H   H543      1.0  0.75971  0.20243  0.29101  1.0000
  H   H544      1.0  0.72500  0.18206  0.31333  1.0000
  H   H545      1.0  0.78941  0.23420  0.40372  1.0000
  H   H546      1.0  0.80762  0.26908  0.38225  1.0000
  H   H547      1.0  0.73734  0.27530  0.32192  1.0000
  H   H548      1.0  0.71255  0.25231  0.35669  1.0000
  H   H549      1.0  0.72233  0.30161  0.36047  1.0000
  H   H550      1.0  0.49153  0.01480  0.41483  1.0000
  H   H551      1.0  0.73432  0.29067  0.39891  1.0000
  H   H552      1.0  0.69706  0.17635  0.43213  1.0000
  H   H553      1.0  0.66558  0.16834  0.40969  1.0000
  H   H554      1.0  0.68892  0.15590  0.39315  1.0000
  H   H555      1.0  0.72383  0.17874  0.24834  1.0000
  H   H556      1.0  0.70414  0.19565  0.26377  1.0000
  H   H557      1.0  0.66182  0.23807  0.44175  1.0000
  H   H558      1.0  0.49940  0.29007  0.38085  1.0000
  H   H559      1.0  0.57735  0.16956  0.37908  1.0000
  C   C318      1.0  0.57222  0.31636  0.10774  1.0000
  N   N19       1.0  0.60573  0.21318  0.35973  1.0000
  C   C319      1.0  0.62931  0.22784  0.33102  1.0000
  C   C320      1.0  0.58840  0.18189  0.35374  1.0000
  C   C321      1.0  0.58684  0.22649  0.35726  1.0000
  H   H560      1.0  0.66200  0.29064  0.05724  1.0000
  H   H561      1.0  0.62687  0.18315  0.40439  1.0000
  C   C322      1.0  0.64821  0.26031  0.33258  1.0000
  C   C323      1.0  0.55161  0.12898  0.45746  1.0000
  C   C324      1.0  0.60402  0.16750  0.33566  1.0000
  C   C325      1.0  0.58539  0.13539  0.33653  1.0000
  C   C326      1.0  0.62955  0.23370  0.13074  1.0000
  C   C327      1.0  0.67220  0.27190  0.30345  1.0000
  H   H562      1.0  0.58390  0.27527  0.12558  1.0000
  H   H563      1.0  0.62020  0.22400  0.30448  1.0000
  H   H564      1.0  0.64380  0.21881  0.33071  1.0000
  C   C328      1.0  0.49127  0.03787  0.36793  1.0000
  H   H565      1.0  0.57121  0.17812  0.33602  1.0000
  H   H566      1.0  0.58218  0.22839  0.32913  1.0000
  H   H567      1.0  0.59781  0.24848  0.36606  1.0000
  H   H568      1.0  0.54050  0.27387  0.09962  1.0000
  C   C329      1.0  0.63777  0.20659  0.40419  1.0000
  H   H569      1.0  0.65606  0.21568  0.38442  1.0000
  H   H570      1.0  0.52189  0.21656  0.39376  1.0000
  H   H571      1.0  0.63578  0.27140  0.32836  1.0000
  H   H572      1.0  0.65799  0.26574  0.35839  1.0000
  C   C330      1.0  0.61668  0.21733  0.39639  1.0000
  H   H573      1.0  0.51150  0.12416  0.47713  1.0000
  H   H574      1.0  0.60958  0.17527  0.30729  1.0000
  H   H575      1.0  0.62372  0.17201  0.34831  1.0000
  C   C331      1.0  0.75165  0.25283  0.46583  1.0000
  H   H576      1.0  0.59560  0.12616  0.31949  1.0000
  H   H577      1.0  0.58265  0.12609  0.36398  1.0000
  H   H578      1.0  0.56429  0.12957  0.32669  1.0000
  C   C332      1.0  0.65741  0.30206  0.03683  1.0000
  C   C333      1.0  0.57985  0.13872  0.46437  1.0000
  H   H579      1.0  0.68533  0.29521  0.30459  1.0000
  H   H580      1.0  0.68602  0.26224  0.30676  1.0000
  H   H581      1.0  0.66351  0.26740  0.27684  1.0000
  H   H582      1.0  0.55569  0.24809  0.39495  1.0000
  H   H583      1.0  0.59424  0.13772  0.44453  1.0000
  H   H584      1.0  0.75943  0.31347  0.36343  1.0000
  Fe  Fe34      1.0  0.49849  0.11146  0.40695  1.0000
  H   H585      1.0  0.56278  0.29369  0.06066  1.0000
  S   S69       1.0  0.64936  0.31392  0.25448  1.0000
  H   H586      1.0  0.55299  0.31026  0.45762  1.0000
  H   H587      1.0  0.51400  0.26673  0.38829  1.0000
  H   H588      1.0  0.50828  0.19435  0.17769  1.0000
  H   H589      1.0  0.78700  0.28684  0.43538  1.0000
  H   H590      1.0  0.59753  0.24400  0.14736  1.0000
  H   H591      1.0  0.50052  0.05831  0.38087  1.0000
  H   H592      1.0  0.55407  0.20949  0.14590  1.0000
  C   C334      1.0  0.64929  0.21471  0.44080  1.0000
  H   H593      1.0  0.63174  0.20629  0.46177  1.0000
  C   C335      1.0  0.77034  0.30677  0.25794  1.0000
  H   H594      1.0  0.54347  0.19108  0.36608  1.0000
  H   H595      1.0  0.58751  0.21595  0.08817  1.0000
  H   H596      1.0  0.66324  0.20557  0.44679  1.0000
  H   H597      1.0  0.84107  0.25291  0.39683  1.0000
  C   C336      1.0  0.55777  0.21075  0.37879  1.0000
  H   H598      1.0  0.73904  0.21660  0.24180  1.0000
  H   H599      1.0  0.55619  0.07375  0.47549  1.0000
  C   C337      1.0  0.58234  0.27609  0.09655  1.0000
  H   H600      1.0  0.58662  0.22016  0.02516  1.0000
  C   C338      1.0  0.74280  0.23150  0.49315  1.0000
  C   C339      1.0  0.80095  0.26662  0.47325  1.0000
  H   H601      1.0  0.84005  0.25526  0.34922  1.0000
  S   S70       1.0  0.53946  0.11317  0.41776  1.0000
  H   H602      1.0  0.54080  0.23552  0.35290  1.0000
  C   C340      1.0  0.51051  0.19853  0.14841  1.0000
  H   H603      1.0  0.61560  0.21040  0.13382  1.0000
  H   H604      1.0  0.54050  0.20456  0.08507  1.0000
  C   C341      1.0  0.59692  0.07659  0.47528  1.0000
  H   H605      1.0  0.73600  0.25565  0.45201  1.0000
  Fe  Fe35      1.0  0.85306  0.32023  0.41330  1.0000
  H   H606      1.0  0.56799  0.29755  0.33504  1.0000
  H   H607      1.0  0.62702  0.27175  0.12161  1.0000
  H   H608      1.0  0.52893  0.22986  0.08700  1.0000
  H   H609      1.0  0.59891  0.20606  0.41685  1.0000
  C   C342      1.0  0.54329  0.22898  0.38011  1.0000
  H   H610      1.0  0.76196  0.31611  0.46215  1.0000
  H   H611      1.0  0.73533  0.30456  0.22955  1.0000
  H   H612      1.0  0.60400  0.31493  0.31688  1.0000
  H   H613      1.0  0.61406  0.24856  0.06763  1.0000
  H   H614      1.0  0.64040  0.24067  0.15571  1.0000
  C   C343      1.0  0.54559  0.22516  0.09610  1.0000
  H   H615      1.0  0.59367  0.27050  0.03105  1.0000
  H   H616      1.0  0.50346  0.17809  0.13588  1.0000
  N   N20       1.0  0.57445  0.24786  0.08170  1.0000
  C   C344      1.0  0.54137  0.21932  0.13692  1.0000
  H   H617      1.0  0.59795  0.07451  0.44622  1.0000
  C   C345      1.0  0.57004  0.22608  0.02032  1.0000
  H   H618      1.0  0.54907  0.20729  0.02714  1.0000
  C   C346      1.0  0.57381  0.25148  0.04193  1.0000
  H   H619      1.0  0.77014  0.28898  0.24550  1.0000
  S   S71       1.0  0.81560  0.31027  0.29325  1.0000
  C   C347      1.0  0.56252  0.28867  0.08943  1.0000
  H   H620      1.0  0.50274  0.23477  0.47042  1.0000
  H   H621      1.0  0.49665  0.20750  0.14112  1.0000
  C   C348      1.0  0.75056  0.31552  0.24889  1.0000
  C   C349      1.0  0.49460  0.26763  0.38192  1.0000
  S   S72       1.0  0.87336  0.31764  0.36117  1.0000
  H   H622      1.0  0.55564  0.04039  0.48241  1.0000
  C   C350      1.0  0.56606  0.06274  0.48954  1.0000
  H   H623      1.0  0.60798  0.06625  0.48815  1.0000
  H   H624      1.0  0.48844  0.25896  0.35550  1.0000
  C   C351      1.0  0.65476  0.29353  0.00144  1.0000
  S   S73       1.0  0.48871  0.17769  0.31875  1.0000
  H   H625      1.0  0.58458  0.32451  0.40969  1.0000
  C   C352      1.0  0.54858  0.08295  0.64093  1.0000
  Fe  Fe36      1.0  0.62024  0.15301  0.57654  1.0000
  S   S74       1.0  0.64158  0.13949  0.53597  1.0000
  S   S75       1.0  0.58101  0.15618  0.56721  1.0000
  Fe  Fe37      1.0  0.66499  0.16456  0.62829  1.0000
  S   S76       1.0  0.68996  0.15172  0.59069  1.0000
  S   S77       1.0  0.68027  0.18315  0.68135  1.0000
  Fe  Fe38      1.0  0.68190  0.17737  0.54891  1.0000
  H   H626      1.0  0.76460  0.30098  0.74865  1.0000
  Fe  Fe39      1.0  0.64704  0.11451  0.58067  1.0000
  S   S78       1.0  0.63573  0.07041  0.56181  1.0000
  S   S79       1.0  0.65979  0.19215  0.58708  1.0000
  S   S80       1.0  0.62308  0.12600  0.62102  1.0000
  Fe  Fe40      1.0  0.64453  0.30636  0.86913  1.0000
  C   C353      1.0  0.75262  0.30450  0.53515  1.0000
  C   C354      1.0  0.74147  0.28727  0.75378  1.0000
  H   H627      1.0  0.61140  0.15781  0.50186  1.0000
  H   H628      1.0  0.53302  0.22009  0.79488  1.0000
  H   H629      1.0  0.73664  0.23398  0.64186  1.0000
  Fe  Fe41      1.0  0.63468  0.27714  0.79718  1.0000
  S   S81       1.0  0.61639  0.23891  0.76345  1.0000
  S   S82       1.0  0.60636  0.28446  0.83591  1.0000
  C   C355      1.0  0.54285  0.14128  0.51594  1.0000
  C   C356      1.0  0.72848  0.27361  0.67769  1.0000
  H   H630      1.0  0.70320  0.23066  0.63013  1.0000
  C   C357      1.0  0.61223  0.03481  0.57810  1.0000
  C   C358      1.0  0.72647  0.24389  0.62611  1.0000
  H   H631      1.0  0.60829  0.04399  0.63226  1.0000
  H   H632      1.0  0.52468  0.18434  0.66128  1.0000
  C   C359      1.0  0.66278  0.19915  0.70366  1.0000
  C   C360      1.0  0.67356  0.21331  0.73461  1.0000
  C   C361      1.0  0.66010  0.22635  0.75270  1.0000
  C   C362      1.0  0.63548  0.22493  0.74029  1.0000
  C   C363      1.0  0.62463  0.21057  0.70957  1.0000
  C   C364      1.0  0.63837  0.19807  0.69104  1.0000
  H   H633      1.0  0.69221  0.21391  0.74479  1.0000
  H   H634      1.0  0.66814  0.23661  0.77691  1.0000
  H   H635      1.0  0.60527  0.20878  0.70030  1.0000
  H   H636      1.0  0.62970  0.18701  0.66746  1.0000
  C   C365      1.0  0.52257  0.20754  0.74088  1.0000
  H   H637      1.0  0.57021  0.27730  0.64669  1.0000
  C   C366      1.0  0.54705  0.08304  0.60064  1.0000
  H   H638      1.0  0.70191  0.28137  0.73473  1.0000
  H   H639      1.0  0.80278  0.31710  0.50413  1.0000
  H   H640      1.0  0.53043  0.08744  0.53501  1.0000
  C   C367      1.0  0.57188  0.23334  0.98051  1.0000
  H   H641      1.0  0.69390  0.29016  0.66523  1.0000
  H   H642      1.0  0.50981  0.24229  0.68932  1.0000
  N   N21       1.0  0.73298  0.30151  0.69076  1.0000
  H   H643      1.0  0.54929  0.25189  0.73820  1.0000
  S   S83       1.0  0.64937  0.31791  0.76514  1.0000
  C   C368      1.0  0.51820  0.06412  0.53340  1.0000
  C   C369      1.0  0.72342  0.30309  0.53733  1.0000
  H   H644      1.0  0.69543  0.29304  0.89926  1.0000
  H   H645      1.0  0.67878  0.27169  0.53980  1.0000
  C   C370      1.0  0.57066  0.14914  0.52371  1.0000
  H   H646      1.0  0.55186  0.04609  0.59693  1.0000
  H   H647      1.0  0.67136  0.32244  0.65334  1.0000
  H   H648      1.0  0.56330  0.07534  0.64935  1.0000
  H   H649      1.0  0.70617  0.25685  0.68420  1.0000
  H   H650      1.0  0.68111  0.01960  0.63344  1.0000
  C   C371      1.0  0.54748  0.19396  0.66582  1.0000
  H   H651      1.0  0.72096  0.31504  0.51459  1.0000
  C   C372      1.0  0.56393  0.06511  0.53022  1.0000
  H   H652      1.0  0.72423  0.28219  0.62105  1.0000
  C   C373      1.0  0.69963  0.27245  0.53706  1.0000
  H   H653      1.0  0.80806  0.32344  0.58479  1.0000
  S   S84       1.0  0.51452  0.30706  0.60075  1.0000
  H   H654      1.0  0.52383  0.22646  0.61598  1.0000
  C   C374      1.0  0.53677  0.05296  0.58748  1.0000
  H   H655      1.0  0.55021  0.15924  0.64224  1.0000
  H   H656      1.0  0.73258  0.24447  0.59757  1.0000
  H   H657      1.0  0.65717  0.27541  0.99523  1.0000
  H   H658      1.0  0.53268  0.09145  0.59387  1.0000
  C   C375      1.0  0.71374  0.30953  0.67117  1.0000
  H   H659      1.0  0.64963  0.01193  0.61114  1.0000
  C   C376      1.0  0.83870  0.31707  0.55515  1.0000
  H   H660      1.0  0.57745  0.05746  0.54280  1.0000
  C   C377      1.0  0.73536  0.27371  0.63731  1.0000
  H   H661      1.0  0.59293  0.25155  0.97198  1.0000
  H   H662      1.0  0.52731  0.06920  0.65427  1.0000
  H   H663      1.0  0.55520  0.23872  0.97370  1.0000
  H   H664      1.0  0.75311  0.29275  0.55957  1.0000
  H   H665      1.0  0.75309  0.29153  0.51327  1.0000
  C   C378      1.0  0.56055  0.18268  0.63864  1.0000
  H   H666      1.0  0.55748  0.18831  0.61122  1.0000
  C   C379      1.0  0.54853  0.23428  0.72311  1.0000
  H   H667      1.0  0.52841  0.14185  0.53609  1.0000
  C   C380      1.0  0.73441  0.28822  0.79312  1.0000
  C   C381      1.0  0.53487  0.00259  0.54870  1.0000
  C   C382      1.0  0.72477  0.29715  0.73006  1.0000
  H   H668      1.0  0.57447  0.08819  0.53436  1.0000
  H   H669      1.0  0.72687  0.31678  0.74098  1.0000
  H   H670      1.0  0.54633  0.31561  0.52009  1.0000
  C   C383      1.0  0.52809  0.20163  0.77878  1.0000
  H   H671      1.0  0.55017  0.18668  0.69249  1.0000
  S   S85       1.0  0.64639  0.29648  0.92948  1.0000
  H   H672      1.0  0.56800  0.23332  0.72922  1.0000
  C   C384      1.0  0.59538  0.28709  0.69224  1.0000
  H   H673      1.0  0.55325  0.28907  0.78706  1.0000
  C   C385      1.0  0.52437  0.28642  0.74743  1.0000
  H   H674      1.0  0.61733  0.32064  0.65049  1.0000
  H   H675      1.0  0.60862  0.27734  0.68508  1.0000
  C   C386      1.0  0.60237  0.02753  0.61374  1.0000
  H   H676      1.0  0.50389  0.21094  0.74233  1.0000
  H   H677      1.0  0.70082  0.25922  0.55938  1.0000
  H   H678      1.0  0.74642  0.28086  0.80957  1.0000
  H   H679      1.0  0.55371  0.00992  0.53002  1.0000
  H   H680      1.0  0.73589  0.26506  0.74916  1.0000
  C   C387      1.0  0.54952  0.30012  0.76530  1.0000
  C   C388      1.0  0.51910  0.30054  0.71924  1.0000
  H   H681      1.0  0.55653  0.10484  0.64945  1.0000
  H   H682      1.0  0.50470  0.20862  0.67917  1.0000
  H   H683      1.0  0.84182  0.30560  0.57798  1.0000
  H   H684      1.0  0.75659  0.21190  0.53243  1.0000
  S   S86       1.0  0.67138  0.29549  0.83190  1.0000
  H   H685      1.0  0.56899  0.21493  0.96552  1.0000
  N   N22       1.0  0.53446  0.05038  0.54794  1.0000
  H   H686      1.0  0.58353  0.19137  0.64187  1.0000
  C   C389      1.0  0.51606  0.23759  0.63349  1.0000
  H   H687      1.0  0.50894  0.26477  0.75546  1.0000
  C   C390      1.0  0.60450  0.01295  0.55460  1.0000
  H   H688      1.0  0.74019  0.31017  0.79970  1.0000
  C   C391      1.0  0.51903  0.23155  0.67311  1.0000
  H   H689      1.0  0.71149  0.27416  0.79996  1.0000
  H   H690      1.0  0.59291  0.28626  0.72162  1.0000
  H   H691      1.0  0.54613  0.19724  0.77873  1.0000
  C   C392      1.0  0.64930  0.30828  0.97398  1.0000
  H   H692      1.0  0.50904  0.18289  0.79135  1.0000
  C   C393      1.0  0.56613  0.27211  0.67581  1.0000
  H   H693      1.0  0.58419  0.23386  0.67066  1.0000
  C   C394      1.0  0.51900  0.01936  0.54084  1.0000
  H   H694      1.0  0.55420  0.28285  0.68520  1.0000
  H   H695      1.0  0.56516  0.23370  0.63399  1.0000
  H   H696      1.0  0.74177  0.26626  0.69135  1.0000
  H   H697      1.0  0.75845  0.28661  0.63070  1.0000
  H   H698      1.0  0.52794  0.26059  0.62596  1.0000
  H   H699      1.0  0.51622  0.03836  0.60215  1.0000
  S   S87       1.0  0.70605  0.20915  0.50211  1.0000
  C   C395      1.0  0.56237  0.22667  0.66257  1.0000
  H   H700      1.0  0.56843  0.09793  0.58867  1.0000
  H   H701      1.0  0.68092  0.01662  0.58609  1.0000
  H   H702      1.0  0.51694  0.18840  0.72622  1.0000
  N   N23       1.0  0.54866  0.24045  0.68370  1.0000
  H   H703      1.0  0.61204  0.01828  0.52699  1.0000
  C   C396      1.0  0.80937  0.31450  0.55930  1.0000
  H   H704      1.0  0.77755  0.31447  0.69137  1.0000
  H   H705      1.0  0.72379  0.32017  0.64485  1.0000
  H   H706      1.0  0.71882  0.30033  0.93479  1.0000
  H   H707      1.0  0.70091  0.26320  0.51171  1.0000
  C   C397      1.0  0.76317  0.22829  0.51133  1.0000
  C   C398      1.0  0.71791  0.30332  0.90573  1.0000
  H   H708      1.0  0.72826  0.29269  0.89181  1.0000
  C   C399      1.0  0.76369  0.32310  0.68258  1.0000
  C   C400      1.0  0.79217  0.24574  0.50125  1.0000
  C   C401      1.0  0.61168  0.31831  0.67943  1.0000
  C   C402      1.0  0.58611  0.99875  0.62589  1.0000
  H   H709      1.0  0.79365  0.29157  0.56109  1.0000
  H   H710      1.0  0.51300  0.01643  0.51284  1.0000
  H   H711      1.0  0.72038  0.31147  0.56253  1.0000
  H   H712      1.0  0.68710  0.31481  0.71174  1.0000
  C   C403      1.0  0.66797  0.00803  0.61155  1.0000
  H   H713      1.0  0.80782  0.24270  0.51480  1.0000
  H   H714      1.0  0.54190  0.00510  0.57612  1.0000
  H   H715      1.0  0.84096  0.30760  0.53050  1.0000
  H   H716      1.0  0.49860  0.00843  0.55715  1.0000
  H   H717      1.0  0.51555  0.06094  0.50459  1.0000
  H   H718      1.0  0.57971  0.99338  0.65382  1.0000
  S   S88       1.0  0.48747  0.28231  0.69699  1.0000
  H   H719      1.0  0.48810  0.05463  0.57995  1.0000
  C   C404      1.0  0.58944  0.14935  0.49719  1.0000
  C   C405      1.0  0.48801  0.05322  0.55078  1.0000
  H   H720      1.0  0.48678  0.09277  0.54352  1.0000
  Fe  Fe42      1.0  0.90505  0.36399  0.36571  1.0000
  S   S89       1.0  0.87781  0.37830  0.33688  1.0000
  S   S90       1.0  0.95266  0.39272  0.35104  1.0000
  H   H721      1.0  0.77208  0.37129  0.30075  1.0000
  H   H722      1.0  0.92248  0.52776  0.49009  1.0000
  Fe  Fe43      1.0  0.63679  0.34076  0.22171  1.0000
  C   C406      1.0  0.65461  0.32560  0.04561  1.0000
  H   H723      1.0  0.53360  0.33674  0.42842  1.0000
  H   H724      1.0  0.90962  0.42663  0.38523  1.0000
  H   H725      1.0  0.73581  0.56713  0.41417  1.0000
  C   C407      1.0  0.98464  0.39765  0.36898  1.0000
  H   H726      1.0  0.70825  0.49737  0.43759  1.0000
  H   H727      1.0  0.50413  0.49483  0.41550  1.0000
  H   H728      1.0  0.95976  0.57748  0.47591  1.0000
  S   S91       1.0  0.61346  0.36043  0.25069  1.0000
  H   H729      1.0  0.79951  0.34030  0.45643  1.0000
  H   H730      1.0  0.82324  0.44003  0.25545  1.0000
  Fe  Fe44      1.0  0.60455  0.48414  0.41349  1.0000
  S   S92       1.0  0.62607  0.52725  0.43428  1.0000
  S   S93       1.0  0.55995  0.45369  0.43211  1.0000
  Fe  Fe45      1.0  0.65245  0.49542  0.36006  1.0000
  S   S94       1.0  0.67731  0.54068  0.37507  1.0000
  S   S95       1.0  0.67406  0.47894  0.32206  1.0000
  Fe  Fe46      1.0  0.66512  0.52214  0.43136  1.0000
  S   S96       1.0  0.69550  0.53642  0.47587  1.0000
  Fe  Fe47      1.0  0.63605  0.54191  0.37680  1.0000
  S   S97       1.0  0.62810  0.57649  0.35183  1.0000
  S   S98       1.0  0.64199  0.47710  0.41641  1.0000
  S   S99       1.0  0.61272  0.49846  0.35596  1.0000
  C   C408      1.0  0.57667  0.33422  0.38986  1.0000
  H   H731      1.0  0.54050  0.57904  0.31370  1.0000
  S   S100      1.0  0.88696  0.36503  0.41976  1.0000
  N   N24       1.0  0.50551  0.53552  0.41062  1.0000
  Fe  Fe48      1.0  0.65733  0.32712  0.15060  1.0000
  C   C409      1.0  0.60880  0.59315  0.36821  1.0000
  C   C410      1.0  0.60076  0.60798  0.34407  1.0000
  C   C411      1.0  0.58703  0.62301  0.35592  1.0000
  C   C412      1.0  0.58178  0.62401  0.39223  1.0000
  C   C413      1.0  0.59015  0.60946  0.41638  1.0000
  C   C414      1.0  0.60294  0.59359  0.40450  1.0000
  H   H732      1.0  0.60542  0.60809  0.31595  1.0000
  H   H733      1.0  0.58128  0.63450  0.33696  1.0000
  H   H734      1.0  0.58671  0.61051  0.44452  1.0000
  H   H735      1.0  0.60894  0.58237  0.42342  1.0000
  C   C415      1.0  0.72056  0.52446  0.48128  1.0000
  H   H736      1.0  0.60059  0.46627  0.48541  1.0000
  C   C416      1.0  0.95036  0.37242  0.47121  1.0000
  C   C417      1.0  0.63084  0.39370  0.26973  1.0000
  C   C418      1.0  0.66034  0.40963  0.26900  1.0000
  C   C419      1.0  0.67330  0.43569  0.28513  1.0000
  C   C420      1.0  0.65693  0.44610  0.30206  1.0000
  C   C421      1.0  0.62749  0.43034  0.30246  1.0000
  C   C422      1.0  0.61451  0.40426  0.28640  1.0000
  H   H737      1.0  0.67315  0.40206  0.25557  1.0000
  H   H738      1.0  0.69611  0.44801  0.28410  1.0000
  H   H739      1.0  0.61487  0.43858  0.31468  1.0000
  H   H740      1.0  0.59171  0.39236  0.28645  1.0000
  C   C423      1.0  0.74228  0.49599  0.46426  1.0000
  H   H741      1.0  0.58342  0.34162  0.47076  1.0000
  S   S101      1.0  0.84835  0.41095  0.40565  1.0000
  S   S102      1.0  0.50145  0.64515  0.43705  1.0000
  C   C424      1.0  0.67274  0.60979  0.43891  1.0000
  H   H742      1.0  0.52978  0.58684  0.45061  1.0000
  S   S103      1.0  0.67768  0.36253  0.18832  1.0000
  C   C425      1.0  0.64899  0.34023  0.01819  1.0000
  H   H743      1.0  0.62728  0.39504  0.36144  1.0000
  H   H744      1.0  0.72152  0.64791  0.46725  1.0000
  H   H745      1.0  0.96939  0.35403  0.38586  1.0000
  Fe  Fe49      1.0  0.68951  0.33376  0.21958  1.0000
  H   H746      1.0  0.55887  0.50057  0.34809  1.0000
  C   C426      1.0  0.51995  0.56591  0.46553  1.0000
  N   N25       1.0  0.96326  0.45036  0.46874  1.0000
  C   C427      1.0  0.95230  0.45225  0.40193  1.0000
  C   C428      1.0  0.55943  0.43498  0.47075  1.0000
  H   H747      1.0  0.83020  0.44316  0.44687  1.0000
  H   H748      1.0  0.97642  0.56252  0.43304  1.0000
  H   H749      1.0  0.51828  0.40024  0.46288  1.0000
  C   C429      1.0  0.77131  0.35315  0.28891  1.0000
  C   C430      1.0  0.75128  0.33911  0.26401  1.0000
  C   C431      1.0  0.68208  0.36195  0.32443  1.0000
  C   C432      1.0  0.84845  0.41570  0.45128  1.0000
  H   H750      1.0  0.54572  0.35485  0.36573  1.0000
  C   C433      1.0  0.72226  0.50514  0.45900  1.0000
  H   H751      1.0  0.49186  0.50090  0.37545  1.0000
  H   H752      1.0  0.53448  0.47843  0.38410  1.0000
  H   H753      1.0  0.67527  0.63149  0.32027  1.0000
  H   H754      1.0  0.75511  0.62965  0.39382  1.0000
  H   H755      1.0  0.95838  0.43601  0.39627  1.0000
  H   H756      1.0  0.73912  0.38454  0.32273  1.0000
  C   C434      1.0  0.53750  0.51994  0.37575  1.0000
  H   H757      1.0  0.74355  0.48122  0.44673  1.0000
  C   C435      1.0  0.76064  0.50577  0.49203  1.0000
  H   H758      1.0  0.55759  0.57585  0.49415  1.0000
  H   H759      1.0  0.66357  0.62427  0.43834  1.0000
  H   H760      1.0  0.86641  0.38907  0.46466  1.0000
  C   C436      1.0  0.52237  0.54357  0.44317  1.0000
  H   H761      1.0  0.69425  0.39634  0.35851  1.0000
  H   H762      1.0  0.98243  0.41156  0.44606  1.0000
  C   C437      1.0  0.94356  0.45119  0.44179  1.0000
  Fe  Fe50      1.0  0.85857  0.37693  0.39083  1.0000
  H   H763      1.0  0.68734  0.60810  0.37088  1.0000
  H   H764      1.0  0.50916  0.57779  0.29716  1.0000
  H   H765      1.0  0.73022  0.40949  0.30417  1.0000
  C   C438      1.0  0.70289  0.38283  0.34906  1.0000
  H   H766      1.0  0.77676  0.34835  0.40685  1.0000
  C   C439      1.0  0.53795  0.49398  0.36189  1.0000
  C   C440      1.0  0.70010  0.62896  0.38245  1.0000
  S   S104      1.0  0.82347  0.33258  0.38864  1.0000
  H   H767      1.0  0.72368  0.60747  0.45410  1.0000
  H   H768      1.0  0.59020  0.34999  0.33360  1.0000
  H   H769      1.0  0.51454  0.57848  0.39676  1.0000
  H   H770      1.0  0.64645  0.35827  0.02442  1.0000
  H   H771      1.0  0.92195  0.46428  0.38226  1.0000
  C   C441      1.0  0.53571  0.40887  0.47998  1.0000
  H   H772      1.0  0.59439  0.33194  0.09865  1.0000
  H   H773      1.0  0.61604  0.36992  0.42624  1.0000
  H   H774      1.0  0.66083  0.34975  0.33837  1.0000
  H   H775      1.0  0.95387  0.35962  0.45133  1.0000
  C   C442      1.0  0.56516  0.37208  0.37624  1.0000
  H   H776      1.0  0.52145  0.48373  0.34266  1.0000
  Fe  Fe51      1.0  0.84489  0.33251  0.33696  1.0000
  H   H777      1.0  0.72099  0.63845  0.36758  1.0000
  C   C443      1.0  0.62585  0.40397  0.38676  1.0000
  C   C444      1.0  0.55747  0.39464  0.38880  1.0000
  H   H778      1.0  0.76860  0.59276  0.39139  1.0000
  C   C445      1.0  0.50831  0.51169  0.39466  1.0000
  C   C446      1.0  0.65565  0.41980  0.39984  1.0000
  C   C447      1.0  0.55053  0.40847  0.35757  1.0000
  H   H779      1.0  0.55476  0.52976  0.39405  1.0000
  C   C448      1.0  0.92825  0.44777  0.37860  1.0000
  H   H780      1.0  0.58032  0.38169  0.35280  1.0000
  H   H781      1.0  0.61778  0.35132  0.36029  1.0000
  Fe  Fe52      1.0  0.53292  0.65577  0.39055  1.0000
  H   H782      1.0  0.54525  0.55234  0.43560  1.0000
  H   H783      1.0  0.55616  0.36829  0.44910  1.0000
  C   C449      1.0  0.50261  0.55637  0.34917  1.0000
  H   H784      1.0  0.74624  0.42528  0.46054  1.0000
  H   H785      1.0  0.61885  0.41979  0.38094  1.0000
  H   H786      1.0  0.94736  0.39942  0.43116  1.0000
  H   H787      1.0  0.53836  0.38469  0.40741  1.0000
  H   H788      1.0  0.57503  0.41134  0.40256  1.0000
  H   H789      1.0  0.72852  0.59954  0.37395  1.0000
  C   C450      1.0  0.95428  0.42022  0.48132  1.0000
  H   H790      1.0  0.54008  0.57013  0.37964  1.0000
  C   C451      1.0  0.75176  0.58997  0.41143  1.0000
  H   H791      1.0  0.94105  0.47036  0.44420  1.0000
  H   H792      1.0  0.66469  0.40537  0.40298  1.0000
  H   H793      1.0  0.66943  0.43738  0.38023  1.0000
  H   H794      1.0  0.52712  0.60109  0.33152  1.0000
  H   H795      1.0  0.56941  0.42059  0.33906  1.0000
  H   H796      1.0  0.53319  0.39223  0.34298  1.0000
  H   H797      1.0  0.54363  0.42339  0.36737  1.0000
  H   H798      1.0  0.98107  0.36122  0.30507  1.0000
  C   C452      1.0  0.83774  0.43260  0.46468  1.0000
  C   C453      1.0  0.60515  0.38113  0.41517  1.0000
  H   H799      1.0  0.60315  0.39327  0.43735  1.0000
  H   H800      1.0  0.51666  0.52448  0.46095  1.0000
  H   H801      1.0  0.54233  0.53504  0.35251  1.0000
  C   C454      1.0  0.51692  0.56113  0.38495  1.0000
  C   C455      1.0  0.73813  0.60759  0.39940  1.0000
  C   C456      1.0  0.55572  0.34986  0.43622  1.0000
  S   S105      1.0  0.56630  0.64415  0.40909  1.0000
  H   H802      1.0  0.69827  0.58252  0.42762  1.0000
  C   C457      1.0  0.71507  0.60507  0.42738  1.0000
  S   S106      1.0  0.72857  0.35275  0.25220  1.0000
  C   C458      1.0  0.66947  0.59844  0.47819  1.0000
  C   C459      1.0  0.79085  0.34434  0.29815  1.0000
  H   H803      1.0  0.49768  0.55967  0.47301  1.0000
  N   N26       1.0  0.57631  0.35988  0.40391  1.0000
  H   H804      1.0  0.93513  0.44872  0.35028  1.0000
  H   H805      1.0  0.80640  0.35574  0.31698  1.0000
  H   H806      1.0  0.65543  0.42897  0.42560  1.0000
  N   N27       1.0  0.75548  0.42353  0.35012  1.0000
  C   C460      1.0  0.75193  0.41449  0.38909  1.0000
  C   C461      1.0  0.73273  0.40054  0.32996  1.0000
  C   C462      1.0  0.78378  0.42737  0.33621  1.0000
  C   C463      1.0  0.75581  0.45142  0.34376  1.0000
  C   C464      1.0  0.73080  0.45394  0.36107  1.0000
  C   C465      1.0  0.77431  0.43573  0.41292  1.0000
  C   C466      1.0  0.79049  0.43361  0.29547  1.0000
  H   H807      1.0  0.96980  0.48859  0.49275  1.0000
  H   H808      1.0  0.68916  0.34680  0.31598  1.0000
  C   C467      1.0  0.73675  0.48463  0.35876  1.0000
  C   C468      1.0  0.76643  0.42593  0.45215  1.0000
  C   C469      1.0  0.81903  0.43584  0.28465  1.0000
  H   H809      1.0  0.75228  0.39409  0.39245  1.0000
  H   H810      1.0  0.73097  0.40996  0.40079  1.0000
  H   H811      1.0  0.92181  0.43294  0.44715  1.0000
  C   C470      1.0  0.77346  0.35530  0.43302  1.0000
  H   H812      1.0  0.78561  0.40820  0.34371  1.0000
  H   H813      1.0  0.80143  0.44522  0.34858  1.0000
  H   H814      1.0  0.77582  0.46911  0.35237  1.0000
  H   H815      1.0  0.75606  0.45631  0.31486  1.0000
  H   H816      1.0  0.72654  0.44682  0.38953  1.0000
  H   H817      1.0  0.71152  0.44149  0.34669  1.0000
  H   H818      1.0  0.79530  0.43754  0.40650  1.0000
  H   H819      1.0  0.77620  0.45705  0.40962  1.0000
  H   H820      1.0  0.79162  0.45399  0.28696  1.0000
  H   H821      1.0  0.77427  0.41668  0.28040  1.0000
  H   H822      1.0  0.68028  0.37328  0.30047  1.0000
  H   H823      1.0  0.83635  0.45343  0.29772  1.0000
  H   H824      1.0  0.65864  0.59146  0.42358  1.0000
  H   H825      1.0  0.70371  0.37002  0.37215  1.0000
  H   H826      1.0  0.71859  0.48588  0.37151  1.0000
  H   H827      1.0  0.75589  0.49837  0.37282  1.0000
  H   H828      1.0  0.73963  0.49272  0.33061  1.0000
  N   N28       1.0  0.70244  0.62439  0.42159  1.0000
  H   H829      1.0  0.76450  0.40473  0.45733  1.0000
  H   H830      1.0  0.78317  0.44112  0.46846  1.0000
  H   H831      1.0  0.81903  0.41576  0.29197  1.0000
  H   H832      1.0  0.96281  0.37355  0.49435  1.0000
  C   C471      1.0  0.59508  0.33896  0.35520  1.0000
  S   S107      1.0  0.49948  0.63333  0.35180  1.0000
  C   C472      1.0  0.77851  0.33856  0.46264  1.0000
  C   C473      1.0  0.95970  0.40207  0.45465  1.0000
  H   H833      1.0  0.97067  0.47327  0.39368  1.0000
  H   H834      1.0  0.76136  0.59661  0.43724  1.0000
  C   C474      1.0  0.85844  0.40236  0.47452  1.0000
  H   H835      1.0  0.78857  0.37827  0.43356  1.0000
  H   H836      1.0  0.55846  0.32561  0.10122  1.0000
  H   H837      1.0  0.78892  0.38086  0.00525  1.0000
  H   H838      1.0  0.67429  0.58071  0.48027  1.0000
  C   C475      1.0  0.71911  0.65195  0.43892  1.0000
  C   C476      1.0  0.56071  0.33226  0.46564  1.0000
  S   S108      1.0  0.65751  0.33755  0.09004  1.0000
  C   C477      1.0  0.52099  0.58006  0.32126  1.0000
  H   H839      1.0  0.54582  0.49911  0.48604  1.0000
  H   H840      1.0  0.75152  0.35185  0.43582  1.0000
  H   H841      1.0  0.62393  0.56985  0.47893  1.0000
  H   H842      1.0  0.93119  0.40852  0.48895  1.0000
  C   C478      1.0  0.63929  0.58742  0.49401  1.0000
  C   C479      1.0  0.68687  0.64792  0.37253  1.0000
  H   H843      1.0  0.66453  0.63812  0.38297  1.0000
  C   C480      1.0  0.58216  0.44600  0.49260  1.0000
  H   H844      1.0  0.92748  0.36149  0.47974  1.0000
  H   H845      1.0  0.63369  0.60465  0.49376  1.0000
  H   H846      1.0  0.49858  0.53618  0.33808  1.0000
  C   C481      1.0  0.68711  0.65218  0.33230  1.0000
  H   H847      1.0  0.68370  0.61515  0.49511  1.0000
  S   S109      1.0  0.55413  0.38697  0.57451  1.0000
  C   C482      1.0  0.92727  0.54406  0.50969  1.0000
  S   S110      1.0  0.72992  0.36420  0.78207  1.0000
  S   S111      1.0  0.65940  0.34916  0.84049  1.0000
  Fe  Fe53      1.0  0.83664  0.46236  0.57885  1.0000
  S   S112      1.0  0.85425  0.50095  0.54156  1.0000
  S   S113      1.0  0.84581  0.42676  0.56987  1.0000
  Fe  Fe54      1.0  0.80395  0.48180  0.62618  1.0000
  S   S114      1.0  0.82011  0.52301  0.59315  1.0000
  S   S115      1.0  0.76695  0.46712  0.66727  1.0000
  Fe  Fe55      1.0  0.81048  0.49631  0.54602  1.0000
  H   H848      1.0  0.49503  0.40522  0.64928  1.0000
  Fe  Fe56      1.0  0.86289  0.52436  0.59150  1.0000
  S   S116      1.0  0.90592  0.56491  0.59228  1.0000
  S   S117      1.0  0.79260  0.45543  0.57905  1.0000
  S   S118      1.0  0.84718  0.48552  0.62887  1.0000
  C   C483      1.0  0.93993  0.56863  0.59976  1.0000
  H   H849      1.0  0.67539  0.36620  0.91359  1.0000
  Fe  Fe57      1.0  0.51283  0.34663  0.58677  1.0000
  H   H850      1.0  0.67784  0.39534  0.66975  1.0000
  H   H851      1.0  0.92530  0.52476  0.61460  1.0000
  H   H852      1.0  0.75655  0.36353  0.62180  1.0000
  C   C484      1.0  0.68978  0.33989  0.66506  1.0000
  C   C485      1.0  0.70331  0.32802  0.69034  1.0000
  Fe  Fe58      1.0  0.62325  0.32641  0.80499  1.0000
  H   H853      1.0  0.77334  0.53322  0.53526  1.0000
  H   H854      1.0  0.73448  0.42099  0.53048  1.0000
  H   H855      1.0  0.65521  0.45753  0.59482  1.0000
  C   C486      1.0  0.73951  0.39210  0.74927  1.0000
  C   C487      1.0  0.76729  0.40628  0.73389  1.0000
  C   C488      1.0  0.77569  0.42853  0.70770  1.0000
  C   C489      1.0  0.75664  0.43763  0.69778  1.0000
  C   C490      1.0  0.72898  0.42378  0.71365  1.0000
  C   C491      1.0  0.72026  0.40077  0.73878  1.0000
  H   H856      1.0  0.78251  0.40027  0.74260  1.0000
  H   H857      1.0  0.79719  0.43934  0.69615  1.0000
  H   H858      1.0  0.71429  0.43106  0.70676  1.0000
  H   H859      1.0  0.69887  0.39026  0.75073  1.0000
  H   H860      1.0  0.67125  0.48222  0.62728  1.0000
  H   H861      1.0  0.97783  0.55422  0.53930  1.0000
  H   H862      1.0  0.74484  0.35809  0.55752  1.0000
  C   C492      1.0  0.97080  0.54973  0.61697  1.0000
  C   C493      1.0  0.84697  0.42276  0.52431  1.0000
  H   H863      1.0  0.75711  0.39402  0.60078  1.0000
  H   H864      1.0  0.53060  0.41260  0.63753  1.0000
  H   H865      1.0  0.73286  0.33682  0.86469  1.0000
  C   C494      1.0  0.55658  0.40501  0.53401  1.0000
  H   H866      1.0  0.86624  0.39624  0.52880  1.0000
  H   H867      1.0  0.73817  0.42430  0.81270  1.0000
  H   H868      1.0  0.77043  0.35059  0.72714  1.0000
  H   H869      1.0  0.64609  0.41935  0.62737  1.0000
  H   H870      1.0  0.74312  0.46161  0.56452  1.0000
  H   H871      1.0  0.59789  0.43972  0.54181  1.0000
  H   H872      1.0  0.57870  0.36461  0.72082  1.0000
  H   H873      1.0  0.66857  0.40636  0.60925  1.0000
  C   C495      1.0  0.54463  0.33047  0.50057  1.0000
  H   H874      1.0  0.69828  0.34323  0.89770  1.0000
  C   C496      1.0  0.76708  0.36925  0.56472  1.0000
  H   H875      1.0  0.69492  0.39844  0.88609  1.0000
  H   H876      1.0  0.68270  0.49396  0.54564  1.0000
  Fe  Fe59      1.0  0.68394  0.33706  0.80219  1.0000
  S   S119      1.0  0.59995  0.34724  0.77968  1.0000
  C   C497      1.0  0.96110  0.46567  0.50042  1.0000
  H   H877      1.0  0.94517  0.47238  0.56917  1.0000
  H   H878      1.0  0.76394  0.36358  0.68562  1.0000
  H   H879      1.0  0.75464  0.38561  0.85731  1.0000
  H   H880      1.0  0.78987  0.39430  0.60830  1.0000
  C   C498      1.0  0.66539  0.41764  0.63140  1.0000
  H   H881      1.0  0.65631  0.40934  0.68878  1.0000
  H   H882      1.0  0.71191  0.38294  0.95715  1.0000
  C   C499      1.0  0.71813  0.42777  0.53215  1.0000
  H   H883      1.0  0.85541  0.33963  0.55425  1.0000
  C   C500      1.0  0.93124  0.47263  0.54851  1.0000
  N   N29       1.0  0.69851  0.46797  0.60231  1.0000
  C   C501      1.0  0.69991  0.45509  0.56805  1.0000
  C   C502      1.0  0.67553  0.47610  0.60086  1.0000
  C   C503      1.0  0.72697  0.49337  0.60655  1.0000
  C   C504      1.0  0.69158  0.44726  0.63385  1.0000
  H   H884      1.0  0.65675  0.39851  0.92406  1.0000
  C   C505      1.0  0.72120  0.44367  0.56572  1.0000
  C   C506      1.0  0.72884  0.51127  0.63850  1.0000
  H   H885      1.0  0.77230  0.42575  0.81054  1.0000
  C   C507      1.0  0.73300  0.33482  0.89406  1.0000
  H   H886      1.0  0.75968  0.35432  0.50050  1.0000
  H   H887      1.0  0.77906  0.38781  0.54549  1.0000
  C   C508      1.0  0.75860  0.53645  0.63950  1.0000
  H   H888      1.0  0.70641  0.47105  0.54532  1.0000
  H   H889      1.0  0.67859  0.43794  0.56222  1.0000
  C   C509      1.0  0.74084  0.39269  0.87115  1.0000
  C   C510      1.0  0.65979  0.39917  0.66548  1.0000
  H   H890      1.0  0.73431  0.50760  0.58207  1.0000
  H   H891      1.0  0.74326  0.48668  0.60986  1.0000
  H   H892      1.0  0.71000  0.44423  0.63944  1.0000
  H   H893      1.0  0.68763  0.45603  0.65830  1.0000
  C   C511      1.0  0.76774  0.38088  0.60114  1.0000
  H   H894      1.0  0.90951  0.46402  0.56098  1.0000
  C   C512      1.0  0.50670  0.45100  0.52606  1.0000
  H   H895      1.0  0.71834  0.42904  0.58870  1.0000
  H   H896      1.0  0.72417  0.49845  0.66392  1.0000
  C   C513      1.0  0.67716  0.40315  0.93511  1.0000
  C   C514      1.0  0.50933  0.41934  0.59384  1.0000
  H   H897      1.0  0.76966  0.45685  0.81989  1.0000
  C   C515      1.0  0.95759  0.56825  0.50312  1.0000
  H   H898      1.0  0.53391  0.58650  0.51465  1.0000
  H   H899      1.0  0.52976  0.43383  0.57912  1.0000
  H   H900      1.0  0.52330  0.44151  0.64241  1.0000
  H   H901      1.0  0.91229  0.55247  0.50716  1.0000
  C   C516      1.0  0.68077  0.50011  0.57284  1.0000
  C   C517      1.0  0.53499  0.56961  0.49991  1.0000
  C   C518      1.0  0.96408  0.59561  0.59474  1.0000
  H   H902      1.0  0.81803  0.36163  0.70184  1.0000
  H   H903      1.0  0.77424  0.52895  0.64288  1.0000
  H   H904      1.0  0.76452  0.55023  0.61468  1.0000
  H   H905      1.0  0.75942  0.54918  0.66229  1.0000
  H   H906      1.0  0.69691  0.40873  0.53262  1.0000
  C   C519      1.0  0.50070  0.64371  0.55025  1.0000
  H   H907      1.0  0.63133  0.32914  0.69367  1.0000
  H   H908      1.0  0.51626  0.37382  0.51809  1.0000
  H   H909      1.0  0.52212  0.44299  0.52434  1.0000
  H   H910      1.0  0.52772  0.48273  0.56546  1.0000
  H   H911      1.0  0.75523  0.34362  0.90099  1.0000
  H   H912      1.0  0.77201  0.33480  0.58830  1.0000
  H   H913      1.0  0.66047  0.52355  0.55354  1.0000
  H   H914      1.0  0.70023  0.52002  0.57739  1.0000
  H   H915      1.0  0.68236  0.35259  0.68007  1.0000
  H   H916      1.0  0.64048  0.37850  0.66344  1.0000
  H   H917      1.0  0.75391  0.35522  0.96230  1.0000
  C   C520      1.0  0.76147  0.37823  0.96358  1.0000
  H   H918      1.0  0.74293  0.43426  0.87661  1.0000
  H   H919      1.0  0.69110  0.42647  0.93374  1.0000
  H   H920      1.0  0.77824  0.38930  0.90868  1.0000
  C   C521      1.0  0.75909  0.43346  0.82439  1.0000
  H   H921      1.0  0.49256  0.62446  0.56839  1.0000
  C   C522      1.0  0.52229  0.48178  0.53739  1.0000
  H   H922      1.0  0.50902  0.49198  0.53343  1.0000
  H   H923      1.0  0.70541  0.35398  0.64360  1.0000
  H   H924      1.0  0.71092  0.34159  0.93939  1.0000
  C   C523      1.0  0.69088  0.38906  0.91364  1.0000
  H   H925      1.0  0.73175  0.41627  0.93377  1.0000
  H   H926      1.0  0.67291  0.39500  0.96333  1.0000
  C   C524      1.0  0.56375  0.34265  0.72805  1.0000
  H   H927      1.0  0.80576  0.38845  0.96114  1.0000
  H   H928      1.0  0.79697  0.37222  0.49809  1.0000
  H   H929      1.0  0.74700  0.38104  0.98255  1.0000
  C   C525      1.0  0.75546  0.42530  0.86412  1.0000
  C   C526      1.0  0.76298  0.39214  0.92633  1.0000
  C   C527      1.0  0.71840  0.39330  0.92988  1.0000
  C   C528      1.0  0.80609  0.37113  0.68935  1.0000
  H   H930      1.0  0.71390  0.51973  0.63699  1.0000
  C   C529      1.0  0.52498  0.64500  0.52672  1.0000
  H   H931      1.0  0.65365  0.51367  0.60045  1.0000
  H   H932      1.0  0.73819  0.54961  0.52598  1.0000
  C   C530      1.0  0.73910  0.53445  0.50882  1.0000
  C   C531      1.0  0.77813  0.35069  0.49904  1.0000
  H   H933      1.0  0.49355  0.44861  0.59945  1.0000
  H   H934      1.0  0.53528  0.33980  0.68777  1.0000
  C   C532      1.0  0.65619  0.50649  0.57406  1.0000
  C   C533      1.0  0.58062  0.43104  0.52445  1.0000
  H   H935      1.0  0.52462  0.54965  0.51701  1.0000
  H   H936      1.0  0.77679  0.43553  0.87463  1.0000
  C   C534      1.0  0.93088  0.45459  0.51808  1.0000
  C   C535      1.0  0.94357  0.54562  0.61052  1.0000
  H   H937      1.0  0.72102  0.38295  0.85686  1.0000
  H   H938      1.0  0.96158  0.61359  0.58654  1.0000
  H   H939      1.0  0.80344  0.36410  0.56900  1.0000
  H   H940      1.0  0.77328  0.41539  0.92919  1.0000
  N   N30       1.0  0.73508  0.38207  0.90963  1.0000
  C   C536      1.0  0.78074  0.34971  0.56439  1.0000
  H   H941      1.0  0.63758  0.57929  0.52191  1.0000
  C   C537      1.0  0.75898  0.52512  0.51425  1.0000
  H   H942      1.0  0.92385  0.53402  0.53688  1.0000
  H   H943      1.0  0.81320  0.39231  0.69980  1.0000
  H   H944      1.0  0.64100  0.34266  0.96271  1.0000
  H   H945      1.0  0.81114  0.37415  0.66021  1.0000
  C   C538      1.0  0.71815  0.35019  0.91145  1.0000
  H   H946      1.0  0.59888  0.32885  0.68509  1.0000
  C   C539      1.0  0.51482  0.41977  0.63322  1.0000
  C   C540      1.0  0.54992  0.49924  0.51464  1.0000
  H   H947      1.0  0.97315  0.53184  0.62608  1.0000
  N   N31       1.0  0.77824  0.33360  0.53145  1.0000
  C   C541      1.0  0.64616  0.33158  0.98289  1.0000
  H   H948      1.0  0.92217  0.43253  0.52933  1.0000
  H   H949      1.0  0.96053  0.58488  0.52156  1.0000
  H   H950      1.0  0.72037  0.34605  0.70268  1.0000
  C   C542      1.0  0.53911  0.32864  0.70932  1.0000
  H   H951      1.0  0.56455  0.49055  0.51853  1.0000
  C   C543      1.0  0.77428  0.35240  0.69790  1.0000
  H   H952      1.0  0.50230  0.39744  0.58613  1.0000
  H   H953      1.0  0.63619  0.48741  0.56841  1.0000
  C   C544      1.0  0.80401  0.32973  0.52725  1.0000
  H   H954      1.0  0.82322  0.35059  0.52139  1.0000
  H   H955      1.0  0.96464  0.41970  0.50600  1.0000
  C   C545      1.0  0.85811  0.40624  0.51094  1.0000
  C   C546      1.0  0.97934  0.55794  0.50988  1.0000
  H   H956      1.0  0.93860  0.49480  0.53864  1.0000
  H   H957      1.0  0.56044  0.52150  0.52239  1.0000
  H   H958      1.0  0.79878  0.41431  0.98202  1.0000
  H   H959      1.0  0.51727  0.62618  0.51058  1.0000
  H   H960      1.0  0.55368  0.35154  0.51186  1.0000
  H   H961      1.0  0.97404  0.46447  0.52186  1.0000
  C   C547      1.0  0.56921  0.32843  0.75594  1.0000
  H   H962      1.0  0.72126  0.44174  0.50822  1.0000
  C   C548      1.0  0.79058  0.39136  0.97878  1.0000
  C   C549      1.0  0.53449  0.39386  0.51137  1.0000
  C   C550      1.0  0.83651  0.43570  0.50121  1.0000
  H   H963      1.0  0.82721  0.44793  0.51140  1.0000
  H   H964      1.0  0.54151  0.64538  0.54350  1.0000
  H   H965      1.0  0.76838  0.32743  0.65347  1.0000
  H   H966      1.0  0.48677  0.39540  0.53392  1.0000
  H   H967      1.0  0.97147  0.53677  0.49894  1.0000
  C   C551      1.0  0.48662  0.42829  0.58684  1.0000
  S   S120      1.0  0.78550  0.49357  0.49736  1.0000
  H   H968      1.0  0.50149  0.45252  0.49821  1.0000
  H   H969      1.0  0.91610  0.45506  0.49890  1.0000
  Fe  Fe60      1.0  0.50065  0.68544  0.42313  1.0000
  C   C552      1.0  0.53073  0.76347  0.34308  1.0000
  H   H970      1.0  0.48653  0.79151  0.38539  1.0000
  H   H971      1.0  0.55635  0.81201  0.44134  1.0000
  C   C553      1.0  0.53956  0.79579  0.45876  1.0000
  S   S121      1.0  0.53467  0.69831  0.37934  1.0000
  H   H972      1.0  0.54452  0.75935  0.36054  1.0000
  S   S122      1.0  0.49039  0.69407  0.29524  1.0000
  C   C554      1.0  0.52876  0.80372  0.48811  1.0000
  H   H973      1.0  0.76343  0.66292  0.42945  1.0000
  H   H974      1.0  0.75022  0.67562  0.39381  1.0000
  C   C555      1.0  0.50737  0.74581  0.47442  1.0000
  H   H975      1.0  0.69882  0.66916  0.38305  1.0000
  H   H976      1.0  0.49333  0.72603  0.36338  1.0000
  H   H977      1.0  0.53923  0.78672  0.33969  1.0000
  H   H978      1.0  0.70729  0.66400  0.43948  1.0000
  S   S123      1.0  0.49306  0.70915  0.46759  1.0000
  H   H979      1.0  0.53778  0.76120  0.42964  1.0000
  C   C556      1.0  0.52899  0.76699  0.45197  1.0000
  H   H980      1.0  0.53137  0.75502  0.31690  1.0000
  H   H981      1.0  0.76221  0.69852  0.46812  1.0000
  C   C557      1.0  0.76190  0.70081  0.43883  1.0000
  C   C558      1.0  0.49302  0.92755  0.45011  1.0000
  H   H982      1.0  0.74935  0.71144  0.43230  1.0000
  C   C559      1.0  0.74948  0.67191  0.42293  1.0000
  H   H983      1.0  0.50135  0.75726  0.38640  1.0000
  C   C560      1.0  0.50052  0.74899  0.35985  1.0000
  H   H984      1.0  0.78396  0.71448  0.42770  1.0000
  H   H985      1.0  0.60698  0.92497  0.46742  1.0000
  H   H986      1.0  0.49012  0.77777  0.33074  1.0000
  H   H987      1.0  0.50925  0.94712  0.46129  1.0000
  H   H988      1.0  0.50200  0.92391  0.42518  1.0000
  Fe  Fe61      1.0  0.49808  0.67424  0.34470  1.0000
  C   C561      1.0  0.60063  0.91286  0.49355  1.0000
  H   H989      1.0  0.48908  0.95830  0.39739  1.0000
  H   H990      1.0  0.67672  0.66502  0.32598  1.0000
  H   H991      1.0  0.70913  0.66342  0.32031  1.0000
  H   H992      1.0  0.60375  0.89409  0.49153  1.0000
  H   H993      1.0  0.48757  0.90943  0.46946  1.0000
  S   S124      1.0  0.54288  0.84020  0.49610  1.0000
  Fe  Fe62      1.0  0.53351  0.89923  0.59460  1.0000
  H   H994      1.0  0.50800  0.96706  0.51765  1.0000
  S   S125      1.0  0.56167  0.94094  0.62010  1.0000
  Fe  Fe63      1.0  0.52364  0.85437  0.54032  1.0000
  H   H995      1.0  0.57172  0.87163  0.66426  1.0000
  C   C562      1.0  0.59133  0.86983  0.66349  1.0000
  H   H996      1.0  0.61531  0.95053  0.52200  1.0000
  S   S126      1.0  0.52351  0.89620  0.53735  1.0000
  S   S127      1.0  0.53758  0.85935  0.59613  1.0000
  H   H997      1.0  0.61892  0.96114  0.59155  1.0000
  H   H998      1.0  0.64601  0.96958  0.64388  1.0000
  C   C563      1.0  0.63847  0.95948  0.58811  1.0000
  H   H999      1.0  0.59540  0.86999  0.60698  1.0000
  C   C564      1.0  0.51583  0.97093  0.54468  1.0000
  H   H1000     1.0  0.64917  0.97132  0.56247  1.0000
  H   H1001     1.0  0.62759  0.87989  0.62897  1.0000
  H   H1002     1.0  0.60396  0.88078  0.68604  1.0000
  H   H1003     1.0  0.69983  0.91951  0.54433  1.0000
  N   N32       1.0  0.63103  0.92874  0.58690  1.0000
  H   H1004     1.0  0.66853  0.92814  0.60332  1.0000
  H   H1005     1.0  0.58209  0.96777  0.54817  1.0000
  C   C565      1.0  0.58744  0.98424  0.56652  1.0000
  C   C566      1.0  0.49657  0.75377  0.50369  1.0000
  C   C567      1.0  0.61746  0.91432  0.62281  1.0000
  C   C568      1.0  0.61840  0.93165  0.52206  1.0000
  C   C569      1.0  0.65471  0.90128  0.55867  1.0000
  C   C570      1.0  0.60949  0.91592  0.55942  1.0000
  H   H1006     1.0  0.58938  0.91545  0.56836  1.0000
  H   H1007     1.0  0.52789  0.95947  0.54922  1.0000
  C   C571      1.0  0.65778  0.92724  0.57848  1.0000
  H   H1008     1.0  0.63206  0.92445  0.64406  1.0000
  H   H1009     1.0  0.59856  0.91687  0.62913  1.0000
  C   C572      1.0  0.65784  0.97636  0.61753  1.0000
  H   H1010     1.0  0.67332  0.94621  0.56163  1.0000
  C   C573      1.0  0.57862  0.97687  0.60248  1.0000
  H   H1011     1.0  0.60339  0.89340  0.55639  1.0000
  H   H1012     1.0  0.58512  0.84703  0.66674  1.0000
  C   C574      1.0  0.60852  0.88252  0.62817  1.0000
  H   H1013     1.0  0.63775  0.88097  0.57103  1.0000
  H   H1014     1.0  0.67669  0.97336  0.61828  1.0000
  H   H1015     1.0  0.68769  0.89694  0.58492  1.0000
  H   H1016     1.0  0.67966  0.88160  0.54251  1.0000
  C   C575      1.0  0.68223  0.89986  0.55762  1.0000
  S   S128      1.0  0.48812  0.87517  0.61657  1.0000
  Fe  Fe64      1.0  0.49096  0.83524  0.61268  1.0000
  H   H1017     1.0  0.64957  0.90275  0.53081  1.0000
  H   H1018     1.0  0.57786  0.90553  0.49978  1.0000
  H   H1019     1.0  0.50966  0.66259  0.56623  1.0000
  H   H1020     1.0  0.49748  0.96210  0.56452  1.0000
  H   H1021     1.0  0.64099  0.93906  0.51447  1.0000
  H   H1022     1.0  0.49879  0.78818  0.53338  1.0000
  H   H1023     1.0  0.53470  0.66449  0.50869  1.0000
  C   C576      1.0  0.50717  0.78250  0.51054  1.0000
  H   H1024     1.0  0.48705  0.66054  0.50697  1.0000
