data_image0
_chemical_formula_structural       HFeS2CHCHSFeSCFeS2FeSFeS2FeS2FeS2FeSFeS3C6H4C2HCHC2H2C4HC7H5CH2CH3SHCH9CH3CHCH4FeH4NH6NC7SHC3H17CH9C4H3C4H2CHCH2NCH3C3H4CH2CH3C2H2NC2HC7H14CH9CHCHCH3SH5FeS2H2CHCSFeS2FeSFeHFeHS2FeS2FeS2FeSFeS3CH4C2HNH2C6H4C3H3CH2C7H5CH4SCHCHCHNH2C2HCH4CH2CH4CH4C2HC3H2CH7CH2CFeCHCH3CH2NHCHSH3CH3C3H3CHCHC4H11C4H2C2NH4CSHNCH2CSHCHC3H4CH2C2HCH7CH7CH11C3H2FeS2FeS2FeSFeS3H3C6H4C6H8C7H7CH2CHCH4CH2CHC2H5CHCH5CHC4HCH2CH2CH2CH5CHC2HCHNH2NHCH3SH2CHNH3CH5C2SHCH6SH4C2H2CHC4H2CFeS2FeS2FeSFeS3HCHC6H4C6H4C3H2C6H3C2H4CH2NCH8CHCNC3HCHC4H11SC2H2CH6CHCNC5HC2HCH5CH17C3H2CH2CH3C2H4CHCH5CH12SC2H6CH2CHFeS2FeS2FeSFeS3FeS2CSFeSFeS3FeS2CNFeS3HCHCHC6H4CH2C6H6C2H2C4H2CH2CHNCH3CH2C2HCH2CH3C2H2CH2CHCH6CHCHCH5C2H2CH8CHCHCHCHCHCHCHCHCH3C2H4CH2NSCHCH6C3HCHFeCFeCH2CH3CH4CH4NH2CH2C2H3CH3CH2NH6CHCH5FeCH3CH2CH2C2H3C2H3CHCH2C2H3CH2CHNH6CH6FeS2FeS2FeSFeS3FeS2FeSFeSFeS3HCSFeSFeS2HCHC2HC6H4C2H2C2HC6H9CHCHCH5CHC2H3CFeCH3CHCH3CNHCH3CHCH2CH4CSCH5CHNC6HC4H20CHSH3CHCHCHCH3CNHCHFeC2H2CHCH4CH4CH6CH2CHNH6C2HCHCH2CH8CH3C2H6CHC2HCHC2HSHCH2C3H2FeS2FeSCFeSFeS5FeS2FeS2FeSFeS3HC5H4C3HC7H4C6H5CHSHC3H4NC12H28NC2HC3HC3H5FeCH2CH5CH8CNSC2H2CH5NH4CHCH3CHCNC2H2C2HCH5C2HCH10CH2C2HC3H4CFeCH2CH2C2H2CH2CH3CH11CH4CHCH10CH3CHCH2CFeS2FeSHFeSFeS4HFeS2FeS2FeSFeS3CHCH2C3HC2H2CHC2H2C7H4C6H6CH2C2H3CH2CHCH2CH9CHCH3CH3C2H2CHFeHC2H6CHCHC2H7CHCH7FeH2CH5CH2CHNHC3H3CHCH3NHC3HC2SH2C2H7C2H2CSHCH5CNHC2H2CNCH2C3H2C2H4CH3CH10C2H5SHCHCHCHFeS2FeS2FeSFeS3H2SH3C6H4C7H3C6H4C2HCH5CHCHCH2CHCH4CH3CH3CHCH4C2H2CH5NH3C2HC3HC2HCHNHNH10C2HC3H9CH2CH5CH2CH3FeH2FeS2FeS2FeSFeS3H2SHCHC3HC2H2CHC2H2C2H4CHC2HC6H3CH11CH3C5H3C2HCH3CNH5CH3C2H2CHC2H2FeHCH4CHCHC2HCH6CH3NH4C3HCH9CH2NHCHCH6C3H2C2HC2H4NHC2H3CH5CHS3HFeSFeSCFeS2FeS2FeSFeS3C7H4C2HCHCHCH2C6H5C3H5C2H3C2H4C2H2FeNC3HCH7NC7H2C3H14CSH3C3H8C3H4CHCH5C2HCSHCH3CHCHCH7CH3CHCHCHC2H6SH4CHCHCH3CHFeS3FeSFeSHFeS2FeS2FeSFeS3HC6H3C3H2CH2C2HC2H2C6H4C2H3CH5CHCH2CHC3HCHCH3CHCH11NC12H25C2H2C2H3CHC2HNHC2H9CH4CH2CH4NCHCH3CHCHCHCH6CSH7CNC3NH2CH4SCH3C2H4SCHCH4CH2C3H4C2H2CH3C
_chemical_formula_sum              "H1536 Fe96 S192 C864 N48"
_cell_length_a       52.6609
_cell_length_b       55.2591
_cell_length_c       44.4506
_cell_angle_alpha    90.6467
_cell_angle_beta     89.6901
_cell_angle_gamma    119.108

_space_group_name_H-M_alt    "P 1"
_space_group_IT_number       1

loop_
  _space_group_symop_operation_xyz
  'x, y, z'

loop_
  _atom_site_type_symbol
  _atom_site_label
  _atom_site_symmetry_multiplicity
  _atom_site_fract_x
  _atom_site_fract_y
  _atom_site_fract_z
  _atom_site_occupancy
  H   H1        1.0  0.18907  0.26688  0.39332  1.0000
  Fe  Fe1       1.0  0.42898  0.21462  0.15188  1.0000
  S   S1        1.0  0.44610  0.18664  0.13477  1.0000
  S   S2        1.0  0.38213  0.19677  0.17051  1.0000
  C   C1        1.0  0.07257  0.24634  0.19437  1.0000
  H   H2        1.0  0.36541  0.23959  0.20398  1.0000
  C   C2        1.0  0.47073  0.23795  0.01226  1.0000
  H   H3        1.0  0.31467  0.24900  0.00507  1.0000
  S   S3        1.0  0.43766  0.23658  0.10715  1.0000
  Fe  Fe2       1.0  0.03934  0.24138  0.31615  1.0000
  S   S4        1.0  0.07016  0.28032  0.34162  1.0000
  C   C3        1.0  0.15792  0.22324  0.19943  1.0000
  Fe  Fe3       1.0  0.08889  0.22814  0.30195  1.0000
  S   S5        1.0  0.12205  0.26581  0.32641  1.0000
  S   S6        1.0  0.09879  0.19570  0.28092  1.0000
  Fe  Fe4       1.0  0.08792  0.25461  0.36248  1.0000
  S   S7        1.0  0.09188  0.24228  0.41054  1.0000
  Fe  Fe5       1.0  0.10151  0.28839  0.30284  1.0000
  S   S8        1.0  0.05560  0.21559  0.33875  1.0000
  S   S9        1.0  0.06976  0.25080  0.27648  1.0000
  Fe  Fe6       1.0  0.26875  0.13190  0.31240  1.0000
  S   S10       1.0  0.23237  0.11914  0.27940  1.0000
  S   S11       1.0  0.31705  0.15301  0.29790  1.0000
  Fe  Fe7       1.0  0.22531  0.11227  0.36674  1.0000
  S   S12       1.0  0.18679  0.09879  0.33590  1.0000
  S   S13       1.0  0.20889  0.10397  0.41530  1.0000
  Fe  Fe8       1.0  0.20868  0.08025  0.30745  1.0000
  S   S14       1.0  0.18968  0.03700  0.28599  1.0000
  Fe  Fe9       1.0  0.21402  0.13884  0.31147  1.0000
  S   S15       1.0  0.20729  0.17605  0.30102  1.0000
  S   S16       1.0  0.24612  0.09217  0.33908  1.0000
  S   S17       1.0  0.25151  0.15310  0.34381  1.0000
  C   C4        1.0  0.17586  0.18010  0.29882  1.0000
  C   C5        1.0  0.14842  0.15815  0.29151  1.0000
  C   C6        1.0  0.12482  0.16310  0.28692  1.0000
  C   C7        1.0  0.12810  0.18981  0.29054  1.0000
  C   C8        1.0  0.15530  0.21155  0.29900  1.0000
  C   C9        1.0  0.17909  0.20679  0.30264  1.0000
  H   H4        1.0  0.14563  0.13756  0.28820  1.0000
  H   H5        1.0  0.10397  0.14616  0.28008  1.0000
  H   H6        1.0  0.15823  0.23222  0.30174  1.0000
  H   H7        1.0  0.20022  0.22394  0.30827  1.0000
  C   C10       1.0  0.16210  0.24453  0.22460  1.0000
  C   C11       1.0  0.16733  0.00382  0.30213  1.0000
  H   H8        1.0  0.25271  0.03100  0.48411  1.0000
  C   C12       1.0  0.22220  0.02576  0.37297  1.0000
  H   H9        1.0  0.15092  0.01816  0.33858  1.0000
  C   C13       1.0  0.25913  0.12558  0.44965  1.0000
  C   C14       1.0  0.22879  0.11217  0.44924  1.0000
  H   H10       1.0  0.15063  0.23240  0.24484  1.0000
  H   H11       1.0  0.27111  0.13132  0.42870  1.0000
  C   C15       1.0  0.37710  0.18553  0.02386  1.0000
  C   C16       1.0  0.12021  0.24879  0.20908  1.0000
  C   C17       1.0  0.09923  0.25972  0.44579  1.0000
  C   C18       1.0  0.10790  0.28792  0.44847  1.0000
  H   H12       1.0  0.11439  0.27873  0.18207  1.0000
  C   C19       1.0  0.15015  0.00025  0.32761  1.0000
  C   C20       1.0  0.36479  0.18370  0.20613  1.0000
  C   C21       1.0  0.33419  0.16797  0.20732  1.0000
  C   C22       1.0  0.31934  0.15798  0.23493  1.0000
  C   C23       1.0  0.33476  0.16400  0.26205  1.0000
  C   C24       1.0  0.36534  0.17969  0.26086  1.0000
  C   C25       1.0  0.38026  0.18935  0.23320  1.0000
  H   H13       1.0  0.32188  0.16321  0.18665  1.0000
  H   H14       1.0  0.29598  0.14530  0.23521  1.0000
  H   H15       1.0  0.37765  0.18445  0.28155  1.0000
  H   H16       1.0  0.40372  0.20144  0.23290  1.0000
  H   H17       1.0  0.15399  0.26183  0.38152  1.0000
  C   C26       1.0  0.45870  0.20914  0.01195  1.0000
  H   H18       1.0  0.09304  0.19438  0.37608  1.0000
  H   H19       1.0  0.21054  0.03237  0.38913  1.0000
  C   C27       1.0  0.09635  0.24452  0.47198  1.0000
  H   H20       1.0  0.14817  0.15497  0.42640  1.0000
  H   H21       1.0  0.15034  0.17909  0.47058  1.0000
  H   H22       1.0  0.16019  0.27349  0.17014  1.0000
  S   S18       1.0  0.45090  0.19012  0.04567  1.0000
  H   H23       1.0  0.38801  0.14794  0.05499  1.0000
  C   C28       1.0  0.23546  0.18391  0.45920  1.0000
  H   H24       1.0  0.07753  0.15992  0.33388  1.0000
  H   H25       1.0  0.23137  0.05893  0.43881  1.0000
  H   H26       1.0  0.26860  0.29385  0.22482  1.0000
  H   H27       1.0  0.24483  0.04294  0.37058  1.0000
  H   H28       1.0  0.21145  0.02184  0.35063  1.0000
  H   H29       1.0  0.04689  0.15901  0.35303  1.0000
  H   H30       1.0  0.17539  0.19008  0.42253  1.0000
  H   H31       1.0  0.23568  0.00545  0.40485  1.0000
  H   H32       1.0  0.18052  0.26494  0.35382  1.0000
  C   C29       1.0  0.31604  0.23016  0.01089  1.0000
  H   H33       1.0  0.19578  0.15343  0.36491  1.0000
  H   H34       1.0  0.29752  0.14128  0.47740  1.0000
  H   H35       1.0  0.16470  0.19565  0.22908  1.0000
  C   C30       1.0  0.24835  0.05584  0.45010  1.0000
  H   H36       1.0  0.15442  0.31459  0.19607  1.0000
  C   C31       1.0  0.11527  0.17405  0.43944  1.0000
  H   H37       1.0  0.23930  0.26271  0.24029  1.0000
  H   H38       1.0  0.16668  0.23371  0.17766  1.0000
  H   H39       1.0  0.16922  0.17995  0.36375  1.0000
  H   H40       1.0  0.16916  0.19099  0.18961  1.0000
  Fe  Fe10      1.0  0.45777  0.21100  0.09175  1.0000
  H   H41       1.0  0.23409  0.99419  0.36651  1.0000
  H   H42       1.0  0.36514  0.14374  0.08693  1.0000
  H   H43       1.0  0.18563  0.25538  0.23032  1.0000
  H   H44       1.0  0.09915  0.18159  0.44017  1.0000
  N   N1        1.0  0.15192  0.26518  0.21771  1.0000
  H   H45       1.0  0.38112  0.27539  0.21522  1.0000
  H   H46       1.0  0.98044  0.19825  0.38078  1.0000
  H   H47       1.0  0.00878  0.24351  0.43268  1.0000
  H   H48       1.0  0.07056  0.23436  0.17343  1.0000
  H   H49       1.0  0.10255  0.15104  0.44126  1.0000
  H   H50       1.0  0.21050  0.18162  0.39154  1.0000
  N   N2        1.0  0.28135  0.21518  0.23930  1.0000
  C   C32       1.0  0.28806  0.22186  0.27230  1.0000
  C   C33       1.0  0.26408  0.22865  0.22854  1.0000
  C   C34       1.0  0.26193  0.18418  0.23623  1.0000
  C   C35       1.0  0.30828  0.22357  0.22035  1.0000
  C   C36       1.0  0.33670  0.24966  0.23048  1.0000
  C   C37       1.0  0.30104  0.20561  0.28830  1.0000
  C   C38       1.0  0.25002  0.17310  0.20417  1.0000
  S   S19       1.0  0.99178  0.23191  0.31724  1.0000
  H   H51       1.0  0.23798  0.16771  0.44666  1.0000
  C   C39       1.0  0.36085  0.25710  0.20725  1.0000
  C   C40       1.0  0.31388  0.21839  0.31894  1.0000
  C   C41       1.0  0.23482  0.14148  0.20274  1.0000
  H   H52       1.0  0.26793  0.21761  0.28485  1.0000
  H   H53       1.0  0.30323  0.24419  0.27601  1.0000
  H   H54       1.0  0.25839  0.22383  0.20438  1.0000
  H   H55       1.0  0.24303  0.21988  0.24106  1.0000
  H   H56       1.0  0.24292  0.17695  0.25164  1.0000
  H   H57       1.0  0.27374  0.17314  0.24332  1.0000
  H   H58       1.0  0.31387  0.20655  0.21935  1.0000
  H   H59       1.0  0.30395  0.22660  0.19658  1.0000
  H   H60       1.0  0.34477  0.24590  0.25195  1.0000
  H   H61       1.0  0.33366  0.26791  0.23393  1.0000
  H   H62       1.0  0.28374  0.18401  0.29210  1.0000
  H   H63       1.0  0.31824  0.20484  0.27456  1.0000
  H   H64       1.0  0.26779  0.18112  0.18729  1.0000
  H   H65       1.0  0.23359  0.17916  0.19763  1.0000
  H   H66       1.0  0.25974  0.04999  0.43284  1.0000
  H   H67       1.0  0.10773  0.23380  0.22722  1.0000
  H   H68       1.0  0.18999  0.09452  0.47645  1.0000
  C   C42       1.0  0.10457  0.26556  0.20203  1.0000
  H   H69       1.0  0.19204  0.28573  0.19198  1.0000
  H   H70       1.0  0.02286  0.27800  0.44856  1.0000
  H   H71       1.0  0.35653  0.24420  0.98801  1.0000
  H   H72       1.0  0.33245  0.23963  0.31626  1.0000
  H   H73       1.0  0.29705  0.21910  0.33352  1.0000
  H   H74       1.0  0.32191  0.20553  0.33014  1.0000
  H   H75       1.0  0.22654  0.13420  0.17962  1.0000
  H   H76       1.0  0.25015  0.13380  0.20850  1.0000
  H   H77       1.0  0.21609  0.13247  0.21851  1.0000
  C   C43       1.0  0.27889  0.26063  0.23082  1.0000
  C   C44       1.0  0.18548  0.29508  0.26106  1.0000
  C   C45       1.0  0.15478  0.28125  0.24637  1.0000
  C   C46       1.0  0.40245  0.23502  0.03669  1.0000
  H   H78       1.0  0.45053  0.30657  0.04104  1.0000
  H   H79       1.0  0.14445  0.20857  0.46932  1.0000
  H   H80       1.0  0.35935  0.25390  0.02743  1.0000
  C   C47       1.0  0.35066  0.21138  0.02002  1.0000
  C   C48       1.0  0.37168  0.17743  0.05763  1.0000
  C   C49       1.0  0.23487  0.03329  0.47389  1.0000
  C   C50       1.0  0.43882  0.28512  0.04980  1.0000
  H   H81       1.0  0.30623  0.22316  0.03350  1.0000
  H   H82       1.0  0.06153  0.25885  0.19083  1.0000
  C   C51       1.0  0.36824  0.14865  0.06256  1.0000
  H   H83       1.0  0.35885  0.16852  0.01123  1.0000
  C   C52       1.0  0.16985  0.28352  0.19215  1.0000
  H   H84       1.0  0.39231  0.23535  0.05866  1.0000
  H   H85       1.0  0.41961  0.22947  0.04211  1.0000
  N   N3        1.0  0.38006  0.21335  0.01586  1.0000
  C   C53       1.0  0.02968  0.24949  0.47658  1.0000
  H   H86       1.0  0.33369  0.19288  0.00787  1.0000
  H   H87       1.0  0.34406  0.20782  0.04406  1.0000
  H   H88       1.0  0.17415  0.31259  0.29972  1.0000
  C   C54       1.0  0.25734  0.27085  0.22366  1.0000
  C   C55       1.0  0.17322  0.20668  0.20747  1.0000
  C   C56       1.0  0.11377  0.30077  0.47711  1.0000
  H   H89       1.0  0.35165  0.17702  0.06608  1.0000
  H   H90       1.0  0.39015  0.19211  0.07180  1.0000
  H   H91       1.0  0.26456  0.07572  0.46061  1.0000
  H   H92       1.0  0.28758  0.26851  0.25360  1.0000
  C   C57       1.0  0.13354  0.18560  0.46867  1.0000
  H   H93       1.0  0.24829  0.26420  0.20065  1.0000
  H   H94       1.0  0.25682  0.20318  0.45941  1.0000
  C   C58       1.0  0.21349  0.10488  0.47665  1.0000
  H   H95       1.0  0.13915  0.26731  0.26351  1.0000
  H   H96       1.0  0.14649  0.14451  0.37378  1.0000
  H   H97       1.0  0.05637  0.13235  0.35982  1.0000
  C   C59       1.0  0.22267  0.99986  0.38387  1.0000
  C   C60       1.0  0.17461  0.31365  0.19187  1.0000
  H   H98       1.0  0.10541  0.27852  0.22154  1.0000
  H   H99       1.0  0.14829  0.29735  0.24303  1.0000
  N   N4        1.0  0.13204  0.18198  0.41016  1.0000
  C   C61       1.0  0.11085  0.16639  0.38510  1.0000
  C   C62       1.0  0.15536  0.17342  0.41173  1.0000
  H   H100      1.0  0.47608  0.24915  0.03348  1.0000
  C   C63       1.0  0.14539  0.21294  0.40700  1.0000
  C   C64       1.0  0.15947  0.22528  0.37640  1.0000
  C   C65       1.0  0.08506  0.17223  0.38122  1.0000
  C   C66       1.0  0.16436  0.16478  0.38182  1.0000
  C   C67       1.0  0.19121  0.16138  0.38611  1.0000
  C   C68       1.0  0.17148  0.25665  0.37636  1.0000
  C   C69       1.0  0.06534  0.15478  0.35541  1.0000
  H   H101      1.0  0.10156  0.14367  0.38841  1.0000
  H   H102      1.0  0.12194  0.17071  0.36291  1.0000
  H   H103      1.0  0.18763  0.14633  0.40419  1.0000
  H   H104      1.0  0.11744  0.23621  0.18845  1.0000
  H   H105      1.0  0.30337  0.21375  0.99397  1.0000
  H   H106      1.0  0.29674  0.27000  0.21410  1.0000
  H   H107      1.0  0.12888  0.21953  0.41166  1.0000
  H   H108      1.0  0.16256  0.22386  0.42424  1.0000
  H   H109      1.0  0.14327  0.21643  0.35804  1.0000
  H   H110      1.0  0.17797  0.22161  0.37176  1.0000
  H   H111      1.0  0.07124  0.16681  0.40159  1.0000
  H   H112      1.0  0.39700  0.18461  0.01697  1.0000
  H   H113      1.0  0.06132  0.23162  0.21292  1.0000
  H   H114      1.0  0.08967  0.22270  0.47012  1.0000
  C   C70       1.0  0.27401  0.13123  0.47726  1.0000
  H   H115      1.0  0.21931  0.18767  0.44719  1.0000
  H   H116      1.0  0.13452  0.20797  0.19664  1.0000
  H   H117      1.0  0.19702  0.22048  0.20950  1.0000
  H   H118      1.0  0.35466  0.26216  0.18532  1.0000
  H   H119      1.0  0.18776  0.27957  0.27485  1.0000
  H   H120      1.0  0.45531  0.27943  0.05727  1.0000
  H   H121      1.0  0.34905  0.13266  0.05014  1.0000
  H   H122      1.0  0.21992  0.01357  0.46223  1.0000
  H   H123      1.0  0.42557  0.28483  0.06947  1.0000
  C   C71       1.0  0.02680  0.26009  0.44585  1.0000
  H   H124      1.0  0.11026  0.29986  0.42851  1.0000
  C   C72       1.0  0.41960  0.26527  0.02511  1.0000
  H   H125      1.0  0.20293  0.30282  0.24385  1.0000
  C   C73       1.0  0.34785  0.23689  0.01083  1.0000
  H   H126      1.0  0.04720  0.26700  0.43285  1.0000
  H   H127      1.0  0.03543  0.23286  0.47269  1.0000
  H   H128      1.0  0.40521  0.27300  0.01671  1.0000
  S   S20       1.0  0.47234  0.24684  0.17092  1.0000
  H   H129      1.0  0.45914  0.14198  0.11003  1.0000
  H   H130      1.0  0.43417  0.26658  0.00634  1.0000
  H   H131      1.0  0.17141  0.31654  0.14328  1.0000
  H   H132      1.0  0.98449  0.22015  0.48147  1.0000
  H   H133      1.0  0.27609  0.15954  0.71748  1.0000
  Fe  Fe11      1.0  0.42727  0.21383  0.82017  1.0000
  S   S21       1.0  0.44033  0.19685  0.85974  1.0000
  S   S22       1.0  0.37952  0.18991  0.80509  1.0000
  H   H134      1.0  0.40309  0.20586  0.74430  1.0000
  H   H135      1.0  0.32670  0.20243  0.74330  1.0000
  C   C74       1.0  0.27939  0.23536  0.69616  1.0000
  H   H136      1.0  0.37756  0.11985  0.77760  1.0000
  C   C75       1.0  0.40806  0.13364  0.71835  1.0000
  S   S23       1.0  0.44948  0.25739  0.83938  1.0000
  Fe  Fe12      1.0  0.10725  0.23223  0.62029  1.0000
  S   S24       1.0  0.14164  0.27631  0.61259  1.0000
  S   S25       1.0  0.11318  0.19408  0.61384  1.0000
  Fe  Fe13      1.0  0.05858  0.24756  0.62713  1.0000
  S   S26       1.0  0.09029  0.29286  0.62035  1.0000
  Fe  Fe14      1.0  0.10872  0.27880  0.58268  1.0000
  H   H137      1.0  0.36843  0.17745  0.96315  1.0000
  Fe  Fe15      1.0  0.12060  0.28734  0.65116  1.0000
  H   H138      1.0  0.46935  0.16353  0.71097  1.0000
  S   S27       1.0  0.07563  0.23422  0.58751  1.0000
  S   S28       1.0  0.08783  0.24260  0.66081  1.0000
  Fe  Fe16      1.0  0.27919  0.12822  0.65172  1.0000
  S   S29       1.0  0.23399  0.11509  0.66898  1.0000
  S   S30       1.0  0.32437  0.14809  0.67400  1.0000
  Fe  Fe17      1.0  0.25860  0.12145  0.58527  1.0000
  S   S31       1.0  0.21259  0.10878  0.59774  1.0000
  S   S32       1.0  0.27836  0.12988  0.53852  1.0000
  Fe  Fe18      1.0  0.23109  0.14227  0.63319  1.0000
  S   S33       1.0  0.22343  0.17899  0.64229  1.0000
  Fe  Fe19      1.0  0.21859  0.08205  0.63218  1.0000
  S   S34       1.0  0.17992  0.03840  0.63703  1.0000
  S   S35       1.0  0.27685  0.15685  0.61791  1.0000
  S   S36       1.0  0.26395  0.09319  0.61760  1.0000
  C   C76       1.0  0.25873  0.12369  0.50462  1.0000
  H   H139      1.0  0.31164  0.19444  0.69421  1.0000
  H   H140      1.0  0.34071  0.24945  0.68109  1.0000
  H   H141      1.0  0.18738  0.19769  0.57550  1.0000
  H   H142      1.0  0.21649  0.10473  0.52521  1.0000
  C   C77       1.0  0.23845  0.14403  0.74567  1.0000
  C   C78       1.0  0.11084  0.28554  0.50329  1.0000
  H   H143      1.0  0.00570  0.15470  0.53588  1.0000
  N   N5        1.0  0.21398  0.19158  0.54218  1.0000
  H   H144      1.0  0.09970  0.24535  0.52053  1.0000
  H   H145      1.0  0.23715  0.20700  0.58409  1.0000
  C   C79       1.0  0.14364  0.19004  0.62332  1.0000
  C   C80       1.0  0.16960  0.21210  0.63410  1.0000
  C   C81       1.0  0.19361  0.20817  0.64014  1.0000
  C   C82       1.0  0.19197  0.18220  0.63562  1.0000
  C   C83       1.0  0.16593  0.16005  0.62514  1.0000
  C   C84       1.0  0.14197  0.16403  0.61890  1.0000
  H   H146      1.0  0.17121  0.23221  0.63759  1.0000
  H   H147      1.0  0.21363  0.22543  0.64818  1.0000
  H   H148      1.0  0.16423  0.13990  0.62177  1.0000
  H   H149      1.0  0.12194  0.14681  0.61070  1.0000
  C   C85       1.0  0.22839  0.11074  0.50427  1.0000
  C   C86       1.0  0.17696  0.00514  0.63140  1.0000
  C   C87       1.0  0.11412  0.17524  0.49654  1.0000
  H   H150      1.0  0.17086  0.10615  0.53044  1.0000
  H   H151      1.0  0.22226  0.01977  0.62251  1.0000
  H   H152      1.0  0.17096  0.23516  0.57396  1.0000
  C   C88       1.0  0.45610  0.20929  0.95702  1.0000
  H   H153      1.0  0.28559  0.19363  0.66913  1.0000
  H   H154      1.0  0.44971  0.19802  0.93587  1.0000
  C   C89       1.0  0.18892  0.99340  0.51666  1.0000
  C   C90       1.0  0.36460  0.17819  0.76850  1.0000
  C   C91       1.0  0.33522  0.15777  0.76555  1.0000
  C   C92       1.0  0.32238  0.14844  0.73692  1.0000
  C   C93       1.0  0.33879  0.15951  0.71081  1.0000
  C   C94       1.0  0.36818  0.17987  0.71380  1.0000
  C   C95       1.0  0.38090  0.18938  0.74240  1.0000
  H   H155      1.0  0.32230  0.14907  0.78557  1.0000
  H   H156      1.0  0.29992  0.13242  0.73509  1.0000
  H   H157      1.0  0.38113  0.18862  0.69381  1.0000
  H   H158      1.0  0.26625  0.22555  0.67555  1.0000
  H   H159      1.0  0.19153  0.26506  0.55089  1.0000
  C   C96       1.0  0.02435  0.28136  0.54299  1.0000
  H   H160      1.0  0.32186  0.25489  0.73126  1.0000
  H   H161      1.0  0.22249  0.24578  0.56605  1.0000
  H   H162      1.0  0.37905  0.11318  0.83211  1.0000
  H   H163      1.0  0.16570  0.23278  0.53363  1.0000
  S   S37       1.0  0.47104  0.25698  0.92444  1.0000
  C   C97       1.0  0.45844  0.16842  0.72980  1.0000
  H   H164      1.0  0.07314  0.29176  0.82939  1.0000
  C   C98       1.0  0.44170  0.12042  0.74320  1.0000
  H   H165      1.0  0.34856  0.19631  0.95989  1.0000
  C   C99       1.0  0.04580  0.30273  0.56517  1.0000
  H   H166      1.0  0.36977  0.23445  0.77342  1.0000
  N   N6        1.0  0.28941  0.21657  0.71006  1.0000
  H   H167      1.0  0.23858  0.22600  0.71900  1.0000
  H   H168      1.0  0.03929  0.29006  0.84034  1.0000
  C   C100      1.0  0.21929  0.19558  0.50865  1.0000
  C   C101      1.0  0.20609  0.23441  0.54825  1.0000
  H   H169      1.0  0.39437  0.14929  0.82354  1.0000
  C   C102      1.0  0.26081  0.05447  0.54651  1.0000
  H   H170      1.0  0.04742  0.25810  0.53788  1.0000
  H   H171      1.0  0.44292  0.15841  0.78654  1.0000
  H   H172      1.0  0.15934  0.10786  0.56857  1.0000
  H   H173      1.0  0.41686  0.16470  0.76902  1.0000
  C   C103      1.0  0.19394  0.20274  0.55158  1.0000
  H   H174      1.0  0.39416  0.23989  0.97650  1.0000
  H   H175      1.0  0.21253  0.15153  0.54338  1.0000
  C   C104      1.0  0.18204  0.24221  0.55189  1.0000
  H   H176      1.0  0.41797  0.13513  0.83257  1.0000
  H   H177      1.0  0.30244  0.07538  0.56927  1.0000
  H   H178      1.0  0.27371  0.20261  0.53188  1.0000
  H   H179      1.0  0.28186  0.17548  0.75454  1.0000
  C   C105      1.0  0.00092  0.23816  0.49466  1.0000
  H   H180      1.0  0.27117  0.06380  0.52474  1.0000
  H   H181      1.0  0.20001  0.16003  0.57629  1.0000
  H   H182      1.0  0.31663  0.23808  0.64935  1.0000
  H   H183      1.0  0.45584  0.08348  0.77157  1.0000
  C   C106      1.0  0.22532  0.17431  0.49130  1.0000
  C   C107      1.0  0.39755  0.13097  0.82102  1.0000
  H   H184      1.0  0.99487  0.18063  0.63105  1.0000
  C   C108      1.0  0.02514  0.25365  0.54454  1.0000
  C   C109      1.0  0.45233  0.19152  0.71821  1.0000
  C   C110      1.0  0.38469  0.10256  0.71677  1.0000
  H   H185      1.0  0.14500  0.02653  0.57992  1.0000
  H   H186      1.0  0.36004  0.26133  0.77003  1.0000
  C   C111      1.0  0.19380  0.03399  0.54651  1.0000
  H   H187      1.0  0.30195  0.23784  0.57032  1.0000
  H   H188      1.0  0.02349  0.24802  0.56863  1.0000
  H   H189      1.0  0.04042  0.18166  0.54974  1.0000
  H   H190      1.0  0.24873  0.26251  0.68070  1.0000
  H   H191      1.0  0.19042  0.02440  0.56910  1.0000
  H   H192      1.0  0.22960  0.15086  0.76470  1.0000
  H   H193      1.0  0.24202  0.12690  0.75351  1.0000
  C   C112      1.0  0.24197  0.20771  0.55954  1.0000
  H   H194      1.0  0.25378  0.06832  0.55740  1.0000
  H   H195      1.0  0.28442  0.21275  0.59984  1.0000
  C   C113      1.0  0.16786  0.14333  0.54094  1.0000
  Fe  Fe20      1.0  0.46572  0.24068  0.87634  1.0000
  C   C114      1.0  0.32684  0.23124  0.66672  1.0000
  H   H196      1.0  0.12732  0.18400  0.51721  1.0000
  C   C115      1.0  0.01663  0.17035  0.55400  1.0000
  H   H197      1.0  0.16728  0.04313  0.51524  1.0000
  H   H198      1.0  0.17343  0.19251  0.53841  1.0000
  H   H199      1.0  0.29843  0.22957  0.75681  1.0000
  C   C116      1.0  0.15768  0.11251  0.54463  1.0000
  H   H200      1.0  0.43916  0.18499  0.69729  1.0000
  H   H201      1.0  0.22218  0.13598  0.72721  1.0000
  N   N7        1.0  0.43241  0.14226  0.74099  1.0000
  H   H202      1.0  0.27994  0.28673  0.70252  1.0000
  C   C117      1.0  0.26722  0.16800  0.73478  1.0000
  H   H203      1.0  0.16442  0.06159  0.56610  1.0000
  S   S38       1.0  0.01168  0.23983  0.63033  1.0000
  H   H204      1.0  0.35126  0.23241  0.72301  1.0000
  H   H205      1.0  0.29838  0.25493  0.68847  1.0000
  H   H206      1.0  0.25290  0.22996  0.55337  1.0000
  C   C118      1.0  0.47474  0.10377  0.76571  1.0000
  H   H207      1.0  0.33661  0.22985  0.79030  1.0000
  H   H208      1.0  0.36279  0.23920  0.63685  1.0000
  H   H209      1.0  0.01281  0.15941  0.57578  1.0000
  C   C119      1.0  0.31048  0.23215  0.73535  1.0000
  C   C120      1.0  0.10192  0.25728  0.50060  1.0000
  C   C121      1.0  0.33505  0.22492  0.74147  1.0000
  H   H210      1.0  0.35808  0.21604  0.66722  1.0000
  H   H211      1.0  0.01463  0.20461  0.57502  1.0000
  H   H212      1.0  0.44900  0.11706  0.72069  1.0000
  C   C122      1.0  0.28417  0.05395  0.56629  1.0000
  H   H213      1.0  0.20520  0.15397  0.48972  1.0000
  C   C123      1.0  0.26097  0.24372  0.71678  1.0000
  H   H214      1.0  0.33349  0.20401  0.63556  1.0000
  C   C124      1.0  0.34643  0.22198  0.65063  1.0000
  C   C125      1.0  0.30273  0.20746  0.68534  1.0000
  C   C126      1.0  0.26272  0.19150  0.72187  1.0000
  C   C127      1.0  0.35126  0.23855  0.77060  1.0000
  H   H215      1.0  0.25249  0.19752  0.74031  1.0000
  H   H216      1.0  0.24603  0.18223  0.70372  1.0000
  H   H217      1.0  0.15326  0.14815  0.55490  1.0000
  H   H218      1.0  0.21636  0.24166  0.52592  1.0000
  H   H219      1.0  0.22820  0.01552  0.56454  1.0000
  H   H220      1.0  0.13459  0.10019  0.53761  1.0000
  H   H221      1.0  0.44040  0.19682  0.73514  1.0000
  H   H222      1.0  0.39402  0.09050  0.70569  1.0000
  H   H223      1.0  0.99325  0.25371  0.49426  1.0000
  H   H224      1.0  0.27071  0.24998  0.73954  1.0000
  H   H225      1.0  0.16505  0.14719  0.51707  1.0000
  C   C128      1.0  0.19985  0.16155  0.55133  1.0000
  C   C129      1.0  0.25831  0.26783  0.70362  1.0000
  C   C130      1.0  0.42378  0.14873  0.77122  1.0000
  C   C131      1.0  0.39862  0.12422  0.78779  1.0000
  H   H226      1.0  0.41706  0.13836  0.69508  1.0000
  H   H227      1.0  0.36518  0.10684  0.67525  1.0000
  C   C132      1.0  0.14995  0.03964  0.55963  1.0000
  C   C133      1.0  0.46759  0.23806  0.95743  1.0000
  N   N8        1.0  0.00218  0.22972  0.52651  1.0000
  H   H228      1.0  0.40067  0.10525  0.78699  1.0000
  H   H229      1.0  0.36851  0.19193  0.91103  1.0000
  H   H230      1.0  0.39675  0.14605  0.72195  1.0000
  H   H231      1.0  0.25681  0.17648  0.56056  1.0000
  C   C134      1.0  0.00980  0.20666  0.52591  1.0000
  S   S39       1.0  0.46574  0.22062  0.79210  1.0000
  H   H232      1.0  0.34257  0.07596  0.69630  1.0000
  N   N9        1.0  0.20881  0.02318  0.52559  1.0000
  C   C135      1.0  0.35844  0.09839  0.69825  1.0000
  H   H233      1.0  0.37667  0.09350  0.73913  1.0000
  H   H234      1.0  0.38517  0.22776  0.92261  1.0000
  C   C136      1.0  0.20096  0.00176  0.62426  1.0000
  S   S40       1.0  0.11870  0.30256  0.53881  1.0000
  H   H235      1.0  0.00259  0.27855  0.54862  1.0000
  C   C137      1.0  0.16422  0.03039  0.53546  1.0000
  H   H236      1.0  0.34741  0.10890  0.70934  1.0000
  C   C138      1.0  0.46621  0.12654  0.76629  1.0000
  C   C139      1.0  0.21791  0.04062  0.49764  1.0000
  C   C140      1.0  0.26534  0.19866  0.55525  1.0000
  H   H237      1.0  0.42332  0.09995  0.74920  1.0000
  H   H238      1.0  0.23107  0.06291  0.50375  1.0000
  H   H239      1.0  0.06043  0.31265  0.81031  1.0000
  H   H240      1.0  0.20793  0.05654  0.55089  1.0000
  C   C141      1.0  0.38307  0.20728  0.92798  1.0000
  H   H241      1.0  0.47511  0.17803  0.74788  1.0000
  H   H242      1.0  0.99775  0.19135  0.50774  1.0000
  C   C142      1.0  0.00444  0.19040  0.55567  1.0000
  C   C143      1.0  0.23476  0.02490  0.54184  1.0000
  H   H243      1.0  0.06827  0.30694  0.56029  1.0000
  C   C144      1.0  0.29138  0.21549  0.57590  1.0000
  H   H244      1.0  0.24309  0.01224  0.53016  1.0000
  H   H245      1.0  0.30759  0.20826  0.57294  1.0000
  H   H246      1.0  0.27525  0.04559  0.58887  1.0000
  H   H247      1.0  0.24389  0.27242  0.71813  1.0000
  H   H248      1.0  0.29272  0.04107  0.55567  1.0000
  H   H249      1.0  0.12928  0.03763  0.55095  1.0000
  H   H250      1.0  0.24205  0.17083  0.50227  1.0000
  C   C145      1.0  0.06175  0.30408  0.83239  1.0000
  H   H251      1.0  0.40481  0.20870  0.92614  1.0000
  H   H252      1.0  0.17132  0.99170  0.50157  1.0000
  H   H253      1.0  0.20028  0.19500  0.49712  1.0000
  H   H254      1.0  0.45888  0.12757  0.78949  1.0000
  H   H255      1.0  0.47562  0.23412  0.70309  1.0000
  H   H256      1.0  0.03317  0.21504  0.51998  1.0000
  H   H257      1.0  0.23769  0.21666  0.50412  1.0000
  C   C146      1.0  0.37050  0.19817  0.95955  1.0000
  H   H258      1.0  0.20102  0.98535  0.50300  1.0000
  H   H259      1.0  0.41208  0.22045  0.98181  1.0000
  H   H260      1.0  0.44239  0.17261  0.98377  1.0000
  H   H261      1.0  0.03034  0.29034  0.52015  1.0000
  H   H262      1.0  0.03993  0.29516  0.58859  1.0000
  H   H263      1.0  0.10328  0.15228  0.49774  1.0000
  H   H264      1.0  0.14864  0.00848  0.52999  1.0000
  H   H265      1.0  0.09731  0.18189  0.49613  1.0000
  H   H266      1.0  0.98086  0.17794  0.56053  1.0000
  H   H267      1.0  0.19865  0.03902  0.48568  1.0000
  H   H268      1.0  0.04801  0.26688  0.48849  1.0000
  C   C147      1.0  0.45183  0.19493  0.98420  1.0000
  C   C148      1.0  0.39045  0.21927  0.98367  1.0000
  C   C149      1.0  0.47535  0.25232  0.98510  1.0000
  H   H269      1.0  0.47810  0.16726  0.89869  1.0000
  H   H270      1.0  0.23850  0.55294  0.19741  1.0000
  Fe  Fe21      1.0  0.18410  0.44618  0.13993  1.0000
  S   S41       1.0  0.21133  0.45628  0.09716  1.0000
  S   S42       1.0  0.15740  0.40189  0.15971  1.0000
  Fe  Fe22      1.0  0.19173  0.50492  0.14348  1.0000
  S   S43       1.0  0.21899  0.51910  0.10222  1.0000
  S   S44       1.0  0.18257  0.53446  0.17142  1.0000
  Fe  Fe23      1.0  0.18762  0.47833  0.08121  1.0000
  S   S45       1.0  0.17339  0.48310  0.03411  1.0000
  Fe  Fe24      1.0  0.24138  0.49694  0.12017  1.0000
  S   S46       1.0  0.28960  0.51987  0.10994  1.0000
  S   S47       1.0  0.15799  0.46549  0.12173  1.0000
  S   S48       1.0  0.21648  0.48541  0.16390  1.0000
  H   H271      1.0  0.29379  0.63225  0.13858  1.0000
  H   H272      1.0  0.25940  0.59195  0.02538  1.0000
  H   H273      1.0  0.26170  0.46162  0.02942  1.0000
  C   C150      1.0  0.35239  0.60442  0.15145  1.0000
  C   C151      1.0  0.34680  0.60196  0.12050  1.0000
  C   C152      1.0  0.32658  0.57618  0.10797  1.0000
  C   C153      1.0  0.31152  0.55289  0.12634  1.0000
  C   C154      1.0  0.31690  0.55557  0.15729  1.0000
  C   C155      1.0  0.33717  0.58122  0.16979  1.0000
  H   H274      1.0  0.35863  0.61969  0.10615  1.0000
  H   H275      1.0  0.32309  0.57417  0.08396  1.0000
  H   H276      1.0  0.30606  0.53759  0.17150  1.0000
  H   H277      1.0  0.34148  0.58294  0.19370  1.0000
  C   C156      1.0  0.17840  0.56043  0.15288  1.0000
  C   C157      1.0  0.17518  0.58026  0.17004  1.0000
  C   C158      1.0  0.17096  0.60070  0.15591  1.0000
  C   C159      1.0  0.16981  0.60137  0.12456  1.0000
  C   C160      1.0  0.17296  0.58149  0.10741  1.0000
  C   C161      1.0  0.17746  0.56120  0.12149  1.0000
  H   H278      1.0  0.17542  0.57952  0.19433  1.0000
  H   H279      1.0  0.16741  0.61528  0.16917  1.0000
  H   H280      1.0  0.17148  0.58155  0.08315  1.0000
  H   H281      1.0  0.17940  0.54574  0.10807  1.0000
  H   H282      1.0  0.06857  0.43781  0.22614  1.0000
  H   H283      1.0  0.26092  0.55224  0.05570  1.0000
  H   H284      1.0  0.19631  0.46073  0.22810  1.0000
  H   H285      1.0  0.20081  0.45006  0.01582  1.0000
  C   C162      1.0  0.25405  0.54985  0.03166  1.0000
  C   C163      1.0  0.13811  0.35074  0.24794  1.0000
  C   C164      1.0  0.16162  0.37800  0.24653  1.0000
  C   C165      1.0  0.16799  0.39387  0.21993  1.0000
  C   C166      1.0  0.15110  0.38270  0.19399  1.0000
  C   C167      1.0  0.12783  0.35530  0.19528  1.0000
  C   C168      1.0  0.12112  0.33963  0.22203  1.0000
  H   H286      1.0  0.17506  0.38698  0.26625  1.0000
  H   H287      1.0  0.18624  0.41459  0.21942  1.0000
  H   H288      1.0  0.11453  0.34626  0.17550  1.0000
  H   H289      1.0  0.18794  0.62564  0.99676  1.0000
  H   H290      1.0  0.28706  0.48881  0.05379  1.0000
  H   H291      1.0  0.24712  0.49700  0.03623  1.0000
  H   H292      1.0  0.32337  0.63365  0.19598  1.0000
  C   C169      1.0  0.18486  0.47643  0.99881  1.0000
  H   H293      1.0  0.23075  0.57341  0.07234  1.0000
  H   H294      1.0  0.29997  0.59636  0.99887  1.0000
  C   C170      1.0  0.45039  0.62610  0.14936  1.0000
  H   H295      1.0  0.34081  0.57916  0.03036  1.0000
  C   C171      1.0  0.27777  0.63913  0.14443  1.0000
  H   H296      1.0  0.19060  0.34930  0.16271  1.0000
  H   H297      1.0  0.21250  0.32806  0.29227  1.0000
  H   H298      1.0  0.23069  0.63527  0.16823  1.0000
  H   H299      1.0  0.35522  0.62930  0.03188  1.0000
  C   C172      1.0  0.33487  0.58808  0.01109  1.0000
  H   H300      1.0  0.30763  0.53526  0.00973  1.0000
  H   H301      1.0  0.23504  0.52872  0.02944  1.0000
  C   C173      1.0  0.11875  0.47413  0.19311  1.0000
  H   H302      1.0  0.21128  0.58168  0.04487  1.0000
  C   C174      1.0  0.24194  0.57004  0.02568  1.0000
  C   C175      1.0  0.30317  0.58268  0.01483  1.0000
  H   H303      1.0  0.21107  0.61038  0.00272  1.0000
  H   H304      1.0  0.10254  0.31911  0.22267  1.0000
  H   H305      1.0  0.07537  0.42307  0.17778  1.0000
  H   H306      1.0  0.22462  0.61958  0.22172  1.0000
  H   H307      1.0  0.33786  0.57873  0.99017  1.0000
  C   C176      1.0  0.27873  0.48376  0.03037  1.0000
  H   H308      1.0  0.44972  0.61605  0.19566  1.0000
  C   C177      1.0  0.22012  0.56759  0.04991  1.0000
  H   H309      1.0  0.23034  0.56501  0.00378  1.0000
  H   H310      1.0  0.29671  0.48672  0.01503  1.0000
  H   H311      1.0  0.20165  0.54608  0.05067  1.0000
  H   H312      1.0  0.45676  0.61721  0.29655  1.0000
  H   H313      1.0  0.08117  0.46229  0.16293  1.0000
  C   C178      1.0  0.07569  0.45875  0.28159  1.0000
  H   H314      1.0  0.08558  0.50848  0.15887  1.0000
  C   C179      1.0  0.28850  0.53304  0.02251  1.0000
  C   C180      1.0  0.07491  0.37341  0.17126  1.0000
  C   C181      1.0  0.10022  0.46478  0.25929  1.0000
  C   C182      1.0  0.26565  0.50186  0.02090  1.0000
  H   H315      1.0  0.07783  0.47551  0.19923  1.0000
  C   C183      1.0  0.16415  0.47473  0.22949  1.0000
  H   H316      1.0  0.29333  0.59933  0.16790  1.0000
  H   H317      1.0  0.06825  0.35238  0.17990  1.0000
  C   C184      1.0  0.13797  0.44678  0.21920  1.0000
  H   H318      1.0  0.20605  0.49077  0.25142  1.0000
  H   H319      1.0  0.27597  0.56707  0.20883  1.0000
  C   C185      1.0  0.10420  0.50626  0.16711  1.0000
  H   H320      1.0  0.26307  0.54701  0.17451  1.0000
  H   H321      1.0  0.21644  0.63218  0.05068  1.0000
  C   C186      1.0  0.09574  0.42409  0.18597  1.0000
  H   H322      1.0  0.13267  0.43159  0.23768  1.0000
  H   H323      1.0  0.10515  0.39328  0.20736  1.0000
  H   H324      1.0  0.25748  0.62462  0.13215  1.0000
  H   H325      1.0  0.11631  0.52289  0.18401  1.0000
  H   H326      1.0  0.06910  0.38781  0.21420  1.0000
  C   C187      1.0  0.35652  0.61912  0.01066  1.0000
  H   H327      1.0  0.10988  0.42805  0.16578  1.0000
  C   C188      1.0  0.09018  0.44197  0.23466  1.0000
  C   C189      1.0  0.09316  0.47765  0.18093  1.0000
  H   H328      1.0  0.09195  0.37843  0.15386  1.0000
  C   C190      1.0  0.08665  0.39444  0.19716  1.0000
  H   H329      1.0  0.05571  0.37322  0.16079  1.0000
  N   N10       1.0  0.11082  0.44724  0.20879  1.0000
  H   H330      1.0  0.13151  0.49228  0.20798  1.0000
  H   H331      1.0  0.06823  0.43836  0.29244  1.0000
  N   N11       1.0  0.27195  0.63719  0.17785  1.0000
  H   H332      1.0  0.29588  0.53795  0.04634  1.0000
  C   C191      1.0  0.18775  0.47042  0.24430  1.0000
  H   H333      1.0  0.15781  0.48623  0.24555  1.0000
  H   H334      1.0  0.08362  0.47502  0.29943  1.0000
  H   H335      1.0  0.05704  0.45875  0.27003  1.0000
  S   S49       1.0  0.16225  0.62533  0.10622  1.0000
  H   H336      1.0  0.19027  0.32641  0.20966  1.0000
  H   H337      1.0  0.08592  0.42278  0.24663  1.0000
  C   C192      1.0  0.19753  0.45939  0.99600  1.0000
  H   H338      1.0  0.14689  0.43923  0.20073  1.0000
  N   N12       1.0  0.27876  0.55304  0.01160  1.0000
  H   H339      1.0  0.25890  0.58262  0.14914  1.0000
  H   H340      1.0  0.17411  0.48813  0.20966  1.0000
  H   H341      1.0  0.17908  0.45709  0.26442  1.0000
  C   C193      1.0  0.25934  0.60747  0.18807  1.0000
  H   H342      1.0  0.13348  0.47687  0.17389  1.0000
  H   H343      1.0  0.17233  0.58847  0.99936  1.0000
  H   H344      1.0  0.11836  0.46527  0.27233  1.0000
  H   H345      1.0  0.11875  0.50899  0.14772  1.0000
  H   H346      1.0  0.10714  0.48550  0.24974  1.0000
  C   C194      1.0  0.26959  0.58882  0.17157  1.0000
  C   C195      1.0  0.26125  0.56241  0.18925  1.0000
  S   S50       1.0  0.13131  0.33181  0.28249  1.0000
  H   H347      1.0  0.30285  0.59104  0.03774  1.0000
  C   C196      1.0  0.19128  0.60775  0.99111  1.0000
  H   H348      1.0  0.37901  0.62237  0.00857  1.0000
  H   H349      1.0  0.18998  0.33605  0.26856  1.0000
  H   H350      1.0  0.26283  0.60675  0.21267  1.0000
  H   H351      1.0  0.23528  0.59615  0.18498  1.0000
  H   H352      1.0  0.43856  0.63566  0.24349  1.0000
  H   H353      1.0  0.42747  0.62181  0.14842  1.0000
  S   S51       1.0  0.37871  0.63575  0.16812  1.0000
  H   H354      1.0  0.12068  0.32264  0.47898  1.0000
  H   H355      1.0  0.25753  0.49568  0.99761  1.0000
  H   H356      1.0  0.45099  0.60708  0.14217  1.0000
  H   H357      1.0  0.43882  0.59468  0.26462  1.0000
  C   C197      1.0  0.18695  0.32771  0.16182  1.0000
  C   C198      1.0  0.47772  0.63327  0.25330  1.0000
  H   H358      1.0  0.19875  0.64484  0.20516  1.0000
  H   H359      1.0  0.46373  0.64287  0.13338  1.0000
  C   C199      1.0  0.46253  0.63432  0.18125  1.0000
  H   H360      1.0  0.35231  0.62915  0.99125  1.0000
  C   C200      1.0  0.46023  0.60931  0.27467  1.0000
  C   C201      1.0  0.24953  0.64631  0.18376  1.0000
  C   C202      1.0  0.23737  0.64196  0.21642  1.0000
  C   C203      1.0  0.19074  0.31939  0.28164  1.0000
  H   H361      1.0  0.47226  0.59783  0.27893  1.0000
  H   H362      1.0  0.20803  0.32843  0.15702  1.0000
  C   C204      1.0  0.46199  0.65043  0.24772  1.0000
  Fe  Fe25      1.0  0.23987  0.51104  0.80703  1.0000
  S   S52       1.0  0.19857  0.49858  0.78113  1.0000
  S   S53       1.0  0.28219  0.54081  0.78398  1.0000
  Fe  Fe26      1.0  0.20758  0.47557  0.86092  1.0000
  S   S54       1.0  0.16426  0.46117  0.83915  1.0000
  S   S55       1.0  0.21143  0.45804  0.90586  1.0000
  Fe  Fe27      1.0  0.18398  0.45495  0.79646  1.0000
  S   S56       1.0  0.15295  0.41645  0.76815  1.0000
  Fe  Fe28      1.0  0.18218  0.50539  0.82527  1.0000
  S   S57       1.0  0.15492  0.52662  0.82913  1.0000
  S   S58       1.0  0.22674  0.46689  0.81915  1.0000
  S   S59       1.0  0.22416  0.52052  0.85041  1.0000
  H   H363      1.0  0.18560  0.46225  0.68472  1.0000
  C   C205      1.0  0.12945  0.36398  0.89546  1.0000
  H   H364      1.0  0.21567  0.62420  0.95059  1.0000
  C   C206      1.0  0.30987  0.56963  0.80339  1.0000
  C   C207      1.0  0.30728  0.57444  0.83392  1.0000
  C   C208      1.0  0.32996  0.59727  0.84880  1.0000
  C   C209      1.0  0.35514  0.61579  0.83320  1.0000
  C   C210      1.0  0.35761  0.61125  0.80258  1.0000
  C   C211      1.0  0.33518  0.58805  0.78784  1.0000
  H   H365      1.0  0.28807  0.56028  0.84619  1.0000
  H   H366      1.0  0.32806  0.60048  0.87257  1.0000
  H   H367      1.0  0.37724  0.62498  0.79057  1.0000
  H   H368      1.0  0.33747  0.58428  0.76431  1.0000
  C   C212      1.0  0.17295  0.56122  0.81715  1.0000
  C   C213      1.0  0.20233  0.57399  0.80924  1.0000
  C   C214      1.0  0.21694  0.60209  0.80152  1.0000
  C   C215      1.0  0.20254  0.61775  0.80221  1.0000
  C   C216      1.0  0.17308  0.60498  0.80984  1.0000
  C   C217      1.0  0.15822  0.57664  0.81700  1.0000
  H   H369      1.0  0.21383  0.56224  0.80915  1.0000
  H   H370      1.0  0.23960  0.61182  0.79546  1.0000
  H   H371      1.0  0.16170  0.61683  0.80974  1.0000
  H   H372      1.0  0.13540  0.56673  0.82277  1.0000
  C   C218      1.0  0.20121  0.46575  0.94133  1.0000
  C   C219      1.0  0.28886  0.61946  0.72646  1.0000
  C   C220      1.0  0.18870  0.48294  0.94414  1.0000
  H   H373      1.0  0.20355  0.40515  0.81273  1.0000
  H   H374      1.0  0.18515  0.49201  0.92425  1.0000
  C   C221      1.0  0.15164  0.34604  0.70907  1.0000
  C   C222      1.0  0.12619  0.34735  0.71498  1.0000
  C   C223      1.0  0.12707  0.36880  0.73337  1.0000
  C   C224      1.0  0.15329  0.38922  0.74630  1.0000
  C   C225      1.0  0.17865  0.38763  0.74087  1.0000
  C   C226      1.0  0.17778  0.36620  0.72241  1.0000
  H   H375      1.0  0.10801  0.35384  0.90705  1.0000
  H   H376      1.0  0.10726  0.36971  0.73742  1.0000
  H   H377      1.0  0.19900  0.40310  0.75056  1.0000
  C   C227      1.0  0.15084  0.38759  0.91665  1.0000
  C   C228      1.0  0.14976  0.37699  0.94850  1.0000
  H   H378      1.0  0.15276  0.39602  0.82673  1.0000
  H   H379      1.0  0.14561  0.40473  0.91814  1.0000
  H   H380      1.0  0.17353  0.39617  0.90853  1.0000
  H   H381      1.0  0.21635  0.41493  0.85119  1.0000
  C   C229      1.0  0.21476  0.63396  0.88684  1.0000
  H   H382      1.0  0.26150  0.56235  0.97199  1.0000
  H   H383      1.0  0.15572  0.36028  0.94838  1.0000
  N   N13       1.0  0.12622  0.37266  0.86427  1.0000
  C   C230      1.0  0.17519  0.37668  0.84679  1.0000
  H   H384      1.0  0.08344  0.37570  0.82557  1.0000
  H   H385      1.0  0.29700  0.53218  0.96152  1.0000
  H   H386      1.0  0.35125  0.63959  0.73003  1.0000
  H   H387      1.0  0.21876  0.38697  0.83262  1.0000
  H   H388      1.0  0.31513  0.61970  0.76429  1.0000
  H   H389      1.0  0.09964  0.43267  0.85322  1.0000
  H   H390      1.0  0.07758  0.31781  0.87717  1.0000
  H   H391      1.0  0.11928  0.35338  0.61546  1.0000
  C   C231      1.0  0.19970  0.45268  0.68781  1.0000
  H   H392      1.0  0.26559  0.58129  0.70053  1.0000
  C   C232      1.0  0.07766  0.32743  0.85536  1.0000
  N   N14       1.0  0.16542  0.59572  0.90722  1.0000
  C   C233      1.0  0.19379  0.60268  0.89187  1.0000
  C   C234      1.0  0.14525  0.56485  0.90468  1.0000
  C   C235      1.0  0.15165  0.60990  0.89017  1.0000
  H   H393      1.0  0.11974  0.60552  0.92523  1.0000
  C   C236      1.0  0.10934  0.34705  0.84513  1.0000
  H   H394      1.0  0.06506  0.40130  0.85677  1.0000
  C   C237      1.0  0.12079  0.60343  0.90046  1.0000
  C   C238      1.0  0.15542  0.54588  0.91969  1.0000
  C   C239      1.0  0.13362  0.51530  0.91419  1.0000
  C   C240      1.0  0.10324  0.37320  0.64663  1.0000
  H   H395      1.0  0.20707  0.64118  0.86743  1.0000
  H   H396      1.0  0.18958  0.59253  0.86938  1.0000
  H   H397      1.0  0.20575  0.59391  0.90391  1.0000
  H   H398      1.0  0.12385  0.55913  0.91509  1.0000
  H   H399      1.0  0.14077  0.55857  0.88049  1.0000
  H   H400      1.0  0.15029  0.60473  0.86580  1.0000
  H   H401      1.0  0.16543  0.63278  0.89175  1.0000
  H   H402      1.0  0.27184  0.62526  0.72180  1.0000
  H   H403      1.0  0.21546  0.44091  0.96550  1.0000
  H   H404      1.0  0.05642  0.35341  0.65212  1.0000
  H   H405      1.0  0.12667  0.64486  0.89323  1.0000
  S   S60       1.0  0.15245  0.32056  0.68442  1.0000
  C   C241      1.0  0.27393  0.53743  0.92494  1.0000
  C   C242      1.0  0.16926  0.60531  0.93970  1.0000
  H   H406      1.0  0.10448  0.58208  0.89356  1.0000
  H   H407      1.0  0.17667  0.54956  0.91068  1.0000
  C   C243      1.0  0.28881  0.54658  0.95562  1.0000
  H   H408      1.0  0.11201  0.51009  0.92365  1.0000
  H   H409      1.0  0.13131  0.51036  0.88974  1.0000
  H   H410      1.0  0.14136  0.50215  0.92524  1.0000
  H   H411      1.0  0.12531  0.41013  0.87710  1.0000
  H   H412      1.0  0.19763  0.36544  0.71814  1.0000
  H   H413      1.0  0.15196  0.34181  0.60301  1.0000
  C   C244      1.0  0.26759  0.54679  0.97968  1.0000
  H   H414      1.0  0.07142  0.33059  0.65732  1.0000
  C   C245      1.0  0.11191  0.62315  0.88591  1.0000
  N   N15       1.0  0.15696  0.39095  0.63141  1.0000
  C   C246      1.0  0.12718  0.36634  0.63607  1.0000
  C   C247      1.0  0.17887  0.38087  0.62833  1.0000
  C   C248      1.0  0.16467  0.40886  0.65950  1.0000
  C   C249      1.0  0.15827  0.40821  0.60464  1.0000
  C   C250      1.0  0.13800  0.39274  0.57758  1.0000
  H   H415      1.0  0.13631  0.34784  0.89442  1.0000
  C   C251      1.0  0.19625  0.43323  0.66148  1.0000
  C   C252      1.0  0.17400  0.36007  0.60244  1.0000
  H   H416      1.0  0.21167  0.42528  0.66546  1.0000
  C   C253      1.0  0.14550  0.41154  0.55025  1.0000
  H   H417      1.0  0.16574  0.35916  0.83045  1.0000
  H   H418      1.0  0.25563  0.51589  0.92595  1.0000
  H   H419      1.0  0.11757  0.40647  0.82092  1.0000
  H   H420      1.0  0.13022  0.40014  0.53159  1.0000
  H   H421      1.0  0.20105  0.39850  0.62459  1.0000
  C   C254      1.0  0.18047  0.48814  0.97272  1.0000
  H   H422      1.0  0.17819  0.36893  0.86863  1.0000
  H   H423      1.0  0.15013  0.41811  0.66208  1.0000
  H   H424      1.0  0.15269  0.42453  0.61146  1.0000
  H   H425      1.0  0.18097  0.41981  0.59605  1.0000
  H   H426      1.0  0.11503  0.38595  0.58357  1.0000
  H   H427      1.0  0.13921  0.37406  0.57057  1.0000
  H   H428      1.0  0.16100  0.39603  0.67983  1.0000
  H   H429      1.0  0.16780  0.41040  0.86207  1.0000
  H   H430      1.0  0.20253  0.44550  0.64051  1.0000
  H   H431      1.0  0.12825  0.35224  0.65304  1.0000
  H   H432      1.0  0.12025  0.33415  0.84489  1.0000
  H   H433      1.0  0.17762  0.37047  0.58042  1.0000
  H   H434      1.0  0.19191  0.33456  0.58550  1.0000
  H   H435      1.0  0.24702  0.52664  0.97842  1.0000
  H   H436      1.0  0.18003  0.37117  0.64979  1.0000
  H   H437      1.0  0.26555  0.55135  0.91748  1.0000
  H   H438      1.0  0.14362  0.43025  0.55584  1.0000
  C   C255      1.0  0.11071  0.38952  0.86676  1.0000
  C   C256      1.0  0.20529  0.39730  0.83511  1.0000
  C   C257      1.0  0.15549  0.39027  0.84985  1.0000
  H   H439      1.0  0.28971  0.53800  0.90788  1.0000
  H   H440      1.0  0.10585  0.33196  0.70519  1.0000
  C   C258      1.0  0.08452  0.41258  0.84230  1.0000
  H   H441      1.0  0.25702  0.57762  0.74012  1.0000
  H   H442      1.0  0.19394  0.44125  0.70939  1.0000
  C   C259      1.0  0.20570  0.45414  0.96742  1.0000
  H   H443      1.0  0.29121  0.58108  0.72714  1.0000
  H   H444      1.0  0.30595  0.62875  0.70899  1.0000
  H   H445      1.0  0.19279  0.33803  0.62590  1.0000
  C   C260      1.0  0.27484  0.58796  0.72344  1.0000
  C   C261      1.0  0.09948  0.39515  0.83682  1.0000
  H   H446      1.0  0.11262  0.62181  0.86098  1.0000
  H   H447      1.0  0.28251  0.61913  0.77396  1.0000
  H   H448      1.0  0.15685  0.54912  0.94441  1.0000
  H   H449      1.0  0.17260  0.62683  0.94148  1.0000
  C   C262      1.0  0.19568  0.34923  0.60444  1.0000
  H   H450      1.0  0.10650  0.37951  0.67076  1.0000
  C   C263      1.0  0.07297  0.34803  0.64374  1.0000
  H   H451      1.0  0.22264  0.46950  0.68928  1.0000
  H   H452      1.0  0.16794  0.41795  0.54241  1.0000
  H   H453      1.0  0.30734  0.56776  0.95283  1.0000
  H   H454      1.0  0.10387  0.39041  0.63345  1.0000
  H   H455      1.0  0.21835  0.36653  0.60304  1.0000
  C   C264      1.0  0.30139  0.62910  0.75851  1.0000
  H   H456      1.0  0.12773  0.36910  0.95833  1.0000
  H   H457      1.0  0.19737  0.58732  0.95299  1.0000
  H   H458      1.0  0.04515  0.32244  0.56325  1.0000
  H   H459      1.0  0.41765  0.61228  0.92960  1.0000
  H   H460      1.0  0.14885  0.59246  0.95249  1.0000
  H   H461      1.0  0.41698  0.61686  0.88954  1.0000
  H   H462      1.0  0.09188  0.37965  0.88240  1.0000
  H   H463      1.0  0.17050  0.50119  0.97464  1.0000
  H   H464      1.0  0.06805  0.34130  0.61986  1.0000
  H   H465      1.0  0.08944  0.61757  0.89279  1.0000
  H   H466      1.0  0.10929  0.35276  0.82114  1.0000
  H   H467      1.0  0.16548  0.39423  0.96302  1.0000
  S   S61       1.0  0.38379  0.64300  0.85340  1.0000
  C   C265      1.0  0.42311  0.62784  0.91163  1.0000
  C   C266      1.0  0.19496  0.60584  0.95725  1.0000
  H   H468      1.0  0.25482  0.63386  0.89873  1.0000
  H   H469      1.0  0.21575  0.64659  0.90684  1.0000
  H   H470      1.0  0.07753  0.41698  0.82046  1.0000
  H   H471      1.0  0.29850  0.62957  0.82139  1.0000
  H   H472      1.0  0.06497  0.33846  0.85813  1.0000
  H   H473      1.0  0.24517  0.62731  0.85925  1.0000
  C   C267      1.0  0.24546  0.63947  0.87945  1.0000
  H   H474      1.0  0.46747  0.63709  0.90754  1.0000
  H   H475      1.0  0.41009  0.63859  0.91490  1.0000
  C   C268      1.0  0.45559  0.64874  0.91183  1.0000
  H   H476      1.0  0.46019  0.64844  0.95974  1.0000
  Fe  Fe29      1.0  0.10181  0.87420  0.33265  1.0000
  S   S62       1.0  0.13967  0.86616  0.33045  1.0000
  S   S63       1.0  0.10329  0.91626  0.33687  1.0000
  Fe  Fe30      1.0  0.05916  0.81259  0.34718  1.0000
  S   S64       1.0  0.09482  0.80094  0.34660  1.0000
  S   S65       1.0  0.01433  0.78180  0.36509  1.0000
  Fe  Fe31      1.0  0.12109  0.84091  0.37224  1.0000
  S   S66       1.0  0.14962  0.85115  0.41381  1.0000
  Fe  Fe32      1.0  0.11004  0.82682  0.30461  1.0000
  S   S67       1.0  0.12556  0.81699  0.25967  1.0000
  S   S68       1.0  0.08475  0.85054  0.37556  1.0000
  S   S69       1.0  0.07286  0.83668  0.30415  1.0000
  Fe  Fe33      1.0  0.16995  0.71506  0.15744  1.0000
  S   S70       1.0  0.21368  0.74793  0.14102  1.0000
  S   S71       1.0  0.14250  0.72104  0.19474  1.0000
  C   C269      1.0  0.46701  0.69470  0.23035  1.0000
  S   S72       1.0  0.22189  0.69897  0.10772  1.0000
  Fe  Fe34      1.0  0.22952  0.71826  0.15342  1.0000
  S   S73       1.0  0.26852  0.72817  0.18253  1.0000
  Fe  Fe35      1.0  0.20158  0.72505  0.09616  1.0000
  S   S74       1.0  0.21279  0.74665  0.05064  1.0000
  S   S75       1.0  0.18662  0.68608  0.17151  1.0000
  S   S76       1.0  0.15653  0.69422  0.11144  1.0000
  Fe  Fe36      1.0  0.40924  0.73006  0.12311  1.0000
  S   S77       1.0  0.38550  0.68772  0.10240  1.0000
  S   S78       1.0  0.38666  0.75556  0.11733  1.0000
  C   C270      1.0  0.20037  0.92430  0.44109  1.0000
  N   N16       1.0  0.01567  0.82949  0.47436  1.0000
  Fe  Fe37      1.0  0.42773  0.69976  0.07888  1.0000
  S   S79       1.0  0.42112  0.68490  0.03008  1.0000
  S   S80       1.0  0.45114  0.74299  0.09788  1.0000
  S   S81       1.0  0.42353  0.71610  0.16404  1.0000
  H   H477      1.0  0.02756  0.73699  0.34671  1.0000
  C   C271      1.0  0.19096  0.70028  0.01281  1.0000
  H   H478      1.0  0.47793  0.70547  0.25159  1.0000
  C   C272      1.0  0.43102  0.70712  0.99875  1.0000
  H   H479      1.0  0.18219  0.74927  0.24876  1.0000
  C   C273      1.0  0.30069  0.73422  0.16393  1.0000
  C   C274      1.0  0.30422  0.73959  0.13309  1.0000
  C   C275      1.0  0.33056  0.74557  0.11902  1.0000
  C   C276      1.0  0.35313  0.74535  0.13533  1.0000
  C   C277      1.0  0.34941  0.73941  0.16605  1.0000
  C   C278      1.0  0.32336  0.73420  0.18039  1.0000
  H   H480      1.0  0.28703  0.74003  0.12036  1.0000
  H   H481      1.0  0.33383  0.75077  0.09554  1.0000
  H   H482      1.0  0.36713  0.74012  0.17892  1.0000
  H   H483      1.0  0.32091  0.73045  0.20433  1.0000
  C   C279      1.0  0.20484  0.72919  0.01517  1.0000
  H   H484      1.0  0.18396  0.68790  0.03297  1.0000
  H   H485      1.0  0.22835  0.96510  0.42401  1.0000
  C   C280      1.0  0.13050  0.79012  0.24243  1.0000
  C   C281      1.0  0.14312  0.79450  0.21355  1.0000
  C   C282      1.0  0.14733  0.77391  0.19874  1.0000
  C   C283      1.0  0.13845  0.74830  0.21237  1.0000
  C   C284      1.0  0.12560  0.74385  0.24115  1.0000
  C   C285      1.0  0.12204  0.76467  0.25626  1.0000
  H   H486      1.0  0.14973  0.81403  0.20251  1.0000
  H   H487      1.0  0.15696  0.77770  0.17654  1.0000
  H   H488      1.0  0.11860  0.72416  0.25199  1.0000
  H   H489      1.0  0.11261  0.76095  0.27854  1.0000
  H   H490      1.0  0.19476  0.68933  0.24146  1.0000
  H   H491      1.0  0.08676  0.74483  0.18348  1.0000
  C   C286      1.0  0.12914  0.94970  0.32369  1.0000
  C   C287      1.0  0.14701  0.95332  0.29883  1.0000
  H   H492      1.0  0.46792  0.67559  0.17553  1.0000
  H   H493      1.0  0.14573  0.93541  0.28733  1.0000
  C   C288      1.0  0.28919  0.66823  0.13056  1.0000
  C   C289      1.0  0.10549  0.81320  0.44980  1.0000
  C   C290      1.0  0.13321  0.83636  0.44862  1.0000
  C   C291      1.0  0.43097  0.71029  0.24692  1.0000
  H   H494      1.0  0.09375  0.80406  0.42915  1.0000
  H   H495      1.0  0.45992  0.74444  0.02286  1.0000
  C   C292      1.0  0.03088  0.79877  0.22144  1.0000
  H   H496      1.0  0.00826  0.78587  0.21328  1.0000
  H   H497      1.0  0.16762  0.70008  0.24155  1.0000
  C   C293      1.0  0.31782  0.70177  0.01536  1.0000
  H   H498      1.0  0.02061  0.71017  0.31941  1.0000
  N   N17       1.0  0.22438  0.78555  0.24518  1.0000
  C   C294      1.0  0.34981  0.70959  0.01920  1.0000
  H   H499      1.0  0.33323  0.65829  0.16565  1.0000
  H   H500      1.0  0.20778  0.91322  0.42545  1.0000
  H   H501      1.0  0.10862  0.88847  0.43130  1.0000
  C   C295      1.0  0.29328  0.79198  0.05443  1.0000
  H   H502      1.0  0.06990  0.76963  0.21703  1.0000
  H   H503      1.0  0.30418  0.67811  0.19303  1.0000
  C   C296      1.0  0.01753  0.78687  0.45140  1.0000
  C   C297      1.0  0.20268  0.93887  0.37372  1.0000
  H   H504      1.0  0.31899  0.73187  0.04657  1.0000
  C   C298      1.0  0.15723  0.92727  0.39993  1.0000
  H   H505      1.0  0.43577  0.65140  0.19430  1.0000
  H   H506      1.0  0.04264  0.77198  0.30730  1.0000
  C   C299      1.0  0.19361  0.93992  0.34079  1.0000
  H   H507      1.0  0.24139  0.94373  0.46578  1.0000
  H   H508      1.0  0.03536  0.72374  0.26706  1.0000
  H   H509      1.0  0.06514  0.75755  0.26991  1.0000
  C   C300      1.0  0.20896  0.92994  0.31868  1.0000
  C   C301      1.0  0.10877  0.90829  0.42693  1.0000
  H   H510      1.0  0.19723  0.91700  0.37776  1.0000
  H   H511      1.0  0.02591  0.78635  0.26768  1.0000
  C   C302      1.0  0.03772  0.78455  0.24772  1.0000
  H   H512      1.0  0.15435  0.90603  0.40216  1.0000
  H   H513      1.0  0.14592  0.92647  0.37871  1.0000
  C   C303      1.0  0.31312  0.72679  0.02247  1.0000
  H   H514      1.0  0.44088  0.71654  0.26965  1.0000
  C   C304      1.0  0.04814  0.84865  0.47444  1.0000
  H   H515      1.0  0.42548  0.77355  0.99893  1.0000
  H   H516      1.0  0.16989  0.92655  0.33783  1.0000
  H   H517      1.0  0.35264  0.69121  0.01472  1.0000
  H   H518      1.0  0.09688  0.91220  0.44537  1.0000
  H   H519      1.0  0.23335  0.73706  0.25078  1.0000
  H   H520      1.0  0.20117  0.92992  0.29549  1.0000
  C   C305      1.0  0.03008  0.74990  0.30034  1.0000
  H   H521      1.0  0.14992  0.93381  0.44782  1.0000
  C   C306      1.0  0.20452  0.95157  0.42701  1.0000
  H   H522      1.0  0.11706  0.97083  0.35712  1.0000
  C   C307      1.0  0.00826  0.79959  0.47749  1.0000
  H   H523      1.0  0.41258  0.79206  0.02231  1.0000
  H   H524      1.0  0.03048  0.82752  0.41280  1.0000
  H   H525      1.0  0.44153  0.72838  0.23172  1.0000
  H   H526      1.0  0.17880  0.98266  0.26819  1.0000
  H   H527      1.0  0.09727  0.90650  0.40544  1.0000
  C   C308      1.0  0.04639  0.75400  0.21468  1.0000
  C   C309      1.0  0.19802  0.82165  0.30450  1.0000
  H   H528      1.0  0.22567  0.82486  0.25393  1.0000
  H   H529      1.0  0.26517  0.81930  0.26181  1.0000
  C   C310      1.0  0.45131  0.73531  0.00104  1.0000
  H   H530      1.0  0.25765  0.83123  0.20968  1.0000
  H   H531      1.0  0.22575  0.80311  0.30532  1.0000
  H   H532      1.0  0.30004  0.78533  0.27251  1.0000
  H   H533      1.0  0.10690  0.86694  0.48132  1.0000
  H   H534      1.0  0.17818  0.81907  0.29292  1.0000
  H   H535      1.0  0.19347  0.81899  0.32903  1.0000
  H   H536      1.0  0.21607  0.84296  0.30066  1.0000
  H   H537      1.0  0.18764  0.77944  0.29865  1.0000
  C   C311      1.0  0.16575  0.98018  0.28800  1.0000
  H   H538      1.0  0.25073  0.83925  0.15659  1.0000
  C   C312      1.0  0.00257  0.83888  0.38922  1.0000
  H   H539      1.0  0.99347  0.85321  0.39138  1.0000
  C   C313      1.0  0.29084  0.76326  0.05341  1.0000
  H   H540      1.0  0.02068  0.75629  0.47971  1.0000
  C   C314      1.0  0.09332  0.80128  0.47768  1.0000
  H   H541      1.0  0.20418  0.90855  0.32402  1.0000
  C   C315      1.0  0.20611  0.80009  0.29303  1.0000
  H   H542      1.0  0.44474  0.81106  0.99972  1.0000
  C   C316      1.0  0.18918  0.70485  0.25069  1.0000
  H   H543      1.0  0.27150  0.70567  0.06137  1.0000
  C   C317      1.0  0.22338  0.78733  0.21136  1.0000
  H   H544      1.0  0.23420  0.77682  0.20006  1.0000
  C   C318      1.0  0.26121  0.70347  0.03893  1.0000
  H   H545      1.0  0.32016  0.79752  0.23799  1.0000
  C   C319      1.0  0.27691  0.79299  0.23654  1.0000
  H   H546      1.0  0.22044  0.80476  0.15299  1.0000
  H   H547      1.0  0.31149  0.69408  0.99199  1.0000
  H   H548      1.0  0.21341  0.73436  0.21665  1.0000
  C   C320      1.0  0.04470  0.72600  0.20620  1.0000
  C   C321      1.0  0.20520  0.75590  0.25459  1.0000
  H   H549      1.0  0.26468  0.75049  0.01309  1.0000
  H   H550      1.0  0.20695  0.65851  0.05928  1.0000
  H   H551      1.0  0.99723  0.79323  0.30649  1.0000
  H   H552      1.0  0.31540  0.82145  0.26220  1.0000
  C   C322      1.0  0.21784  0.93023  0.47019  1.0000
  H   H553      1.0  0.06134  0.79738  0.25295  1.0000
  H   H554      1.0  0.05741  0.73786  0.32579  1.0000
  N   N18       1.0  0.18898  0.94847  0.39763  1.0000
  S   S82       1.0  0.44391  0.68298  0.11568  1.0000
  C   C323      1.0  0.03453  0.82691  0.23118  1.0000
  H   H555      1.0  0.28095  0.65311  0.08411  1.0000
  C   C324      1.0  0.21243  0.73391  0.24156  1.0000
  H   H556      1.0  0.23797  0.65894  0.07726  1.0000
  H   H557      1.0  0.31222  0.80690  0.04105  1.0000
  H   H558      1.0  0.22146  0.82548  0.20288  1.0000
  H   H559      1.0  0.24364  0.70894  0.04271  1.0000
  H   H560      1.0  0.30813  0.68407  0.14325  1.0000
  H   H561      1.0  0.27189  0.67423  0.13051  1.0000
  C   C325      1.0  0.21145  0.80245  0.25856  1.0000
  C   C326      1.0  0.23659  0.81713  0.19871  1.0000
  C   C327      1.0  0.30480  0.79980  0.25350  1.0000
  H   H562      1.0  0.20575  0.75396  0.27941  1.0000
  C   C328      1.0  0.25496  0.79663  0.25709  1.0000
  H   H563      1.0  0.28309  0.80715  0.21707  1.0000
  Fe  Fe38      1.0  0.40337  0.67454  0.14046  1.0000
  C   C329      1.0  0.24142  0.81768  0.16477  1.0000
  Fe  Fe39      1.0  0.17757  0.66874  0.12460  1.0000
  C   C330      1.0  0.01024  0.75715  0.45840  1.0000
  H   H564      1.0  0.25442  0.78721  0.27927  1.0000
  H   H565      1.0  0.00683  0.74436  0.29986  1.0000
  C   C331      1.0  0.00237  0.83376  0.44613  1.0000
  H   H566      1.0  0.27296  0.74979  0.06881  1.0000
  H   H567      1.0  0.40754  0.70404  0.24871  1.0000
  H   H568      1.0  0.00526  0.78570  0.43074  1.0000
  C   C332      1.0  0.02080  0.84106  0.41680  1.0000
  H   H569      1.0  0.31151  0.76563  0.06221  1.0000
  H   H570      1.0  0.13874  0.95134  0.42146  1.0000
  H   H571      1.0  0.19020  0.79666  0.24768  1.0000
  H   H572      1.0  0.25683  0.80996  0.15913  1.0000
  C   C333      1.0  0.35174  0.67581  0.20864  1.0000
  H   H573      1.0  0.20053  0.77570  0.20327  1.0000
  H   H574      1.0  0.27322  0.79119  0.04552  1.0000
  H   H575      1.0  0.26794  0.77173  0.22737  1.0000
  H   H576      1.0  0.03897  0.86271  0.41814  1.0000
  N   N19       1.0  0.28324  0.72322  0.01664  1.0000
  H   H577      1.0  0.02936  0.83652  0.21204  1.0000
  H   H578      1.0  0.37164  0.67427  0.20440  1.0000
  C   C334      1.0  0.03423  0.73262  0.32445  1.0000
  H   H579      1.0  0.98443  0.78612  0.47941  1.0000
  H   H580      1.0  0.07231  0.78289  0.47831  1.0000
  C   C335      1.0  0.06383  0.72915  0.17890  1.0000
  C   C336      1.0  0.98273  0.70667  0.24775  1.0000
  H   H581      1.0  0.05732  0.84102  0.23824  1.0000
  H   H582      1.0  0.23283  0.94397  0.31937  1.0000
  H   H583      1.0  0.42273  0.67988  0.21276  1.0000
  C   C337      1.0  0.29872  0.65613  0.19585  1.0000
  H   H584      1.0  0.05887  0.84362  0.45569  1.0000
  H   H585      1.0  0.06310  0.70910  0.17378  1.0000
  H   H586      1.0  0.16993  0.86540  0.47492  1.0000
  C   C338      1.0  0.04094  0.74578  0.26917  1.0000
  H   H587      1.0  0.32993  0.74496  0.01005  1.0000
  H   H588      1.0  0.23008  0.66884  0.01084  1.0000
  N   N20       1.0  0.03006  0.75468  0.24247  1.0000
  H   H589      1.0  0.05611  0.73551  0.15883  1.0000
  H   H590      1.0  0.04117  0.79901  0.44693  1.0000
  H   H591      1.0  0.02220  0.71061  0.19982  1.0000
  H   H592      1.0  0.05236  0.71793  0.22474  1.0000
  H   H593      1.0  0.30537  0.68484  0.03136  1.0000
  H   H594      1.0  0.19928  0.96123  0.33413  1.0000
  C   C339      1.0  0.98038  0.76901  0.34650  1.0000
  H   H595      1.0  0.05267  0.87027  0.47038  1.0000
  C   C340      1.0  0.43440  0.68610  0.23454  1.0000
  H   H596      1.0  0.36377  0.72608  0.00322  1.0000
  H   H597      1.0  0.29624  0.79954  0.07810  1.0000
  H   H598      1.0  0.17725  0.91016  0.44670  1.0000
  H   H599      1.0  0.01830  0.74902  0.43984  1.0000
  H   H600      1.0  0.22682  0.95096  0.37495  1.0000
  Fe  Fe40      1.0  0.46383  0.72548  0.13754  1.0000
  C   C341      1.0  0.14837  0.84771  0.47563  1.0000
  H   H601      1.0  0.35726  0.71693  0.04258  1.0000
  H   H602      1.0  0.18773  0.70292  0.27556  1.0000
  H   H603      1.0  0.30623  0.68965  0.08855  1.0000
  C   C342      1.0  0.45955  0.65926  0.19314  1.0000
  H   H604      1.0  0.04606  0.80259  0.20240  1.0000
  H   H605      1.0  0.25863  0.66875  0.17889  1.0000
  C   C343      1.0  0.22551  0.65452  0.05597  1.0000
  H   H606      1.0  0.19807  0.96248  0.44404  1.0000
  H   H607      1.0  0.03846  0.76004  0.19451  1.0000
  C   C344      1.0  0.24469  0.67218  0.03022  1.0000
  C   C345      1.0  0.13092  0.97334  0.33804  1.0000
  H   H608      1.0  0.01963  0.82457  0.25009  1.0000
  H   H609      1.0  0.98456  0.81732  0.38621  1.0000
  H   H610      1.0  0.22955  0.67716  0.21703  1.0000
  C   C346      1.0  0.28511  0.75127  0.02085  1.0000
  C   C347      1.0  0.42293  0.79234  0.00037  1.0000
  H   H611      1.0  0.30273  0.76711  0.00675  1.0000
  H   H612      1.0  0.35647  0.69707  0.20278  1.0000
  H   H613      1.0  0.17763  0.97384  0.36992  1.0000
  C   C348      1.0  0.13994  0.93215  0.42548  1.0000
  H   H614      1.0  0.34655  0.67236  0.23299  1.0000
  C   C349      1.0  0.29901  0.66881  0.09804  1.0000
  H   H615      1.0  0.25951  0.66418  0.02379  1.0000
  H   H616      1.0  0.98635  0.74361  0.46025  1.0000
  C   C350      1.0  0.21741  0.65447  0.22085  1.0000
  C   C351      1.0  0.99750  0.73753  0.23815  1.0000
  H   H617      1.0  0.01643  0.84445  0.36875  1.0000
  H   H618      1.0  0.46761  0.66953  0.00416  1.0000
  H   H619      1.0  0.99805  0.85147  0.44932  1.0000
  C   C352      1.0  0.32657  0.65427  0.18959  1.0000
  H   H620      1.0  0.47577  0.71070  0.21247  1.0000
  H   H621      1.0  0.31764  0.66466  0.09712  1.0000
  C   C353      1.0  0.19143  0.97602  0.38977  1.0000
  H   H622      1.0  0.98084  0.81522  0.44157  1.0000
  N   N21       1.0  0.47382  0.67168  0.22297  1.0000
  H   H623      1.0  0.98329  0.70498  0.27254  1.0000
  H   H624      1.0  0.99345  0.69552  0.23790  1.0000
  H   H625      1.0  0.42346  0.66862  0.25036  1.0000
  H   H626      1.0  0.22450  0.76725  0.99021  1.0000
  H   H627      1.0  0.99175  0.73810  0.21419  1.0000
  H   H628      1.0  0.98598  0.74673  0.25109  1.0000
  C   C354      1.0  0.21372  0.74489  0.98865  1.0000
  H   H629      1.0  0.46253  0.66056  0.26973  1.0000
  H   H630      1.0  0.18261  0.98350  0.40823  1.0000
  H   H631      1.0  0.29448  0.65221  0.22030  1.0000
  H   H632      1.0  0.21474  0.91048  0.47972  1.0000
  H   H633      1.0  0.20887  0.65079  0.24421  1.0000
  H   H634      1.0  0.25500  0.65204  0.23322  1.0000
  Fe  Fe41      1.0  0.06715  0.82738  0.63500  1.0000
  S   S83       1.0  0.07743  0.79320  0.62440  1.0000
  S   S84       1.0  0.02099  0.82118  0.64101  1.0000
  Fe  Fe42      1.0  0.12970  0.87342  0.62191  1.0000
  S   S85       1.0  0.14328  0.84159  0.60970  1.0000
  S   S86       1.0  0.16681  0.91799  0.61527  1.0000
  Fe  Fe43      1.0  0.10133  0.81931  0.58451  1.0000
  S   S87       1.0  0.09130  0.79726  0.53906  1.0000
  Fe  Fe44      1.0  0.11903  0.81810  0.65108  1.0000
  S   S88       1.0  0.14575  0.80122  0.67644  1.0000
  S   S89       1.0  0.08918  0.85225  0.59366  1.0000
  S   S90       1.0  0.10727  0.85118  0.66459  1.0000
  Fe  Fe45      1.0  0.18836  0.72499  0.81476  1.0000
  S   S91       1.0  0.21318  0.74655  0.85732  1.0000
  S   S92       1.0  0.15668  0.73757  0.79266  1.0000
  Fe  Fe46      1.0  0.21304  0.68470  0.81515  1.0000
  S   S93       1.0  0.23962  0.70351  0.85660  1.0000
  Fe  Fe47      1.0  0.20036  0.70417  0.87536  1.0000
  S   S94       1.0  0.18741  0.68547  0.92242  1.0000
  Fe  Fe48      1.0  0.25059  0.74384  0.83582  1.0000
  S   S95       1.0  0.29678  0.77884  0.83737  1.0000
  S   S96       1.0  0.17248  0.68227  0.83476  1.0000
  S   S97       1.0  0.22708  0.72549  0.79245  1.0000
  H   H635      1.0  0.40421  0.67382  0.96833  1.0000
  C   C355      1.0  0.98051  0.76090  0.56061  1.0000
  S   S98       1.0  0.40589  0.71748  0.85453  1.0000
  Fe  Fe49      1.0  0.42087  0.73854  0.81045  1.0000
  S   S99       1.0  0.39820  0.75873  0.78689  1.0000
  Fe  Fe50      1.0  0.45279  0.73963  0.86756  1.0000
  S   S100      1.0  0.46189  0.70643  0.85018  1.0000
  S   S101      1.0  0.42696  0.70460  0.78880  1.0000
  H   H636      1.0  0.01284  0.85989  0.50342  1.0000
  C   C356      1.0  0.45150  0.73953  0.94630  1.0000
  H   H637      1.0  0.25958  0.66179  0.87459  1.0000
  C   C357      1.0  0.43031  0.71165  0.94414  1.0000
  C   C358      1.0  0.24744  0.82084  0.77495  1.0000
  H   H638      1.0  0.29260  0.71580  0.73322  1.0000
  C   C359      1.0  0.37018  0.76367  0.80270  1.0000
  C   C360      1.0  0.35224  0.74731  0.82607  1.0000
  C   C361      1.0  0.32866  0.75080  0.83605  1.0000
  C   C362      1.0  0.32381  0.77145  0.82349  1.0000
  C   C363      1.0  0.34241  0.78826  0.80093  1.0000
  C   C364      1.0  0.36500  0.78400  0.79019  1.0000
  H   H639      1.0  0.35612  0.73158  0.83577  1.0000
  H   H640      1.0  0.31453  0.73788  0.85371  1.0000
  H   H641      1.0  0.33909  0.80442  0.79136  1.0000
  H   H642      1.0  0.37870  0.79668  0.77211  1.0000
  C   C365      1.0  0.19452  0.70300  0.95774  1.0000
  C   C366      1.0  0.17577  0.79055  0.85919  1.0000
  H   H643      1.0  0.35699  0.69610  0.74908  1.0000
  H   H644      1.0  0.24794  0.87819  0.83954  1.0000
  C   C367      1.0  0.20876  0.73191  0.96010  1.0000
  C   C368      1.0  0.32968  0.66547  0.79548  1.0000
  H   H645      1.0  0.21559  0.74426  0.93994  1.0000
  C   C369      1.0  0.14792  0.78296  0.70874  1.0000
  C   C370      1.0  0.17099  0.77691  0.71082  1.0000
  C   C371      1.0  0.17395  0.76289  0.73597  1.0000
  C   C372      1.0  0.15383  0.75465  0.75964  1.0000
  C   C373      1.0  0.13066  0.76053  0.75742  1.0000
  C   C374      1.0  0.12771  0.77454  0.73229  1.0000
  H   H646      1.0  0.18679  0.78318  0.69284  1.0000
  H   H647      1.0  0.19175  0.75840  0.73701  1.0000
  H   H648      1.0  0.11488  0.75432  0.77543  1.0000
  H   H649      1.0  0.10983  0.77893  0.73127  1.0000
  H   H650      1.0  0.30471  0.65188  0.86965  1.0000
  H   H651      1.0  0.18551  0.81314  0.76956  1.0000
  H   H652      1.0  0.36215  0.69183  0.93139  1.0000
  H   H653      1.0  0.38991  0.73938  0.95065  1.0000
  H   H654      1.0  0.14743  0.84540  0.52431  1.0000
  C   C375      1.0  0.16994  0.95116  0.62232  1.0000
  H   H655      1.0  0.15839  0.79354  0.86991  1.0000
  C   C376      1.0  0.09942  0.73560  0.53910  1.0000
  H   H656      1.0  0.12467  0.93654  0.63147  1.0000
  C   C377      1.0  0.37409  0.75894  0.91800  1.0000
  H   H657      1.0  0.34042  0.66280  0.85487  1.0000
  H   H658      1.0  0.98516  0.84767  0.72191  1.0000
  H   H659      1.0  0.00609  0.76356  0.65217  1.0000
  H   H660      1.0  0.21128  0.83285  0.74095  1.0000
  H   H661      1.0  0.01736  0.79655  0.49878  1.0000
  C   C378      1.0  0.29212  0.73278  0.95940  1.0000
  H   H662      1.0  0.28355  0.89666  0.88073  1.0000
  C   C379      1.0  0.29030  0.71400  0.75805  1.0000
  C   C380      1.0  0.38734  0.80800  0.91558  1.0000
  H   H663      1.0  0.28155  0.80572  0.73941  1.0000
  H   H664      1.0  0.33809  0.70559  0.94012  1.0000
  H   H665      1.0  0.16550  0.76963  0.84856  1.0000
  C   C381      1.0  0.43966  0.82019  0.87941  1.0000
  Fe  Fe51      1.0  0.41534  0.68517  0.83471  1.0000
  C   C382      1.0  0.26393  0.80516  0.78411  1.0000
  H   H666      1.0  0.45970  0.66299  0.89283  1.0000
  H   H667      1.0  0.42848  0.77840  0.89143  1.0000
  H   H668      1.0  0.24286  0.86825  0.77575  1.0000
  C   C383      1.0  0.36313  0.66113  0.73888  1.0000
  H   H669      1.0  0.38015  0.84848  0.88595  1.0000
  C   C384      1.0  0.15429  0.94367  0.53157  1.0000
  H   H670      1.0  0.22675  0.80278  0.83617  1.0000
  H   H671      1.0  0.14504  0.92953  0.55104  1.0000
  H   H672      1.0  0.19218  0.97172  0.55640  1.0000
  C   C385      1.0  0.19743  0.97495  0.61973  1.0000
  N   N22       1.0  0.31776  0.65996  0.76385  1.0000
  H   H673      1.0  0.28581  0.81976  0.79314  1.0000
  C   C386      1.0  0.17508  0.97291  0.54307  1.0000
  H   H674      1.0  0.17516  0.81165  0.81936  1.0000
  H   H675      1.0  0.27055  0.69284  0.98033  1.0000
  H   H676      1.0  0.36284  0.75258  0.89582  1.0000
  C   C387      1.0  0.36013  0.82805  0.88749  1.0000
  H   H677      1.0  0.35719  0.75780  0.93382  1.0000
  C   C388      1.0  0.41677  0.79038  0.88863  1.0000
  H   H678      1.0  0.16473  0.69165  0.62924  1.0000
  H   H679      1.0  0.33120  0.71537  0.76438  1.0000
  C   C389      1.0  0.26376  0.85124  0.81904  1.0000
  H   H680      1.0  0.13698  0.67563  0.60084  1.0000
  H   H681      1.0  0.25168  0.78938  0.80142  1.0000
  H   H682      1.0  0.30172  0.90295  0.84488  1.0000
  H   H683      1.0  0.34308  0.68815  0.79984  1.0000
  C   C390      1.0  0.28105  0.71945  0.92848  1.0000
  S   S102      1.0  0.46765  0.76400  0.82466  1.0000
  C   C391      1.0  0.98781  0.78926  0.63935  1.0000
  H   H684      1.0  0.42229  0.70225  0.92227  1.0000
  H   H685      1.0  0.28215  0.69995  0.92606  1.0000
  H   H686      1.0  0.16254  0.97919  0.55834  1.0000
  H   H687      1.0  0.16853  0.83909  0.73775  1.0000
  H   H688      1.0  0.34704  0.78479  0.88961  1.0000
  C   C392      1.0  0.36772  0.80466  0.88819  1.0000
  H   H689      1.0  0.29211  0.67089  0.73486  1.0000
  N   N23       1.0  0.12155  0.74416  0.59293  1.0000
  C   C393      1.0  0.11416  0.74808  0.62481  1.0000
  C   C394      1.0  0.14609  0.77133  0.58195  1.0000
  C   C395      1.0  0.09531  0.73727  0.57356  1.0000
  C   C396      1.0  0.12913  0.72112  0.58980  1.0000
  C   C397      1.0  0.14389  0.71576  0.61724  1.0000
  C   C398      1.0  0.08551  0.72421  0.63756  1.0000
  H   H690      1.0  0.13075  0.98372  0.63946  1.0000
  C   C399      1.0  0.17520  0.78329  0.59929  1.0000
  C   C400      1.0  0.19701  0.81197  0.58769  1.0000
  C   C401      1.0  0.15506  0.69567  0.60903  1.0000
  C   C402      1.0  0.08392  0.72657  0.67173  1.0000
  H   H691      1.0  0.19104  0.79163  0.87697  1.0000
  H   H692      1.0  0.11233  0.76725  0.62656  1.0000
  H   H693      1.0  0.13195  0.75178  0.64058  1.0000
  H   H694      1.0  0.15171  0.76940  0.55824  1.0000
  H   H695      1.0  0.13902  0.78740  0.58198  1.0000
  H   H696      1.0  0.08777  0.75275  0.57745  1.0000
  H   H697      1.0  0.07676  0.71690  0.58003  1.0000
  H   H698      1.0  0.10927  0.70095  0.58511  1.0000
  H   H699      1.0  0.14334  0.72476  0.56980  1.0000
  H   H700      1.0  0.12808  0.70637  0.63590  1.0000
  H   H701      1.0  0.16241  0.73495  0.62618  1.0000
  H   H702      1.0  0.06658  0.72517  0.62792  1.0000
  H   H703      1.0  0.08325  0.70366  0.63186  1.0000
  H   H704      1.0  0.10974  0.72271  0.53380  1.0000
  H   H705      1.0  0.47785  0.77304  0.97675  1.0000
  H   H706      1.0  0.17238  0.78552  0.62369  1.0000
  H   H707      1.0  0.18515  0.76982  0.59573  1.0000
  H   H708      1.0  0.21786  0.81983  0.60005  1.0000
  H   H709      1.0  0.20124  0.81104  0.56330  1.0000
  H   H710      1.0  0.18875  0.82681  0.59140  1.0000
  C   C403      1.0  0.35569  0.70744  0.92487  1.0000
  H   H711      1.0  0.16592  0.93576  0.51703  1.0000
  S   S103      1.0  0.46628  0.75986  0.91382  1.0000
  H   H712      1.0  0.10202  0.72513  0.68278  1.0000
  H   H713      1.0  0.08516  0.74663  0.67809  1.0000
  H   H714      1.0  0.06303  0.70953  0.68016  1.0000
  C   C404      1.0  0.34287  0.67408  0.74220  1.0000
  H   H715      1.0  0.21615  0.97257  0.61432  1.0000
  C   C405      1.0  0.40391  0.79250  0.97462  1.0000
  H   H716      1.0  0.37383  0.80555  0.93584  1.0000
  C   C406      1.0  0.38200  0.73639  0.92710  1.0000
  H   H717      1.0  0.26702  0.70108  0.76387  1.0000
  C   C407      1.0  0.30678  0.65230  0.82089  1.0000
  H   H718      1.0  0.39930  0.73705  0.91237  1.0000
  H   H719      1.0  0.17465  0.66494  0.98274  1.0000
  H   H720      1.0  0.40022  0.81048  0.97825  1.0000
  C   C408      1.0  0.22515  0.84952  0.78666  1.0000
  N   N24       1.0  0.39921  0.78810  0.91649  1.0000
  H   H721      1.0  0.13612  0.94343  0.51878  1.0000
  C   C409      1.0  0.42001  0.69559  0.97030  1.0000
  H   H722      1.0  0.33496  0.67502  0.71930  1.0000
  Fe  Fe52      1.0  0.47336  0.72906  0.80566  1.0000
  C   C410      1.0  0.13570  0.83635  0.50364  1.0000
  C   C411      1.0  0.26867  0.79053  0.75703  1.0000
  H   H723      1.0  0.37834  0.80487  0.86652  1.0000
  H   H724      1.0  0.37287  0.66077  0.76074  1.0000
  C   C412      1.0  0.20126  0.83439  0.76246  1.0000
  H   H725      1.0  0.42981  0.78216  0.94365  1.0000
  C   C413      1.0  0.14594  0.95456  0.62942  1.0000
  H   H726      1.0  0.29169  0.75267  0.95971  1.0000
  H   H727      1.0  0.40266  0.66860  0.71573  1.0000
  H   H728      1.0  0.34652  0.82548  0.86745  1.0000
  H   H729      1.0  0.20330  0.78981  0.80502  1.0000
  C   C414      1.0  0.41875  0.79498  0.94362  1.0000
  H   H730      1.0  0.34769  0.82762  0.90792  1.0000
  H   H731      1.0  0.34500  0.65727  0.79852  1.0000
  H   H732      1.0  0.40243  0.78051  0.86878  1.0000
  H   H733      1.0  0.40535  0.82979  0.91677  1.0000
  C   C415      1.0  0.21538  0.80873  0.81917  1.0000
  H   H734      1.0  0.20063  0.83323  0.84724  1.0000
  H   H735      1.0  0.27357  0.83930  0.82897  1.0000
  H   H736      1.0  0.29932  0.87558  0.86884  1.0000
  H   H737      1.0  0.24752  0.77480  0.74740  1.0000
  H   H738      1.0  0.34749  0.70294  0.90143  1.0000
  H   H739      1.0  0.42892  0.83213  0.87208  1.0000
  C   C416      1.0  0.30825  0.70152  0.77072  1.0000
  H   H740      1.0  0.30651  0.70159  0.79560  1.0000
  H   H741      1.0  0.17251  0.85052  0.77637  1.0000
  C   C417      1.0  0.19167  0.81293  0.83566  1.0000
  H   H742      1.0  0.37939  0.67735  0.69416  1.0000
  N   N25       1.0  0.23735  0.83247  0.80046  1.0000
  H   H743      1.0  0.28080  0.77982  0.76427  1.0000
  H   H744      1.0  0.26179  0.83764  0.75929  1.0000
  H   H745      1.0  0.22852  0.80588  0.76129  1.0000
  H   H746      1.0  0.24564  0.85092  0.86359  1.0000
  H   H747      1.0  0.25819  0.71483  0.92519  1.0000
  H   H748      1.0  0.19960  0.87138  0.74865  1.0000
  C   C418      1.0  0.28769  0.88658  0.86097  1.0000
  C   C419      1.0  0.25881  0.86623  0.84620  1.0000
  H   H749      1.0  0.05609  0.85486  0.52368  1.0000
  C   C420      1.0  0.10809  0.81299  0.50472  1.0000
  H   H750      1.0  0.28079  0.86718  0.80435  1.0000
  C   C421      1.0  0.07032  0.72315  0.52254  1.0000
  H   H751      1.0  0.00076  0.75981  0.55643  1.0000
  H   H752      1.0  0.21617  0.85777  0.80405  1.0000
  C   C422      1.0  0.18455  0.84992  0.75603  1.0000
  H   H753      1.0  0.29805  0.73502  0.76781  1.0000
  H   H754      1.0  0.10843  0.87028  0.52174  1.0000
  H   H755      1.0  0.05917  0.73545  0.52730  1.0000
  H   H756      1.0  0.43688  0.81661  0.94256  1.0000
  H   H757      1.0  0.29459  0.73391  0.91055  1.0000
  H   H758      1.0  0.17210  0.70464  0.59138  1.0000
  H   H759      1.0  0.11321  0.75663  0.52984  1.0000
  H   H760      1.0  0.45459  0.83159  0.89820  1.0000
  C   C423      1.0  0.27292  0.71361  0.98488  1.0000
  H   H761      1.0  0.00887  0.83002  0.52250  1.0000
  H   H762      1.0  0.31483  0.73706  0.96176  1.0000
  H   H763      1.0  0.32509  0.68588  0.85360  1.0000
  C   C424      1.0  0.98642  0.76403  0.64637  1.0000
  C   C425      1.0  0.29728  0.67145  0.75919  1.0000
  H   H764      1.0  0.44429  0.80768  0.83382  1.0000
  H   H765      1.0  0.07409  0.72345  0.49790  1.0000
  H   H766      1.0  0.98537  0.78268  0.55776  1.0000
  H   H767      1.0  0.27588  0.65811  0.76996  1.0000
  H   H768      1.0  0.38266  0.77338  0.97638  1.0000
  H   H769      1.0  0.28804  0.65595  0.81784  1.0000
  C   C426      1.0  0.32018  0.66400  0.85161  1.0000
  H   H770      1.0  0.40094  0.69961  0.72483  1.0000
  C   C427      1.0  0.00312  0.83694  0.50137  1.0000
  C   C428      1.0  0.45821  0.81969  0.85317  1.0000
  H   H771      1.0  0.44958  0.67256  0.94727  1.0000
  C   C429      1.0  0.38799  0.67776  0.71703  1.0000
  H   H772      1.0  0.05603  0.70137  0.52946  1.0000
  C   C430      1.0  0.46155  0.75143  0.97487  1.0000
  C   C431      1.0  0.18579  0.68730  0.98426  1.0000
  H   H773      1.0  0.06326  0.82887  0.50724  1.0000
  S   S104      1.0  0.22184  0.65285  0.79216  1.0000
  H   H774      1.0  0.47165  0.81035  0.86039  1.0000
  C   C432      1.0  0.46478  0.66448  0.94247  1.0000
  H   H775      1.0  0.47303  0.84116  0.84566  1.0000
  H   H776      1.0  0.25068  0.71099  0.98192  1.0000
  C   C433      1.0  0.06468  0.84929  0.50351  1.0000
  C   C434      1.0  0.14947  0.98138  0.63388  1.0000
  C   C435      1.0  0.09678  0.87102  0.50129  1.0000
  H   H777      1.0  0.09929  0.89210  0.49966  1.0000
  H   H778      1.0  0.21041  0.94037  0.48711  1.0000
  Fe  Fe53      1.0  0.71794  0.22873  0.14633  1.0000
  S   S105      1.0  0.69386  0.20200  0.10626  1.0000
  S   S106      1.0  0.74817  0.22439  0.18083  1.0000
  Fe  Fe54      1.0  0.69415  0.26937  0.13414  1.0000
  S   S107      1.0  0.66849  0.24547  0.09374  1.0000
  C   C436      1.0  0.85196  0.21639  0.30536  1.0000
  Fe  Fe55      1.0  0.65642  0.20811  0.12178  1.0000
  S   S108      1.0  0.61007  0.17415  0.12718  1.0000
  Fe  Fe56      1.0  0.70785  0.24192  0.08130  1.0000
  S   S109      1.0  0.72764  0.25293  0.03432  1.0000
  S   S110      1.0  0.67926  0.23190  0.16314  1.0000
  S   S111      1.0  0.73480  0.26866  0.12023  1.0000
  S   S112      1.0  0.50254  0.24158  0.10715  1.0000
  S   S113      1.0  0.52082  0.21083  0.17750  1.0000
  Fe  Fe57      1.0  0.82621  0.11099  0.31031  1.0000
  S   S114      1.0  0.81306  0.14335  0.31915  1.0000
  S   S115      1.0  0.87150  0.12091  0.29416  1.0000
  Fe  Fe58      1.0  0.76515  0.06264  0.32484  1.0000
  S   S116      1.0  0.74828  0.09249  0.33504  1.0000
  S   S117      1.0  0.73004  0.01684  0.32799  1.0000
  Fe  Fe59      1.0  0.77200  0.11575  0.29345  1.0000
  S   S118      1.0  0.74885  0.12554  0.25517  1.0000
  Fe  Fe60      1.0  0.79042  0.11753  0.35984  1.0000
  S   S119      1.0  0.79717  0.14090  0.40417  1.0000
  S   S120      1.0  0.78663  0.08448  0.28198  1.0000
  S   S121      1.0  0.80595  0.08660  0.35248  1.0000
  H   H779      1.0  0.68338  0.29136  0.03372  1.0000
  C   C437      1.0  0.93222  0.19977  0.31825  1.0000
  C   C438      1.0  0.90540  0.17551  0.31354  1.0000
  C   C439      1.0  0.90475  0.15166  0.30171  1.0000
  C   C440      1.0  0.93121  0.15223  0.29521  1.0000
  C   C441      1.0  0.57774  0.29468  0.11587  1.0000
  H   H780      1.0  0.93250  0.21826  0.32693  1.0000
  H   H781      1.0  0.88524  0.17534  0.31864  1.0000
  H   H782      1.0  0.93096  0.13390  0.28602  1.0000
  H   H783      1.0  0.84891  0.19363  0.16060  1.0000
  C   C442      1.0  0.78090  0.09677  0.44281  1.0000
  C   C443      1.0  0.79318  0.12544  0.43981  1.0000
  C   C444      1.0  0.67891  0.22579  0.99763  1.0000
  H   H784      1.0  0.77352  0.08355  0.42302  1.0000
  C   C445      1.0  0.84015  0.20524  0.27389  1.0000
  C   C446      1.0  0.58491  0.18463  0.13936  1.0000
  C   C447      1.0  0.56300  0.16773  0.15938  1.0000
  C   C448      1.0  0.54309  0.17567  0.17034  1.0000
  C   C449      1.0  0.54362  0.19971  0.15992  1.0000
  C   C450      1.0  0.56445  0.21584  0.13840  1.0000
  C   C451      1.0  0.58568  0.20882  0.12884  1.0000
  H   H785      1.0  0.56191  0.14879  0.16712  1.0000
  H   H786      1.0  0.52717  0.16311  0.18700  1.0000
  H   H787      1.0  0.56467  0.23405  0.12979  1.0000
  H   H788      1.0  0.60235  0.22187  0.11310  1.0000
  C   C452      1.0  0.74946  0.15357  0.23482  1.0000
  C   C453      1.0  0.73416  0.14782  0.20743  1.0000
  C   C454      1.0  0.73353  0.16909  0.19061  1.0000
  C   C455      1.0  0.74797  0.19651  0.20109  1.0000
  C   C456      1.0  0.76351  0.20231  0.22835  1.0000
  C   C457      1.0  0.76412  0.18104  0.24518  1.0000
  H   H789      1.0  0.72282  0.12671  0.19903  1.0000
  H   H790      1.0  0.72221  0.16431  0.16935  1.0000
  H   H791      1.0  0.77485  0.22342  0.23672  1.0000
  H   H792      1.0  0.77535  0.18582  0.26650  1.0000
  H   H793      1.0  0.83520  0.21844  0.31872  1.0000
  C   C458      1.0  0.70910  0.24233  0.99934  1.0000
  H   H794      1.0  0.90194  0.13460  0.47775  1.0000
  S   S122      1.0  0.50400  0.31051  0.10862  1.0000
  H   H795      1.0  0.66635  0.21901  0.01812  1.0000
  C   C459      1.0  0.58234  0.28769  0.14779  1.0000
  C   C460      1.0  0.53982  0.24633  0.04054  1.0000
  C   C461      1.0  0.49390  0.15996  0.07719  1.0000
  H   H796      1.0  0.93235  0.19183  0.39204  1.0000
  H   H797      1.0  0.63443  0.25687  0.17698  1.0000
  H   H798      1.0  0.92353  0.15830  0.22155  1.0000
  H   H799      1.0  0.87165  0.23709  0.30391  1.0000
  N   N26       1.0  0.65228  0.15873  0.22714  1.0000
  C   C462      1.0  0.62132  0.13724  0.23377  1.0000
  C   C463      1.0  0.67240  0.15106  0.24340  1.0000
  C   C464      1.0  0.65668  0.18665  0.23747  1.0000
  C   C465      1.0  0.65866  0.16005  0.19385  1.0000
  C   C466      1.0  0.65241  0.13226  0.17855  1.0000
  C   C467      1.0  0.59759  0.13942  0.21525  1.0000
  C   C468      1.0  0.68862  0.21044  0.23872  1.0000
  C   C469      1.0  0.66997  0.15012  0.27822  1.0000
  C   C470      1.0  0.69382  0.14568  0.29223  1.0000
  C   C471      1.0  0.65689  0.13539  0.14456  1.0000
  C   C472      1.0  0.56720  0.11736  0.22490  1.0000
  C   C473      1.0  0.69018  0.23788  0.24786  1.0000
  H   H800      1.0  0.61620  0.13846  0.25788  1.0000
  H   H801      1.0  0.61827  0.11595  0.23076  1.0000
  H   H802      1.0  0.66838  0.13015  0.23623  1.0000
  H   H803      1.0  0.69537  0.16526  0.23712  1.0000
  H   H804      1.0  0.64697  0.18527  0.26012  1.0000
  H   H805      1.0  0.64485  0.19372  0.22232  1.0000
  H   H806      1.0  0.64651  0.16859  0.18140  1.0000
  H   H807      1.0  0.68193  0.17493  0.18946  1.0000
  H   H808      1.0  0.62975  0.11576  0.18236  1.0000
  H   H809      1.0  0.66731  0.12509  0.18722  1.0000
  H   H810      1.0  0.59897  0.15995  0.21853  1.0000
  H   H811      1.0  0.59974  0.13634  0.19085  1.0000
  H   H812      1.0  0.69911  0.21333  0.21650  1.0000
  H   H813      1.0  0.70163  0.20623  0.25528  1.0000
  H   H814      1.0  0.67196  0.16956  0.28783  1.0000
  H   H815      1.0  0.64874  0.13265  0.28526  1.0000
  H   H816      1.0  0.69290  0.12638  0.28333  1.0000
  H   H817      1.0  0.71559  0.16347  0.28734  1.0000
  H   H818      1.0  0.69099  0.14388  0.31703  1.0000
  H   H819      1.0  0.64211  0.14209  0.13441  1.0000
  H   H820      1.0  0.67972  0.15074  0.13924  1.0000
  H   H821      1.0  0.65211  0.11521  0.13426  1.0000
  H   H822      1.0  0.55056  0.11938  0.21158  1.0000
  H   H823      1.0  0.56433  0.09628  0.22096  1.0000
  H   H824      1.0  0.56352  0.11992  0.24908  1.0000
  H   H825      1.0  0.67821  0.24367  0.23151  1.0000
  H   H826      1.0  0.68089  0.23643  0.27069  1.0000
  H   H827      1.0  0.71325  0.25452  0.24811  1.0000
  N   N27       1.0  0.88451  0.13795  0.41615  1.0000
  C   C474      1.0  0.87265  0.15197  0.39605  1.0000
  C   C475      1.0  0.87656  0.10984  0.40282  1.0000
  H   H828      1.0  0.78944  0.09777  0.18342  1.0000
  C   C476      1.0  0.91693  0.15515  0.42100  1.0000
  C   C477      1.0  0.93537  0.17341  0.39429  1.0000
  C   C478      1.0  0.87525  0.17949  0.40851  1.0000
  H   H829      1.0  0.69908  0.01640  0.38589  1.0000
  C   C479      1.0  0.89037  0.10945  0.37218  1.0000
  C   C480      1.0  0.59529  0.31360  0.16817  1.0000
  C   C481      1.0  0.87240  0.19677  0.38352  1.0000
  H   H830      1.0  0.84919  0.13779  0.39135  1.0000
  H   H831      1.0  0.88300  0.15619  0.37357  1.0000
  H   H832      1.0  0.50369  0.28729  0.23036  1.0000
  H   H833      1.0  0.58815  0.25398  0.18773  1.0000
  H   H834      1.0  0.53970  0.29801  0.19053  1.0000
  Fe  Fe61      1.0  0.48973  0.21988  0.15117  1.0000
  C   C482      1.0  0.77738  0.08512  0.47156  1.0000
  H   H835      1.0  0.57100  0.27618  0.10129  1.0000
  H   H836      1.0  0.51970  0.13138  0.02811  1.0000
  C   C483      1.0  0.57079  0.29083  0.21613  1.0000
  H   H837      1.0  0.77466  0.99837  0.43875  1.0000
  H   H838      1.0  0.89616  0.19230  0.42028  1.0000
  H   H839      1.0  0.88312  0.09803  0.41788  1.0000
  H   H840      1.0  0.88647  0.12178  0.35538  1.0000
  H   H841      1.0  0.91410  0.11757  0.37482  1.0000
  C   C484      1.0  0.52182  0.15101  0.01908  1.0000
  H   H842      1.0  0.86749  0.18672  0.26969  1.0000
  H   H843      1.0  0.85247  0.09725  0.40045  1.0000
  H   H844      1.0  0.84571  0.23715  0.15781  1.0000
  H   H845      1.0  0.87268  0.21544  0.39341  1.0000
  H   H846      1.0  0.89074  0.20356  0.36741  1.0000
  H   H847      1.0  0.85152  0.18456  0.37134  1.0000
  H   H848      1.0  0.49489  0.16062  0.12622  1.0000
  H   H849      1.0  0.87305  0.17806  0.18674  1.0000
  C   C485      1.0  0.82584  0.21659  0.15921  1.0000
  N   N28       1.0  0.85227  0.18694  0.22455  1.0000
  S   S123      1.0  0.68452  0.30248  0.15228  1.0000
  C   C486      1.0  0.86899  0.13287  0.44611  1.0000
  C   C487      1.0  0.86210  0.20003  0.25539  1.0000
  H   H850      1.0  0.83692  0.12737  0.20671  1.0000
  H   H851      1.0  0.64622  0.26567  0.21573  1.0000
  C   C488      1.0  0.48202  0.14647  0.10761  1.0000
  H   H852      1.0  0.86119  0.22659  0.20673  1.0000
  H   H853      1.0  0.85767  0.20220  0.31733  1.0000
  H   H854      1.0  0.52684  0.28351  0.25748  1.0000
  H   H855      1.0  0.49350  0.17984  0.07708  1.0000
  H   H856      1.0  0.84509  0.11946  0.44287  1.0000
  N   N29       1.0  0.59947  0.30899  0.20067  1.0000
  H   H857      1.0  0.54375  0.20581  0.00861  1.0000
  H   H858      1.0  0.90040  0.15245  0.18946  1.0000
  H   H859      1.0  0.82443  0.20523  0.21832  1.0000
  H   H860      1.0  0.92596  0.14149  0.42776  1.0000
  C   C489      1.0  0.64649  0.29706  0.07532  1.0000
  H   H861      1.0  0.64093  0.27534  0.07031  1.0000
  C   C490      1.0  0.95874  0.20040  0.31168  1.0000
  H   H862      1.0  0.63169  0.30211  0.06244  1.0000
  H   H863      1.0  0.92944  0.16244  0.37238  1.0000
  H   H864      1.0  0.87760  0.10014  0.46442  1.0000
  C   C491      1.0  0.87768  0.08001  0.35949  1.0000
  H   H865      1.0  0.54536  0.25106  0.01648  1.0000
  C   C492      1.0  0.79136  0.11317  0.20079  1.0000
  N   N30       1.0  0.53779  0.17467  0.04107  1.0000
  C   C493      1.0  0.56982  0.18372  0.04192  1.0000
  C   C494      1.0  0.52529  0.16508  0.07206  1.0000
  H   H866      1.0  0.47880  0.14617  0.05961  1.0000
  H   H867      1.0  0.59473  0.25732  0.22744  1.0000
  C   C495      1.0  0.57766  0.16069  0.04889  1.0000
  C   C496      1.0  0.82704  0.15794  0.22796  1.0000
  H   H868      1.0  0.64291  0.29889  0.09972  1.0000
  C   C497      1.0  0.61034  0.17156  0.04572  1.0000
  H   H869      1.0  0.80875  0.21880  0.17178  1.0000
  H   H870      1.0  0.58082  0.19982  0.05970  1.0000
  H   H871      1.0  0.58054  0.19392  0.02049  1.0000
  H   H872      1.0  0.53927  0.18006  0.08957  1.0000
  H   H873      1.0  0.56038  0.30057  0.11558  1.0000
  C   C498      1.0  0.95808  0.17637  0.30038  1.0000
  C   C499      1.0  0.69161  0.00227  0.40547  1.0000
  H   H874      1.0  0.62273  0.19002  0.06041  1.0000
  C   C500      1.0  0.54788  0.22487  0.05166  1.0000
  H   H875      1.0  0.57143  0.15339  0.07232  1.0000
  H   H876      1.0  0.56659  0.14261  0.03353  1.0000
  H   H877      1.0  0.81925  0.18576  0.27613  1.0000
  H   H878      1.0  0.85754  0.17492  0.42493  1.0000
  H   H879      1.0  0.82824  0.14593  0.17989  1.0000
  H   H880      1.0  0.88251  0.22029  0.25360  1.0000
  H   H881      1.0  0.54046  0.21994  0.07528  1.0000
  H   H882      1.0  0.61570  0.15531  0.05264  1.0000
  H   H883      1.0  0.61726  0.17707  0.02199  1.0000
  H   H884      1.0  0.78631  0.03035  0.45926  1.0000
  C   C501      1.0  0.82273  0.13666  0.20248  1.0000
  H   H885      1.0  0.88164  0.06662  0.37506  1.0000
  H   H886      1.0  0.55736  0.15797  0.98744  1.0000
  C   C502      1.0  0.76851  0.00862  0.45679  1.0000
  C   C503      1.0  0.62713  0.25423  0.20076  1.0000
  H   H887      1.0  0.85396  0.07090  0.35552  1.0000
  C   C504      1.0  0.87833  0.18750  0.20951  1.0000
  C   C505      1.0  0.83247  0.19561  0.17448  1.0000
  C   C506      1.0  0.89286  0.17347  0.22743  1.0000
  H   H888      1.0  0.55150  0.26587  0.05367  1.0000
  H   H889      1.0  0.59780  0.27948  0.14617  1.0000
  H   H890      1.0  0.83604  0.22107  0.26324  1.0000
  H   H891      1.0  0.78438  0.10249  0.22265  1.0000
  C   C507      1.0  0.52083  0.28130  0.23329  1.0000
  Fe  Fe62      1.0  0.48218  0.26621  0.12498  1.0000
  C   C508      1.0  0.60511  0.26444  0.20506  1.0000
  H   H892      1.0  0.51044  0.19215  0.02831  1.0000
  H   H893      1.0  0.52530  0.14547  0.07755  1.0000
  C   C509      1.0  0.91296  0.16747  0.20761  1.0000
  H   H894      1.0  0.61672  0.23178  0.20586  1.0000
  H   H895      1.0  0.77503  0.99981  0.33105  1.0000
  C   C510      1.0  0.53396  0.19870  0.03116  1.0000
  C   C511      1.0  0.84312  0.20477  0.20713  1.0000
  H   H896      1.0  0.57471  0.28873  0.24034  1.0000
  H   H897      1.0  0.51618  0.23836  0.04340  1.0000
  C   C512      1.0  0.87909  0.12008  0.47126  1.0000
  H   H898      1.0  0.88816  0.08057  0.33754  1.0000
  H   H899      1.0  0.56000  0.26945  0.20675  1.0000
  C   C513      1.0  0.68526  0.31235  0.03453  1.0000
  H   H900      1.0  0.56109  0.27153  0.15647  1.0000
  H   H901      1.0  0.57194  0.23461  0.05132  1.0000
  H   H902      1.0  0.81183  0.17563  0.17455  1.0000
  C   C514      1.0  0.80251  0.14234  0.46577  1.0000
  H   H903      1.0  0.77654  0.12134  0.19466  1.0000
  H   H904      1.0  0.82885  0.14837  0.24922  1.0000
  H   H905      1.0  0.90628  0.18739  0.24601  1.0000
  H   H906      1.0  0.89545  0.20933  0.20556  1.0000
  H   H907      1.0  0.93018  0.18689  0.19753  1.0000
  H   H908      1.0  0.80650  0.15884  0.23065  1.0000
  H   H909      1.0  0.81770  0.20935  0.13603  1.0000
  H   H910      1.0  0.76720  0.06291  0.47366  1.0000
  H   H911      1.0  0.87643  0.15373  0.23755  1.0000
  H   H912      1.0  0.74835  0.00876  0.44982  1.0000
  H   H913      1.0  0.81196  0.16455  0.46364  1.0000
  C   C515      1.0  0.61954  0.29661  0.20357  1.0000
  H   H914      1.0  0.92161  0.16980  0.44026  1.0000
  H   H915      1.0  0.63273  0.30415  0.22455  1.0000
  H   H916      1.0  0.66702  0.31071  0.02059  1.0000
  H   H917      1.0  0.51177  0.25924  0.22634  1.0000
  C   C516      1.0  0.53502  0.15514  0.98696  1.0000
  H   H918      1.0  0.60636  0.25036  0.00541  1.0000
  C   C517      1.0  0.54729  0.29993  0.21412  1.0000
  H   H919      1.0  0.63571  0.30382  0.18492  1.0000
  H   H920      1.0  0.49905  0.14682  0.01620  1.0000
  H   H921      1.0  0.70624  0.01314  0.42474  1.0000
  H   H922      1.0  0.73247  0.30596  0.01943  1.0000
  H   H923      1.0  0.48249  0.12666  0.10950  1.0000
  H   H924      1.0  0.87175  0.15254  0.45606  1.0000
  H   H925      1.0  0.69211  0.31394  0.08352  1.0000
  H   H926      1.0  0.48421  0.27458  0.98564  1.0000
  H   H927      1.0  0.66913  0.99765  0.41112  1.0000
  H   H928      1.0  0.72859  0.30721  0.07221  1.0000
  C   C518      1.0  0.96778  0.18388  0.39918  1.0000
  H   H929      1.0  0.77387  0.30858  0.05313  1.0000
  H   H930      1.0  0.59811  0.31191  0.10667  1.0000
  H   H931      1.0  0.97242  0.16631  0.39882  1.0000
  C   C519      1.0  0.67821  0.31715  0.06738  1.0000
  H   H932      1.0  0.97502  0.19516  0.42097  1.0000
  C   C520      1.0  0.72921  0.98426  0.32487  1.0000
  H   H933      1.0  0.63476  0.24595  0.98790  1.0000
  H   H934      1.0  0.97824  0.17653  0.29511  1.0000
  C   C521      1.0  0.62097  0.25590  0.98556  1.0000
  Fe  Fe63      1.0  0.70920  0.21330  0.80314  1.0000
  S   S124      1.0  0.66371  0.19355  0.82285  1.0000
  S   S125      1.0  0.73379  0.19067  0.78589  1.0000
  Fe  Fe64      1.0  0.71849  0.27190  0.81577  1.0000
  S   S126      1.0  0.67458  0.25707  0.83581  1.0000
  H   H935      1.0  0.58106  0.31395  0.77042  1.0000
  Fe  Fe65      1.0  0.68234  0.22581  0.86016  1.0000
  S   S127      1.0  0.66263  0.21557  0.90752  1.0000
  Fe  Fe66      1.0  0.65885  0.22621  0.79788  1.0000
  S   S128      1.0  0.62103  0.22239  0.77047  1.0000
  S   S129      1.0  0.72814  0.24303  0.84278  1.0000
  S   S130      1.0  0.70261  0.24352  0.77559  1.0000
  S   S131      1.0  0.50661  0.24926  0.85182  1.0000
  H   H936      1.0  0.66360  0.28323  0.73736  1.0000
  Fe  Fe67      1.0  0.84069  0.12049  0.63009  1.0000
  S   S132      1.0  0.82367  0.14428  0.60369  1.0000
  S   S133      1.0  0.88791  0.12936  0.63348  1.0000
  Fe  Fe68      1.0  0.77906  0.07086  0.64059  1.0000
  S   S134      1.0  0.75912  0.09227  0.61515  1.0000
  S   S135      1.0  0.74381  0.02815  0.65637  1.0000
  Fe  Fe69      1.0  0.79427  0.10328  0.58082  1.0000
  S   S136      1.0  0.78142  0.08579  0.53297  1.0000
  Fe  Fe70      1.0  0.78942  0.13099  0.64082  1.0000
  S   S137      1.0  0.76856  0.15671  0.65917  1.0000
  S   S138      1.0  0.81291  0.08027  0.60542  1.0000
  S   S139      1.0  0.80795  0.10913  0.66819  1.0000
  C   C522      1.0  0.78646  0.10196  0.49756  1.0000
  H   H937      1.0  0.70939  0.12884  0.79044  1.0000
  C   C523      1.0  0.65071  0.03863  0.72496  1.0000
  H   H938      1.0  0.60710  0.00343  0.72490  1.0000
  H   H939      1.0  0.80639  0.14386  0.51437  1.0000
  C   C524      1.0  0.92202  0.16042  0.63188  1.0000
  C   C525      1.0  0.92424  0.18669  0.63110  1.0000
  C   C526      1.0  0.95184  0.21067  0.63051  1.0000
  H   H940      1.0  0.59012  0.22323  0.95765  1.0000
  C   C527      1.0  0.80829  0.03217  0.54469  1.0000
  C   C528      1.0  0.94775  0.15852  0.63156  1.0000
  H   H941      1.0  0.90470  0.18853  0.63134  1.0000
  H   H942      1.0  0.95326  0.23086  0.63033  1.0000
  C   C529      1.0  0.69405  0.07230  0.66202  1.0000
  H   H943      1.0  0.94633  0.13834  0.63222  1.0000
  C   C530      1.0  0.68125  0.22626  0.94248  1.0000
  C   C531      1.0  0.71140  0.24313  0.94421  1.0000
  H   H944      1.0  0.54806  0.25884  0.75299  1.0000
  H   H945      1.0  0.72410  0.24988  0.92377  1.0000
  C   C532      1.0  0.78370  0.00261  0.55234  1.0000
  C   C533      1.0  0.74248  0.18083  0.75029  1.0000
  C   C534      1.0  0.76024  0.16825  0.74972  1.0000
  C   C535      1.0  0.76824  0.16051  0.72228  1.0000
  C   C536      1.0  0.75876  0.16541  0.69479  1.0000
  C   C537      1.0  0.74084  0.17782  0.69537  1.0000
  C   C538      1.0  0.73260  0.18530  0.72282  1.0000
  H   H946      1.0  0.76808  0.16465  0.77072  1.0000
  H   H947      1.0  0.78219  0.15123  0.72240  1.0000
  H   H948      1.0  0.73320  0.18164  0.67435  1.0000
  H   H949      1.0  0.71863  0.19456  0.72266  1.0000
  C   C539      1.0  0.58715  0.20980  0.78852  1.0000
  C   C540      1.0  0.56981  0.22189  0.78206  1.0000
  C   C541      1.0  0.54251  0.21220  0.79575  1.0000
  C   C542      1.0  0.53196  0.18963  0.81515  1.0000
  C   C543      1.0  0.54909  0.17723  0.82136  1.0000
  C   C544      1.0  0.57683  0.18753  0.80838  1.0000
  H   H950      1.0  0.57775  0.23892  0.76658  1.0000
  H   H951      1.0  0.52937  0.22180  0.79085  1.0000
  H   H952      1.0  0.54100  0.15974  0.83635  1.0000
  H   H953      1.0  0.59004  0.17799  0.81331  1.0000
  H   H954      1.0  0.53287  0.26035  0.95072  1.0000
  H   H955      1.0  0.63186  0.99973  0.69957  1.0000
  C   C545      1.0  0.79933  0.13069  0.49454  1.0000
  H   H956      1.0  0.84707  0.30042  0.74575  1.0000
  H   H957      1.0  0.67363  0.05218  0.66288  1.0000
  C   C546      1.0  0.62982  0.00753  0.72212  1.0000
  C   C547      1.0  0.81415  0.28651  0.80798  1.0000
  H   H958      1.0  0.72917  0.10825  0.75174  1.0000
  H   H959      1.0  0.86943  0.10774  0.51808  1.0000
  H   H960      1.0  0.75129  0.09885  0.71052  1.0000
  C   C548      1.0  0.68728  0.10496  0.75019  1.0000
  H   H961      1.0  0.80260  0.04807  0.55206  1.0000
  H   H962      1.0  0.67736  0.28084  0.77349  1.0000
  C   C549      1.0  0.71102  0.00431  0.55976  1.0000
  H   H963      1.0  0.83431  0.03741  0.58478  1.0000
  C   C550      1.0  0.76220  0.27871  0.72210  1.0000
  H   H964      1.0  0.59805  0.27605  0.89746  1.0000
  H   H965      1.0  0.74511  0.07560  0.76280  1.0000
  C   C551      1.0  0.83685  0.03848  0.55991  1.0000
  H   H966      1.0  0.94064  0.20153  0.50532  1.0000
  H   H967      1.0  0.79155  0.09432  0.73436  1.0000
  H   H968      1.0  0.53104  0.30345  0.90467  1.0000
  H   H969      1.0  0.90132  0.16647  0.53562  1.0000
  H   H970      1.0  0.59426  0.22591  0.90022  1.0000
  H   H971      1.0  0.68015  0.09103  0.69558  1.0000
  H   H972      1.0  0.59450  0.29185  0.78158  1.0000
  H   H973      1.0  0.72569  0.30446  0.96983  1.0000
  H   H974      1.0  0.95157  0.17820  0.52094  1.0000
  C   C552      1.0  0.73444  0.07695  0.71479  1.0000
  H   H975      1.0  0.68684  0.03594  0.74248  1.0000
  C   C553      1.0  0.92036  0.18335  0.54729  1.0000
  H   H976      1.0  0.62477  0.30740  0.82331  1.0000
  H   H977      1.0  0.68764  0.07718  0.61473  1.0000
  H   H978      1.0  0.83787  0.09710  0.49478  1.0000
  C   C554      1.0  0.69435  0.30397  0.93905  1.0000
  H   H979      1.0  0.64477  0.04905  0.70738  1.0000
  H   H980      1.0  0.78348  0.06310  0.75410  1.0000
  H   H981      1.0  0.91483  0.19963  0.55419  1.0000
  C   C555      1.0  0.69945  0.08826  0.69235  1.0000
  C   C556      1.0  0.60597  0.24561  0.85741  1.0000
  H   H982      1.0  0.97401  0.21631  0.56561  1.0000
  H   H983      1.0  0.49445  0.22593  0.73142  1.0000
  C   C557      1.0  0.74276  0.99555  0.65314  1.0000
  H   H984      1.0  0.69491  0.31299  0.75351  1.0000
  Fe  Fe71      1.0  0.48014  0.20667  0.83249  1.0000
  H   H985      1.0  0.71892  0.24398  0.71252  1.0000
  C   C558      1.0  0.77645  0.07166  0.73541  1.0000
  C   C559      1.0  0.54449  0.31093  0.92540  1.0000
  H   H986      1.0  0.66452  0.09084  0.74349  1.0000
  H   H987      1.0  0.71127  0.10914  0.63402  1.0000
  H   H988      1.0  0.70930  0.01386  0.53857  1.0000
  H   H989      1.0  0.57897  0.30458  0.90860  1.0000
  H   H990      1.0  0.48615  0.14634  0.76150  1.0000
  H   H991      1.0  0.71191  0.06801  0.65630  1.0000
  C   C560      1.0  0.56407  0.29785  0.92821  1.0000
  H   H992      1.0  0.62652  0.26384  0.86490  1.0000
  C   C561      1.0  0.79127  0.27785  0.78238  1.0000
  H   H993      1.0  0.71620  0.03935  0.58717  1.0000
  C   C562      1.0  0.86019  0.11419  0.49938  1.0000
  C   C563      1.0  0.68691  0.11517  0.78221  1.0000
  H   H994      1.0  0.49968  0.21504  0.91638  1.0000
  H   H995      1.0  0.72608  0.27649  0.69653  1.0000
  H   H996      1.0  0.70186  0.07734  0.76793  1.0000
  H   H997      1.0  0.56394  0.25859  0.87930  1.0000
  H   H998      1.0  0.96736  0.23739  0.54123  1.0000
  H   H999      1.0  0.83660  0.29939  0.79948  1.0000
  H   H1000     1.0  0.55062  0.25822  0.71252  1.0000
  C   C564      1.0  0.75305  0.00565  0.51151  1.0000
  H   H1001     1.0  0.84406  0.02358  0.55226  1.0000
  C   C565      1.0  0.70132  0.01671  0.58525  1.0000
  H   H1002     1.0  0.74859  0.26387  0.97359  1.0000
  H   H1003     1.0  0.66295  0.31206  0.79663  1.0000
  H   H1004     1.0  0.78448  0.00012  0.57712  1.0000
  H   H1005     1.0  0.85887  0.13282  0.50677  1.0000
  H   H1006     1.0  0.82552  0.29601  0.71373  1.0000
  H   H1007     1.0  0.73165  0.04309  0.74283  1.0000
  H   H1008     1.0  0.67517  0.12730  0.78256  1.0000
  Fe  Fe72      1.0  0.48894  0.26284  0.81396  1.0000
  H   H1009     1.0  0.74505  0.00531  0.58827  1.0000
  H   H1010     1.0  0.60083  0.28276  0.94909  1.0000
  C   C566      1.0  0.66510  0.21771  0.96934  1.0000
  H   H1011     1.0  0.76564  0.02869  0.51065  1.0000
  H   H1012     1.0  0.52992  0.30590  0.94525  1.0000
  H   H1013     1.0  0.70096  0.00677  0.60693  1.0000
  H   H1014     1.0  0.61123  0.22963  0.84883  1.0000
  H   H1015     1.0  0.75666  0.03304  0.56328  1.0000
  C   C567      1.0  0.51675  0.13004  0.96681  1.0000
  H   H1016     1.0  0.81289  0.26762  0.81806  1.0000
  H   H1017     1.0  0.63536  0.27866  0.98512  1.0000
  C   C568      1.0  0.65336  0.30336  0.77428  1.0000
  H   H1018     1.0  0.82506  0.30766  0.85133  1.0000
  N   N31       1.0  0.75337  0.99579  0.54293  1.0000
  H   H1019     1.0  0.49223  0.10878  0.78249  1.0000
  C   C569      1.0  0.82573  0.29816  0.73870  1.0000
  C   C570      1.0  0.80899  0.30281  0.83301  1.0000
  C   C571      1.0  0.74272  0.01021  0.56455  1.0000
  H   H1020     1.0  0.52656  0.13354  0.94398  1.0000
  H   H1021     1.0  0.63212  0.28444  0.77745  1.0000
  H   H1022     1.0  0.51113  0.16618  0.90584  1.0000
  C   C572      1.0  0.55597  0.27191  0.73266  1.0000
  H   H1023     1.0  0.51598  0.11112  0.97613  1.0000
  C   C573      1.0  0.97756  0.20876  0.63063  1.0000
  H   H1024     1.0  0.73452  0.06516  0.69450  1.0000
  H   H1025     1.0  0.67574  0.09740  0.79770  1.0000
  H   H1026     1.0  0.74224  0.25720  0.68005  1.0000
  N   N32       1.0  0.80088  0.27245  0.75217  1.0000
  H   H1027     1.0  0.78908  0.01175  0.65261  1.0000
  C   C574      1.0  0.77500  0.25990  0.73127  1.0000
  C   C575      1.0  0.81052  0.25104  0.75675  1.0000
  C   C576      1.0  0.58479  0.26050  0.95223  1.0000
  H   H1028     1.0  0.61937  0.25166  0.93777  1.0000
  C   C577      1.0  0.70664  0.09096  0.74802  1.0000
  C   C578      1.0  0.81845  0.24007  0.72784  1.0000
  S   S140      1.0  0.49722  0.17641  0.83135  1.0000
  H   H1029     1.0  0.77780  0.06165  0.71408  1.0000
  H   H1030     1.0  0.71790  0.10959  0.68932  1.0000
  C   C579      1.0  0.54589  0.26578  0.92953  1.0000
  C   C580      1.0  0.83508  0.22467  0.73534  1.0000
  H   H1031     1.0  0.77148  0.25891  0.79018  1.0000
  H   H1032     1.0  0.69610  0.12323  0.73516  1.0000
  H   H1033     1.0  0.78051  0.25327  0.70967  1.0000
  H   H1034     1.0  0.75718  0.24084  0.74152  1.0000
  H   H1035     1.0  0.79337  0.23272  0.76878  1.0000
  H   H1036     1.0  0.82997  0.25949  0.77160  1.0000
  H   H1037     1.0  0.82260  0.20775  0.75148  1.0000
  C   C581      1.0  0.69113  0.08884  0.63621  1.0000
  C   C582      1.0  0.74535  0.06588  0.74092  1.0000
  H   H1038     1.0  0.54435  0.28409  0.73096  1.0000
  H   H1039     1.0  0.59634  0.25176  0.83882  1.0000
  C   C583      1.0  0.67359  0.29469  0.75857  1.0000
  S   S141      1.0  0.51918  0.29974  0.78601  1.0000
  H   H1040     1.0  0.79839  0.22517  0.71576  1.0000
  C   C584      1.0  0.58878  0.29136  0.73419  1.0000
  H   H1041     1.0  0.81230  0.03448  0.52010  1.0000
  H   H1042     1.0  0.67320  0.30383  0.93895  1.0000
  H   H1043     1.0  0.64180  0.20455  0.96820  1.0000
  H   H1044     1.0  0.63438  0.99605  0.73975  1.0000
  H   H1045     1.0  0.92476  0.17458  0.56771  1.0000
  C   C585      1.0  0.72522  0.25105  0.97250  1.0000
  N   N33       1.0  0.70505  0.07512  0.71935  1.0000
  H   H1046     1.0  0.59993  0.27876  0.73179  1.0000
  C   C586      1.0  0.94679  0.19517  0.52648  1.0000
  C   C587      1.0  0.48061  0.21790  0.71103  1.0000
  H   H1047     1.0  0.83850  0.21536  0.71446  1.0000
  H   H1048     1.0  0.85664  0.23911  0.74519  1.0000
  C   C588      1.0  0.60342  0.24606  0.95641  1.0000
  N   N34       1.0  0.56273  0.25012  0.92707  1.0000
  C   C589      1.0  0.54154  0.21982  0.93172  1.0000
  H   H1049     1.0  0.53069  0.31377  0.84956  1.0000
  H   H1050     1.0  0.59449  0.30492  0.71439  1.0000
  C   C590      1.0  0.57749  0.25589  0.89672  1.0000
  C   C591      1.0  0.58465  0.23377  0.88355  1.0000
  C   C592      1.0  0.51475  0.20707  0.91054  1.0000
  H   H1051     1.0  0.57367  0.25930  0.97396  1.0000
  H   H1052     1.0  0.77838  0.29660  0.70904  1.0000
  C   C593      1.0  0.73576  0.26307  0.70158  1.0000
  C   C594      1.0  0.49765  0.17557  0.91332  1.0000
  H   H1053     1.0  0.68454  0.03282  0.70291  1.0000
  H   H1054     1.0  0.55235  0.20700  0.92917  1.0000
  H   H1055     1.0  0.53302  0.21647  0.95520  1.0000
  H   H1056     1.0  0.64714  0.04541  0.74744  1.0000
  C   C595      1.0  0.59753  0.30755  0.76456  1.0000
  H   H1057     1.0  0.52980  0.25958  0.91103  1.0000
  H   H1058     1.0  0.67241  0.09249  0.64007  1.0000
  H   H1059     1.0  0.56468  0.21562  0.87485  1.0000
  C   C596      1.0  0.68265  0.04499  0.72214  1.0000
  H   H1060     1.0  0.83204  0.25714  0.71233  1.0000
  H   H1061     1.0  0.52128  0.21221  0.88675  1.0000
  H   H1062     1.0  0.67907  0.01321  0.58066  1.0000
  H   H1063     1.0  0.57702  0.30635  0.94909  1.0000
  H   H1064     1.0  0.78686  0.29059  0.84258  1.0000
  H   H1065     1.0  0.85394  0.05977  0.55410  1.0000
  H   H1066     1.0  0.75530  0.28632  0.74202  1.0000
  H   H1067     1.0  0.78413  0.29362  0.78074  1.0000
  H   H1068     1.0  0.69124  0.28456  0.92801  1.0000
  H   H1069     1.0  0.59664  0.31693  0.82482  1.0000
  C   C597      1.0  0.70520  0.30555  0.97124  1.0000
  C   C598      1.0  0.97306  0.22052  0.54129  1.0000
  H   H1070     1.0  0.49424  0.12669  0.96466  1.0000
  H   H1071     1.0  0.48307  0.10228  0.74314  1.0000
  H   H1072     1.0  0.49042  0.16957  0.93690  1.0000
  H   H1073     1.0  0.49287  0.21382  0.69311  1.0000
  H   H1074     1.0  0.78992  0.98769  0.54230  1.0000
  S   S142      1.0  0.75123  0.31703  0.80873  1.0000
  H   H1075     1.0  0.68887  0.28702  0.98336  1.0000
  C   C599      1.0  0.76805  0.99323  0.65242  1.0000
  H   H1076     1.0  0.73062  0.00040  0.50490  1.0000
  C   C600      1.0  0.97535  0.18249  0.63087  1.0000
  H   H1077     1.0  0.78457  0.99383  0.49238  1.0000
  C   C601      1.0  0.76384  0.99312  0.48636  1.0000
  H   H1078     1.0  0.53582  0.17340  0.97602  1.0000
  Fe  Fe73      1.0  0.68322  0.46933  0.08313  1.0000
  S   S143      1.0  0.72824  0.48974  0.10229  1.0000
  S   S144      1.0  0.67360  0.47875  0.03606  1.0000
  Fe  Fe74      1.0  0.65671  0.43779  0.14107  1.0000
  S   S145      1.0  0.70013  0.45626  0.16449  1.0000
  S   S146      1.0  0.61831  0.40699  0.16871  1.0000
  Fe  Fe75      1.0  0.70900  0.49699  0.14480  1.0000
  S   S147      1.0  0.73501  0.54104  0.16512  1.0000
  Fe  Fe76      1.0  0.71564  0.44769  0.12069  1.0000
  S   S148      1.0  0.74603  0.42965  0.11871  1.0000
  S   S149      1.0  0.66427  0.47917  0.12423  1.0000
  S   S150      1.0  0.67185  0.42656  0.09847  1.0000
  H   H1079     1.0  0.68250  0.58019  0.35024  1.0000
  H   H1080     1.0  0.84121  0.46093  0.21129  1.0000
  S   S151      1.0  0.76616  0.60343  0.29354  1.0000
  H   H1081     1.0  0.82362  0.50949  0.09596  1.0000
  H   H1082     1.0  0.49928  0.64640  0.26380  1.0000
  H   H1083     1.0  0.83379  0.47711  0.24302  1.0000
  C   C602      1.0  0.58699  0.38000  0.15154  1.0000
  C   C603      1.0  0.58520  0.37567  0.12040  1.0000
  C   C604      1.0  0.55978  0.35409  0.10747  1.0000
  C   C605      1.0  0.53630  0.33626  0.12564  1.0000
  C   C606      1.0  0.53820  0.34046  0.15680  1.0000
  C   C607      1.0  0.56338  0.36237  0.16966  1.0000
  H   H1084     1.0  0.60327  0.38922  0.10634  1.0000
  H   H1085     1.0  0.55823  0.35118  0.08332  1.0000
  H   H1086     1.0  0.55525  0.32144  0.22216  1.0000
  H   H1087     1.0  0.56447  0.36587  0.19372  1.0000
  C   C608      1.0  0.70221  0.33741  0.14126  1.0000
  C   C609      1.0  0.73128  0.35119  0.13212  1.0000
  C   C610      1.0  0.74469  0.37954  0.12496  1.0000
  C   C611      1.0  0.72905  0.39408  0.12697  1.0000
  C   C612      1.0  0.69991  0.38011  0.13573  1.0000
  C   C613      1.0  0.68664  0.35192  0.14281  1.0000
  C   C614      1.0  0.70751  0.39908  0.04182  1.0000
  H   H1088     1.0  0.76729  0.39030  0.11826  1.0000
  H   H1089     1.0  0.68767  0.39110  0.13745  1.0000
  H   H1090     1.0  0.79500  0.56108  0.23474  1.0000
  C   C615      1.0  0.74204  0.55804  0.20103  1.0000
  C   C616      1.0  0.76150  0.58673  0.20273  1.0000
  C   C617      1.0  0.76912  0.60102  0.23065  1.0000
  C   C618      1.0  0.75714  0.58683  0.25740  1.0000
  C   C619      1.0  0.73730  0.55822  0.25567  1.0000
  C   C620      1.0  0.72980  0.54390  0.22775  1.0000
  H   H1091     1.0  0.77115  0.59794  0.18227  1.0000
  H   H1092     1.0  0.78460  0.62291  0.23147  1.0000
  H   H1093     1.0  0.72779  0.54698  0.27615  1.0000
  H   H1094     1.0  0.71465  0.52191  0.22696  1.0000
  C   C621      1.0  0.76994  0.50544  0.21544  1.0000
  C   C622      1.0  0.69280  0.47691  0.00404  1.0000
  H   H1095     1.0  0.72070  0.60370  0.34552  1.0000
  C   C623      1.0  0.59486  0.40986  0.04655  1.0000
  H   H1096     1.0  0.67052  0.60222  0.30881  1.0000
  H   H1097     1.0  0.78511  0.49244  0.10287  1.0000
  H   H1098     1.0  0.70314  0.39329  0.06590  1.0000
  H   H1099     1.0  0.85574  0.60049  0.20989  1.0000
  H   H1100     1.0  0.75875  0.64671  0.25331  1.0000
  C   C624      1.0  0.81533  0.56437  0.22356  1.0000
  H   H1101     1.0  0.80736  0.47995  0.12041  1.0000
  C   C625      1.0  0.81999  0.51202  0.20922  1.0000
  H   H1102     1.0  0.83369  0.52432  0.14926  1.0000
  C   C626      1.0  0.69952  0.59299  0.33368  1.0000
  H   H1103     1.0  0.60045  0.34758  0.21324  1.0000
  H   H1104     1.0  0.86341  0.49769  0.21758  1.0000
  C   C627      1.0  0.80657  0.49877  0.11325  1.0000
  H   H1105     1.0  0.67943  0.35814  0.02470  1.0000
  C   C628      1.0  0.64469  0.35812  0.20598  1.0000
  H   H1106     1.0  0.81884  0.51248  0.23425  1.0000
  H   H1107     1.0  0.79237  0.55220  0.18109  1.0000
  H   H1108     1.0  0.77028  0.46980  0.23618  1.0000
  H   H1109     1.0  0.82327  0.60284  0.20226  1.0000
  C   C629      1.0  0.65783  0.38396  0.22611  1.0000
  H   H1110     1.0  0.82720  0.55787  0.23916  1.0000
  H   H1111     1.0  0.61631  0.32812  0.15768  1.0000
  H   H1112     1.0  0.75321  0.50961  0.20518  1.0000
  C   C630      1.0  0.70909  0.46313  0.00476  1.0000
  H   H1113     1.0  0.72603  0.36494  0.05647  1.0000
  H   H1114     1.0  0.73021  0.41621  0.03946  1.0000
  H   H1115     1.0  0.77501  0.51590  0.23779  1.0000
  C   C631      1.0  0.77447  0.32663  0.06504  1.0000
  H   H1116     1.0  0.66096  0.61564  0.26000  1.0000
  C   C632      1.0  0.58881  0.41186  0.01332  1.0000
  H   H1117     1.0  0.74753  0.34458  0.07437  1.0000
  H   H1118     1.0  0.71188  0.45513  0.02582  1.0000
  H   H1119     1.0  0.64426  0.36528  0.18285  1.0000
  H   H1120     1.0  0.65962  0.34929  0.20630  1.0000
  C   C633      1.0  0.72323  0.36277  0.03172  1.0000
  C   C634      1.0  0.70259  0.37412  0.02251  1.0000
  H   H1121     1.0  0.82834  0.55758  0.17966  1.0000
  H   H1122     1.0  0.82758  0.48632  0.17597  1.0000
  C   C635      1.0  0.81184  0.51819  0.14005  1.0000
  H   H1123     1.0  0.83668  0.60679  0.24019  1.0000
  H   H1124     1.0  0.81221  0.53722  0.13156  1.0000
  H   H1125     1.0  0.79846  0.46640  0.20105  1.0000
  H   H1126     1.0  0.59554  0.39043  0.05081  1.0000
  H   H1127     1.0  0.74522  0.37739  0.02275  1.0000
  N   N35       1.0  0.71401  0.33355  0.02127  1.0000
  H   H1128     1.0  0.64398  0.39402  0.22596  1.0000
  H   H1129     1.0  0.66020  0.37860  0.24954  1.0000
  H   H1130     1.0  0.67964  0.39903  0.21741  1.0000
  C   C636      1.0  0.61348  0.33690  0.21647  1.0000
  C   C637      1.0  0.68356  0.62336  0.25164  1.0000
  H   H1131     1.0  0.61592  0.42782  0.05348  1.0000
  C   C638      1.0  0.69217  0.61394  0.31960  1.0000
  C   C639      1.0  0.71095  0.33290  0.98736  1.0000
  C   C640      1.0  0.68660  0.59698  0.24598  1.0000
  H   H1132     1.0  0.84205  0.52921  0.20362  1.0000
  C   C641      1.0  0.75542  0.47419  0.22258  1.0000
  C   C642      1.0  0.78779  0.50478  0.16444  1.0000
  H   H1133     1.0  0.77945  0.48207  0.16429  1.0000
  C   C643      1.0  0.66867  0.58031  0.21887  1.0000
  H   H1134     1.0  0.70061  0.57904  0.31614  1.0000
  N   N36       1.0  0.79665  0.51701  0.19569  1.0000
  H   H1135     1.0  0.58187  0.32395  0.16613  1.0000
  N   N37       1.0  0.70535  0.64520  0.27279  1.0000
  H   H1136     1.0  0.66417  0.34129  0.14951  1.0000
  H   H1137     1.0  0.76895  0.50698  0.15653  1.0000
  H   H1138     1.0  0.74356  0.34018  0.13128  1.0000
  H   H1139     1.0  0.67163  0.64516  0.30106  1.0000
  H   H1140     1.0  0.70928  0.60169  0.24201  1.0000
  H   H1141     1.0  0.79256  0.34603  0.05590  1.0000
  H   H1142     1.0  0.67870  0.58319  0.26578  1.0000
  H   H1143     1.0  0.75824  0.34166  0.01616  1.0000
  H   H1144     1.0  0.71752  0.44262  0.24575  1.0000
  H   H1145     1.0  0.58861  0.43167  0.01050  1.0000
  C   C644      1.0  0.84097  0.47997  0.21915  1.0000
  C   C645      1.0  0.71580  0.63315  0.29690  1.0000
  H   H1146     1.0  0.57742  0.40993  0.06067  1.0000
  C   C646      1.0  0.82018  0.48494  0.19961  1.0000
  C   C647      1.0  0.83393  0.59552  0.21854  1.0000
  C   C648      1.0  0.72790  0.46519  0.24139  1.0000
  H   H1147     1.0  0.69242  0.40657  0.03458  1.0000
  H   H1148     1.0  0.67082  0.56137  0.21597  1.0000
  H   H1149     1.0  0.77882  0.32540  0.08924  1.0000
  H   H1150     1.0  0.67667  0.59269  0.19801  1.0000
  H   H1151     1.0  0.71203  0.46941  0.22940  1.0000
  H   H1152     1.0  0.64533  0.57393  0.22219  1.0000
  H   H1153     1.0  0.73327  0.47639  0.26335  1.0000
  H   H1154     1.0  0.72608  0.62166  0.28693  1.0000
  H   H1155     1.0  0.56698  0.39423  0.00825  1.0000
  C   C649      1.0  0.80812  0.54791  0.19336  1.0000
  H   H1156     1.0  0.74933  0.46132  0.20180  1.0000
  H   H1157     1.0  0.69028  0.62677  0.33803  1.0000
  C   C650      1.0  0.74551  0.32648  0.06167  1.0000
  H   H1158     1.0  0.61423  0.33412  0.24119  1.0000
  H   H1159     1.0  0.51988  0.32737  0.17087  1.0000
  H   H1160     1.0  0.60920  0.38917  0.99721  1.0000
  H   H1161     1.0  0.83034  0.64099  0.48403  1.0000
  H   H1162     1.0  0.48143  0.62448  0.23237  1.0000
  C   C651      1.0  0.73798  0.32688  0.02814  1.0000
  H   H1163     1.0  0.63378  0.42517  0.00229  1.0000
  H   H1164     1.0  0.68403  0.63272  0.22943  1.0000
  C   C652      1.0  0.61191  0.41010  0.99316  1.0000
  H   H1165     1.0  0.73616  0.64091  0.22045  1.0000
  H   H1166     1.0  0.68115  0.33819  0.07125  1.0000
  H   H1167     1.0  0.70659  0.38089  0.99867  1.0000
  Fe  Fe77      1.0  0.79337  0.64684  0.31515  1.0000
  H   H1168     1.0  0.48547  0.63893  0.18049  1.0000
  H   H1169     1.0  0.73352  0.65007  0.31029  1.0000
  Fe  Fe78      1.0  0.70785  0.49134  0.81419  1.0000
  S   S152      1.0  0.68360  0.47857  0.85871  1.0000
  S   S153      1.0  0.72641  0.53618  0.79648  1.0000
  Fe  Fe79      1.0  0.70894  0.43648  0.80880  1.0000
  S   S154      1.0  0.68561  0.41976  0.85205  1.0000
  S   S155      1.0  0.72550  0.41494  0.77700  1.0000
  Fe  Fe80      1.0  0.65655  0.43643  0.83741  1.0000
  S   S156      1.0  0.61038  0.40944  0.85381  1.0000
  Fe  Fe81      1.0  0.71361  0.46232  0.87128  1.0000
  S   S157      1.0  0.73275  0.46364  0.91736  1.0000
  S   S158      1.0  0.67768  0.45028  0.79186  1.0000
  S   S159      1.0  0.74000  0.47788  0.82892  1.0000
  H   H1170     1.0  0.63606  0.41621  0.92055  1.0000
  H   H1171     1.0  0.84633  0.59136  0.69456  1.0000
  S   S160      1.0  0.76552  0.60332  0.67197  1.0000
  H   H1172     1.0  0.71074  0.51949  0.73308  1.0000
  C   C653      1.0  0.80228  0.54535  0.80561  1.0000
  H   H1173     1.0  0.72229  0.48532  0.71824  1.0000
  C   C654      1.0  0.73018  0.38632  0.78658  1.0000
  C   C655      1.0  0.71856  0.37075  0.81276  1.0000
  C   C656      1.0  0.72329  0.34818  0.81905  1.0000
  H   H1174     1.0  0.62549  0.34672  0.72116  1.0000
  C   C657      1.0  0.63411  0.34503  0.79748  1.0000
  C   C658      1.0  0.74617  0.37903  0.76677  1.0000
  H   H1175     1.0  0.70644  0.37637  0.82836  1.0000
  H   H1176     1.0  0.71497  0.33664  0.83959  1.0000
  C   C659      1.0  0.65566  0.38271  0.74532  1.0000
  H   H1177     1.0  0.75519  0.39087  0.74652  1.0000
  C   C660      1.0  0.58621  0.37871  0.83456  1.0000
  C   C661      1.0  0.56642  0.35574  0.85119  1.0000
  H   H1178     1.0  0.64954  0.55570  0.76655  1.0000
  H   H1179     1.0  0.83787  0.56726  0.74425  1.0000
  C   C662      1.0  0.56415  0.35312  0.78852  1.0000
  C   C663      1.0  0.58515  0.37730  0.80313  1.0000
  H   H1180     1.0  0.56689  0.35689  0.87544  1.0000
  H   H1181     1.0  0.59625  0.47661  0.92471  1.0000
  H   H1182     1.0  0.56276  0.35238  0.76423  1.0000
  H   H1183     1.0  0.59992  0.39512  0.79014  1.0000
  C   C664      1.0  0.71785  0.46966  0.95056  1.0000
  H   H1184     1.0  0.69588  0.62424  0.62753  1.0000
  C   C665      1.0  0.81546  0.53020  0.78706  1.0000
  C   C666      1.0  0.65542  0.62558  0.71387  1.0000
  H   H1185     1.0  0.72126  0.45878  0.74248  1.0000
  C   C667      1.0  0.73811  0.55409  0.76143  1.0000
  C   C668      1.0  0.75827  0.58267  0.76166  1.0000
  C   C669      1.0  0.76734  0.59798  0.73467  1.0000
  C   C670      1.0  0.75590  0.58506  0.70692  1.0000
  C   C671      1.0  0.73577  0.55649  0.70672  1.0000
  C   C672      1.0  0.72693  0.54115  0.73368  1.0000
  H   H1186     1.0  0.76701  0.59305  0.78293  1.0000
  H   H1187     1.0  0.78317  0.61978  0.73536  1.0000
  H   H1188     1.0  0.72662  0.54617  0.68552  1.0000
  C   C673      1.0  0.65148  0.40312  0.72583  1.0000
  H   H1189     1.0  0.66340  0.36763  0.93533  1.0000
  H   H1190     1.0  0.83248  0.55707  0.84336  1.0000
  H   H1191     1.0  0.62435  0.48861  0.89646  1.0000
  H   H1192     1.0  0.67452  0.38125  0.73615  1.0000
  H   H1193     1.0  0.81972  0.46374  0.71480  1.0000
  H   H1194     1.0  0.79856  0.55635  0.85180  1.0000
  H   H1195     1.0  0.55189  0.40380  0.96652  1.0000
  H   H1196     1.0  0.78456  0.54248  0.70231  1.0000
  H   H1197     1.0  0.81925  0.50794  0.71587  1.0000
  H   H1198     1.0  0.76216  0.51627  0.75415  1.0000
  H   H1199     1.0  0.83956  0.54263  0.78933  1.0000
  C   C674      1.0  0.84919  0.34949  0.72654  1.0000
  H   H1200     1.0  0.77084  0.47017  0.72384  1.0000
  H   H1201     1.0  0.51085  0.37576  0.93268  1.0000
  H   H1202     1.0  0.83327  0.45434  0.74721  1.0000
  C   C675      1.0  0.80868  0.54574  0.83918  1.0000
  C   C676      1.0  0.62057  0.32516  0.82446  1.0000
  C   C677      1.0  0.76377  0.48608  0.72335  1.0000
  C   C678      1.0  0.74017  0.34160  0.79949  1.0000
  C   C679      1.0  0.63639  0.41398  0.94542  1.0000
  H   H1203     1.0  0.76495  0.35261  0.75846  1.0000
  H   H1204     1.0  0.60602  0.43888  0.90682  1.0000
  H   H1205     1.0  0.67435  0.60648  0.77550  1.0000
  C   C680      1.0  0.52932  0.37142  0.93393  1.0000
  C   C681      1.0  0.69310  0.59992  0.73358  1.0000
  H   H1206     1.0  0.85046  0.36947  0.73327  1.0000
  C   C682      1.0  0.70233  0.48422  0.95003  1.0000
  H   H1207     1.0  0.71308  0.64701  0.67665  1.0000
  H   H1208     1.0  0.67169  0.42341  0.72596  1.0000
  H   H1209     1.0  0.81537  0.58106  0.67021  1.0000
  C   C683      1.0  0.82727  0.32638  0.74655  1.0000
  N   N38       1.0  0.62760  0.33247  0.76607  1.0000
  H   H1210     1.0  0.87114  0.35152  0.72894  1.0000
  H   H1211     1.0  0.60907  0.35720  0.74970  1.0000
  H   H1212     1.0  0.80080  0.47281  0.76276  1.0000
  H   H1213     1.0  0.63533  0.63911  0.74849  1.0000
  H   H1214     1.0  0.77210  0.49785  0.70234  1.0000
  C   C684      1.0  0.82499  0.51333  0.73987  1.0000
  H   H1215     1.0  0.65710  0.43178  0.95337  1.0000
  H   H1216     1.0  0.81534  0.59441  0.70726  1.0000
  H   H1217     1.0  0.63413  0.49731  0.93547  1.0000
  C   C685      1.0  0.54590  0.33134  0.83658  1.0000
  C   C686      1.0  0.61877  0.48091  0.91986  1.0000
  H   H1218     1.0  0.72352  0.45583  0.70228  1.0000
  H   H1219     1.0  0.74787  0.63614  0.73668  1.0000
  C   C687      1.0  0.75156  0.35721  0.77343  1.0000
  H   H1220     1.0  0.66893  0.56483  0.80181  1.0000
  C   C688      1.0  0.63260  0.34034  0.85434  1.0000
  C   C689      1.0  0.83395  0.47205  0.73491  1.0000
  H   H1221     1.0  0.73089  0.34999  0.97701  1.0000
  H   H1222     1.0  0.79947  0.52435  0.84793  1.0000
  Fe  Fe82      1.0  0.79159  0.64816  0.65402  1.0000
  H   H1223     1.0  0.85668  0.48597  0.72763  1.0000
  C   C690      1.0  0.62792  0.35387  0.74490  1.0000
  H   H1224     1.0  0.59559  0.44503  0.96380  1.0000
  H   H1225     1.0  0.67247  0.34423  0.75675  1.0000
  H   H1226     1.0  0.70772  0.59116  0.72822  1.0000
  H   H1227     1.0  0.61757  0.36846  0.94693  1.0000
  C   C691      1.0  0.80837  0.55202  0.70606  1.0000
  H   H1228     1.0  0.80185  0.56129  0.75078  1.0000
  C   C692      1.0  0.82329  0.48755  0.75554  1.0000
  H   H1229     1.0  0.76719  0.49023  0.77116  1.0000
  C   C693      1.0  0.62119  0.45462  0.92301  1.0000
  C   C694      1.0  0.55664  0.39748  0.94445  1.0000
  H   H1230     1.0  0.65804  0.35725  0.80107  1.0000
  C   C695      1.0  0.81449  0.55219  0.74011  1.0000
  H   H1231     1.0  0.71049  0.32179  0.92574  1.0000
  H   H1232     1.0  0.80891  0.51036  0.79889  1.0000
  H   H1233     1.0  0.64653  0.39548  0.70221  1.0000
  H   H1234     1.0  0.81163  0.56727  0.79864  1.0000
  H   H1235     1.0  0.83727  0.49418  0.77594  1.0000
  H   H1236     1.0  0.69982  0.49261  0.92908  1.0000
  C   C696      1.0  0.73066  0.47062  0.72157  1.0000
  H   H1237     1.0  0.62615  0.36027  0.80020  1.0000
  H   H1238     1.0  0.84835  0.52955  0.73956  1.0000
  H   H1239     1.0  0.77845  0.53491  0.80266  1.0000
  N   N39       1.0  0.80688  0.52472  0.75419  1.0000
  H   H1240     1.0  0.66113  0.39170  0.76832  1.0000
  H   H1241     1.0  0.81705  0.54076  0.69253  1.0000
  H   H1242     1.0  0.64372  0.45994  0.91659  1.0000
  H   H1243     1.0  0.63357  0.40628  0.73484  1.0000
  C   C697      1.0  0.77461  0.50483  0.75196  1.0000
  C   C698      1.0  0.82225  0.58153  0.69391  1.0000
  C   C699      1.0  0.68763  0.59695  0.76801  1.0000
  H   H1244     1.0  0.61538  0.62781  0.71367  1.0000
  C   C700      1.0  0.67147  0.56646  0.77697  1.0000
  H   H1245     1.0  0.83434  0.33241  0.77020  1.0000
  H   H1246     1.0  0.68386  0.55585  0.76985  1.0000
  H   H1247     1.0  0.58715  0.38863  0.92188  1.0000
  H   H1248     1.0  0.68523  0.64521  0.75115  1.0000
  H   H1249     1.0  0.64379  0.60390  0.72177  1.0000
  H   H1250     1.0  0.89609  0.64883  0.55153  1.0000
  H   H1251     1.0  0.73406  0.44874  0.97885  1.0000
  H   H1252     1.0  0.70854  0.60674  0.78049  1.0000
  H   H1253     1.0  0.69287  0.33680  0.98096  1.0000
  C   C701      1.0  0.54461  0.33002  0.80516  1.0000
  H   H1254     1.0  0.67218  0.58566  0.72254  1.0000
  H   H1255     1.0  0.63280  0.45872  0.96999  1.0000
  N   N40       1.0  0.61080  0.41489  0.95990  1.0000
  H   H1256     1.0  0.85869  0.64179  0.55008  1.0000
  C   C702      1.0  0.69206  0.60229  0.66936  1.0000
  H   H1257     1.0  0.65457  0.38482  0.90630  1.0000
  C   C703      1.0  0.63749  0.63931  0.72360  1.0000
  H   H1258     1.0  0.84234  0.34522  0.70259  1.0000
  H   H1259     1.0  0.80609  0.32581  0.74414  1.0000
  H   H1260     1.0  0.65611  0.62587  0.68894  1.0000
  H   H1261     1.0  0.72076  0.61047  0.63084  1.0000
  H   H1262     1.0  0.53269  0.36492  0.91117  1.0000
  H   H1263     1.0  0.56072  0.41409  0.92820  1.0000
  C   C704      1.0  0.68662  0.64158  0.72668  1.0000
  C   C705      1.0  0.72163  0.45958  0.97814  1.0000
  C   C706      1.0  0.61472  0.44358  0.95565  1.0000
  H   H1264     1.0  0.64581  0.38733  0.97439  1.0000
  H   H1265     1.0  0.69561  0.58483  0.67608  1.0000
  C   C707      1.0  0.58318  0.39245  0.94572  1.0000
  C   C708      1.0  0.66127  0.38617  0.93017  1.0000
  H   H1266     1.0  0.73044  0.64891  0.76160  1.0000
  C   C709      1.0  0.69837  0.60657  0.63568  1.0000
  C   C710      1.0  0.63870  0.38741  0.95092  1.0000
  H   H1267     1.0  0.65647  0.34848  0.85554  1.0000
  H   H1268     1.0  0.62793  0.35783  0.85689  1.0000
  H   H1269     1.0  0.68285  0.40492  0.93332  1.0000
  H   H1270     1.0  0.67835  0.49951  0.97615  1.0000
  N   N41       1.0  0.70594  0.62888  0.72115  1.0000
  H   H1271     1.0  0.68296  0.58761  0.62311  1.0000
  C   C711      1.0  0.73433  0.64655  0.73739  1.0000
  C   C712      1.0  0.69015  0.48806  0.97672  1.0000
  H   H1272     1.0  0.66882  0.59580  0.67281  1.0000
  H   H1273     1.0  0.57616  0.37249  0.95743  1.0000
  H   H1274     1.0  0.87677  0.64707  0.58578  1.0000
  C   C713      1.0  0.71237  0.62876  0.68788  1.0000
  H   H1275     1.0  0.73444  0.63120  0.68456  1.0000
  H   H1276     1.0  0.52347  0.35420  0.94994  1.0000
  H   H1277     1.0  0.81145  0.32260  0.82426  1.0000
  H   H1278     1.0  0.62223  0.32587  0.87326  1.0000
  H   H1279     1.0  0.55804  0.33370  0.92395  1.0000
  C   C714      1.0  0.65061  0.32550  0.75583  1.0000
  H   H1280     1.0  0.64727  0.31889  0.73176  1.0000
  S   S161      1.0  0.80522  0.68940  0.29798  1.0000
  S   S162      1.0  0.82863  0.65767  0.42355  1.0000
  S   S163      1.0  0.83295  0.71432  0.36540  1.0000
  H   H1281     1.0  0.83494  0.93636  0.33828  1.0000
  Fe  Fe83      1.0  0.78928  0.69681  0.34246  1.0000
  S   S164      1.0  0.75900  0.71441  0.35436  1.0000
  Fe  Fe84      1.0  0.84813  0.70383  0.32228  1.0000
  S   S165      1.0  0.89112  0.73388  0.29999  1.0000
  C   C715      1.0  0.67564  0.74300  0.42554  1.0000
  Fe  Fe85      1.0  0.62365  0.80735  0.30217  1.0000
  S   S166      1.0  0.66892  0.82710  0.28244  1.0000
  S   S167      1.0  0.58021  0.79747  0.27927  1.0000
  Fe  Fe86      1.0  0.64623  0.80483  0.36548  1.0000
  S   S168      1.0  0.69238  0.82392  0.34993  1.0000
  S   S169      1.0  0.63316  0.78761  0.41299  1.0000
  Fe  Fe87      1.0  0.68352  0.85401  0.32424  1.0000
  S   S170      1.0  0.72294  0.89781  0.32582  1.0000
  Fe  Fe88      1.0  0.67517  0.79600  0.30953  1.0000
  S   S171      1.0  0.69915  0.77525  0.28735  1.0000
  S   S172      1.0  0.63803  0.83661  0.34275  1.0000
  S   S173      1.0  0.62908  0.77450  0.32647  1.0000
  C   C716      1.0  0.88750  0.71790  0.46706  1.0000
  C   C717      1.0  0.52941  0.75769  0.19070  1.0000
  C   C718      1.0  0.55771  0.76161  0.19483  1.0000
  C   C719      1.0  0.57370  0.77392  0.22145  1.0000
  C   C720      1.0  0.56163  0.78257  0.24453  1.0000
  C   C721      1.0  0.53343  0.77891  0.24026  1.0000
  C   C722      1.0  0.51746  0.76664  0.21362  1.0000
  H   H1282     1.0  0.56735  0.75493  0.17734  1.0000
  H   H1283     1.0  0.59533  0.77661  0.22417  1.0000
  H   H1284     1.0  0.52384  0.78563  0.25776  1.0000
  H   H1285     1.0  0.49218  0.68862  0.05186  1.0000
  C   C723      1.0  0.72473  0.93081  0.32408  1.0000
  C   C724      1.0  0.75184  0.95495  0.32762  1.0000
  H   H1286     1.0  0.72706  0.94775  0.42736  1.0000
  C   C725      1.0  0.70219  0.96013  0.32091  1.0000
  H   H1287     1.0  0.68279  0.96198  0.31828  1.0000
  C   C726      1.0  0.69996  0.93361  0.32028  1.0000
  H   H1288     1.0  0.77122  0.95309  0.33025  1.0000
  C   C727      1.0  0.61250  0.89337  0.36630  1.0000
  H   H1289     1.0  0.76058  0.92749  0.42292  1.0000
  H   H1290     1.0  0.67903  0.91533  0.31708  1.0000
  C   C728      1.0  0.74303  0.73158  0.33496  1.0000
  C   C729      1.0  0.74660  0.73660  0.30403  1.0000
  C   C730      1.0  0.73304  0.75002  0.28979  1.0000
  C   C731      1.0  0.71585  0.75858  0.30628  1.0000
  C   C732      1.0  0.71248  0.75376  0.33720  1.0000
  C   C733      1.0  0.72597  0.74029  0.35141  1.0000
  H   H1291     1.0  0.75984  0.73023  0.29114  1.0000
  H   H1292     1.0  0.73583  0.75376  0.26585  1.0000
  H   H1293     1.0  0.69923  0.76015  0.35006  1.0000
  H   H1294     1.0  0.72301  0.73643  0.37533  1.0000
  H   H1295     1.0  0.75588  0.92894  0.38280  1.0000
  C   C734      1.0  0.95057  0.76681  0.30379  1.0000
  C   C735      1.0  0.92521  0.74716  0.31847  1.0000
  C   C736      1.0  0.92761  0.73856  0.34730  1.0000
  H   H1296     1.0  0.51367  0.69856  0.19940  1.0000
  H   H1297     1.0  0.94888  0.77371  0.28158  1.0000
  H   H1298     1.0  0.90831  0.72342  0.35880  1.0000
  H   H1299     1.0  0.73142  0.85909  0.25257  1.0000
  H   H1300     1.0  0.95667  0.74243  0.38337  1.0000
  C   C737      1.0  0.64394  0.80664  0.44727  1.0000
  C   C738      1.0  0.66522  0.83454  0.44823  1.0000
  H   H1301     1.0  0.48789  0.71469  0.03228  1.0000
  H   H1302     1.0  0.67532  0.84493  0.42753  1.0000
  H   H1303     1.0  0.93883  0.70130  0.24895  1.0000
  C   C739      1.0  0.75303  0.84910  0.28778  1.0000
  C   C740      1.0  0.68169  0.67681  0.26817  1.0000
  H   H1304     1.0  0.84164  0.91496  0.36379  1.0000
  H   H1305     1.0  0.66195  0.88819  0.44172  1.0000
  H   H1306     1.0  0.86958  0.72267  0.47102  1.0000
  H   H1307     1.0  0.55603  0.68715  0.24795  1.0000
  C   C741      1.0  0.74710  0.85117  0.25457  1.0000
  C   C742      1.0  0.50635  0.68466  0.21932  1.0000
  H   H1308     1.0  0.73747  0.83042  0.24356  1.0000
  H   H1309     1.0  0.78879  0.69670  0.23738  1.0000
  Fe  Fe89      1.0  0.81920  0.67046  0.37822  1.0000
  N   N42       1.0  0.68074  0.92769  0.41890  1.0000
  C   C743      1.0  0.68225  0.95541  0.42431  1.0000
  C   C744      1.0  0.65013  0.91418  0.46876  1.0000
  C   C745      1.0  0.81578  0.66444  0.45773  1.0000
  H   H1310     1.0  0.85676  0.92111  0.32610  1.0000
  C   C746      1.0  0.73125  0.66660  0.25560  1.0000
  H   H1311     1.0  0.69475  0.78379  0.44451  1.0000
  H   H1312     1.0  0.61761  0.88970  0.41340  1.0000
  H   H1313     1.0  0.67332  0.72229  0.43007  1.0000
  H   H1314     1.0  0.64178  0.66796  0.29202  1.0000
  H   H1315     1.0  0.94050  0.66957  0.24608  1.0000
  H   H1316     1.0  0.76053  0.86964  0.29831  1.0000
  H   H1317     1.0  0.51498  0.69256  0.26833  1.0000
  N   N43       1.0  0.78638  0.83872  0.32298  1.0000
  C   C747      1.0  0.76302  0.83282  0.34609  1.0000
  C   C748      1.0  0.77467  0.83775  0.29169  1.0000
  C   C749      1.0  0.79463  0.81609  0.32523  1.0000
  C   C750      1.0  0.81341  0.86602  0.32900  1.0000
  C   C751      1.0  0.81013  0.89237  0.32833  1.0000
  C   C752      1.0  0.77069  0.83037  0.37918  1.0000
  C   C753      1.0  0.81250  0.81351  0.29862  1.0000
  H   H1318     1.0  0.69716  0.96628  0.44349  1.0000
  H   H1319     1.0  0.61450  0.77163  0.47378  1.0000
  C   C754      1.0  0.83763  0.91767  0.33987  1.0000
  C   C755      1.0  0.74543  0.82479  0.40030  1.0000
  C   C756      1.0  0.82457  0.79415  0.30644  1.0000
  H   H1320     1.0  0.74316  0.81307  0.34005  1.0000
  H   H1321     1.0  0.75610  0.84882  0.34587  1.0000
  H   H1322     1.0  0.79292  0.84855  0.27552  1.0000
  H   H1323     1.0  0.76229  0.81588  0.28352  1.0000
  H   H1324     1.0  0.77480  0.79548  0.32732  1.0000
  H   H1325     1.0  0.80741  0.81881  0.34608  1.0000
  H   H1326     1.0  0.82321  0.86554  0.35093  1.0000
  H   H1327     1.0  0.83046  0.86953  0.31212  1.0000
  H   H1328     1.0  0.79182  0.89040  0.34244  1.0000
  H   H1329     1.0  0.80692  0.89683  0.30479  1.0000
  H   H1330     1.0  0.77524  0.81289  0.38175  1.0000
  H   H1331     1.0  0.78985  0.84980  0.38691  1.0000
  H   H1332     1.0  0.83112  0.83378  0.29249  1.0000
  H   H1333     1.0  0.79852  0.80475  0.27841  1.0000
  C   C757      1.0  0.95074  0.69138  0.23843  1.0000
  S   S174      1.0  0.83725  0.66090  0.33639  1.0000
  H   H1334     1.0  0.88082  0.71677  0.41882  1.0000
  H   H1335     1.0  0.87848  0.69513  0.46761  1.0000
  H   H1336     1.0  0.51291  0.66883  0.21413  1.0000
  C   C758      1.0  0.66273  0.68612  0.28551  1.0000
  C   C759      1.0  0.95507  0.74940  0.36118  1.0000
  C   C760      1.0  0.74736  0.91587  0.40309  1.0000
  H   H1337     1.0  0.72576  0.80515  0.39383  1.0000
  H   H1338     1.0  0.75132  0.82282  0.42375  1.0000
  H   H1339     1.0  0.74033  0.84206  0.39961  1.0000
  H   H1340     1.0  0.83580  0.79137  0.28656  1.0000
  H   H1341     1.0  0.84047  0.80297  0.32518  1.0000
  H   H1342     1.0  0.80683  0.77348  0.31316  1.0000
  H   H1343     1.0  0.66105  0.93512  0.47939  1.0000
  H   H1344     1.0  0.63062  0.91169  0.45683  1.0000
  C   C761      1.0  0.74951  0.65613  0.23801  1.0000
  C   C762      1.0  0.77479  0.67984  0.22152  1.0000
  C   C763      1.0  0.80250  0.68103  0.45874  1.0000
  H   H1345     1.0  0.52600  0.72288  0.24633  1.0000
  H   H1346     1.0  0.70635  0.67478  0.30595  1.0000
  H   H1347     1.0  0.70843  0.89479  0.42873  1.0000
  H   H1348     1.0  0.94863  0.69135  0.21358  1.0000
  C   C764      1.0  0.49914  0.70213  0.03176  1.0000
  H   H1349     1.0  0.74957  0.89704  0.39959  1.0000
  C   C765      1.0  0.89891  0.72736  0.43521  1.0000
  H   H1350     1.0  0.79896  0.68918  0.43811  1.0000
  H   H1351     1.0  0.90777  0.75006  0.43303  1.0000
  H   H1352     1.0  0.76652  0.68845  0.20403  1.0000
  H   H1353     1.0  0.91603  0.72188  0.42933  1.0000
  H   H1354     1.0  0.49591  0.76412  0.21088  1.0000
  C   C766      1.0  0.52473  0.70226  0.24653  1.0000
  C   C767      1.0  0.69133  0.66012  0.28856  1.0000
  H   H1355     1.0  0.68771  0.75071  0.40413  1.0000
  C   C768      1.0  0.82022  0.65397  0.48471  1.0000
  S   S175      1.0  0.50981  0.74060  0.15706  1.0000
  H   H1356     1.0  0.73191  0.83480  0.29832  1.0000
  C   C769      1.0  0.67539  0.75408  0.48124  1.0000
  H   H1357     1.0  0.65374  0.74106  0.42277  1.0000
  H   H1358     1.0  0.52297  0.71619  0.03315  1.0000
  H   H1359     1.0  0.62715  0.92425  0.40102  1.0000
  C   C770      1.0  0.49131  0.68427  0.00318  1.0000
  H   H1360     1.0  0.56618  0.71646  0.22346  1.0000
  C   C771      1.0  0.69216  0.76333  0.45101  1.0000
  H   H1361     1.0  0.70286  0.89401  0.38886  1.0000
  C   C772      1.0  0.55582  0.70700  0.24522  1.0000
  H   H1362     1.0  0.67409  0.69791  0.30611  1.0000
  H   H1363     1.0  0.65992  0.89150  0.38982  1.0000
  H   H1364     1.0  0.61251  0.87379  0.36035  1.0000
  H   H1365     1.0  0.76745  0.86568  0.24279  1.0000
  H   H1366     1.0  0.74737  0.97112  0.48224  1.0000
  H   H1367     1.0  0.66612  0.73134  0.48306  1.0000
  H   H1368     1.0  0.50330  0.67245  0.00373  1.0000
  C   C773      1.0  0.62886  0.90546  0.39578  1.0000
  H   H1369     1.0  0.71772  0.94362  0.38847  1.0000
  H   H1370     1.0  0.66971  0.92296  0.37169  1.0000
  H   H1371     1.0  0.58957  0.88873  0.36875  1.0000
  C   C774      1.0  0.71101  0.93322  0.41067  1.0000
  H   H1372     1.0  0.62260  0.90833  0.34766  1.0000
  C   C775      1.0  0.66083  0.91190  0.39311  1.0000
  H   H1373     1.0  0.56884  0.72141  0.26366  1.0000
  C   C776      1.0  0.71538  0.90739  0.40810  1.0000
  H   H1374     1.0  0.66086  0.95289  0.43128  1.0000
  C   C777      1.0  0.67158  0.91067  0.44738  1.0000
  C   C778      1.0  0.69240  0.97566  0.39741  1.0000
  H   H1375     1.0  0.70092  0.69585  0.26002  1.0000
  H   H1376     1.0  0.65808  0.69987  0.27120  1.0000
  H   H1377     1.0  0.69089  0.91578  0.46174  1.0000
  H   H1378     1.0  0.71410  0.76531  0.45280  1.0000
  H   H1379     1.0  0.68991  0.87039  0.47666  1.0000
  H   H1380     1.0  0.67805  0.96623  0.37763  1.0000
  S   S176      1.0  0.77472  0.65348  0.35841  1.0000
  H   H1381     1.0  0.72427  0.67661  0.23844  1.0000
  H   H1382     1.0  0.74616  0.68343  0.27123  1.0000
  H   H1383     1.0  0.71125  0.73036  0.48307  1.0000
  H   H1384     1.0  0.66917  0.66432  0.24842  1.0000
  C   C779      1.0  0.67337  0.84886  0.47600  1.0000
  H   H1385     1.0  0.78829  0.67196  0.21033  1.0000
  C   C780      1.0  0.63112  0.79319  0.47435  1.0000
  H   H1386     1.0  0.71510  0.98183  0.39090  1.0000
  C   C781      1.0  0.75411  0.98151  0.32801  1.0000
  H   H1387     1.0  0.62888  0.87159  0.48501  1.0000
  H   H1388     1.0  0.65607  0.75715  0.47898  1.0000
  H   H1389     1.0  0.92899  0.72659  0.48413  1.0000
  C   C782      1.0  0.97801  0.77781  0.31779  1.0000
  H   H1390     1.0  0.96231  0.83379  0.48401  1.0000
  Fe  Fe90      1.0  0.80206  0.68156  0.59495  1.0000
  S   S177      1.0  0.83404  0.72173  0.61695  1.0000
  S   S178      1.0  0.78908  0.68692  0.54789  1.0000
  S   S179      1.0  0.82269  0.68664  0.67955  1.0000
  Fe  Fe91      1.0  0.80177  0.70813  0.65487  1.0000
  S   S180      1.0  0.78917  0.73795  0.67788  1.0000
  Fe  Fe92      1.0  0.85217  0.69709  0.63897  1.0000
  S   S181      1.0  0.90000  0.70797  0.64146  1.0000
  H   H1391     1.0  0.93496  0.76572  0.53887  1.0000
  Fe  Fe93      1.0  0.70213  0.86758  0.64247  1.0000
  S   S182      1.0  0.65938  0.85986  0.62420  1.0000
  S   S183      1.0  0.73788  0.91002  0.65841  1.0000
  Fe  Fe94      1.0  0.68997  0.80825  0.62593  1.0000
  S   S184      1.0  0.64591  0.79718  0.60636  1.0000
  S   S185      1.0  0.70589  0.77702  0.61533  1.0000
  Fe  Fe95      1.0  0.66859  0.83917  0.58488  1.0000
  S   S186      1.0  0.67091  0.85490  0.53704  1.0000
  Fe  Fe96      1.0  0.64027  0.81848  0.64777  1.0000
  S   S187      1.0  0.59739  0.80764  0.67273  1.0000
  S   S188      1.0  0.71249  0.84909  0.60228  1.0000
  S   S189      1.0  0.68325  0.82742  0.66846  1.0000
  H   H1392     1.0  0.86278  0.78363  0.59788  1.0000
  C   C783      1.0  0.57474  0.78693  0.70300  1.0000
  C   C784      1.0  0.55056  0.78985  0.71177  1.0000
  C   C785      1.0  0.53217  0.77429  0.73570  1.0000
  C   C786      1.0  0.53759  0.75539  0.75134  1.0000
  C   C787      1.0  0.56182  0.75254  0.74261  1.0000
  C   C788      1.0  0.58017  0.76807  0.71865  1.0000
  H   H1393     1.0  0.54586  0.80415  0.69981  1.0000
  H   H1394     1.0  0.51368  0.77677  0.74190  1.0000
  H   H1395     1.0  0.59828  0.76513  0.71207  1.0000
  C   C789      1.0  0.66046  0.83546  0.50305  1.0000
  C   C790      1.0  0.63930  0.80751  0.50214  1.0000
  C   C791      1.0  0.51541  0.67500  0.94256  1.0000
  H   H1396     1.0  0.62889  0.79708  0.52274  1.0000
  H   H1397     1.0  0.85636  0.76032  0.71198  1.0000
  C   C792      1.0  0.79877  0.67711  0.51354  1.0000
  H   H1398     1.0  0.89683  0.77299  0.54128  1.0000
  H   H1399     1.0  0.72744  0.85654  0.50809  1.0000
  C   C793      1.0  0.93341  0.73964  0.63993  1.0000
  C   C794      1.0  0.95937  0.73943  0.64673  1.0000
  H   H1400     1.0  0.89488  0.71867  0.71282  1.0000
  C   C795      1.0  0.96189  0.78942  0.63201  1.0000
  C   C796      1.0  0.93487  0.76473  0.63202  1.0000
  H   H1401     1.0  0.95856  0.72014  0.65269  1.0000
  H   H1402     1.0  0.91521  0.76510  0.62610  1.0000
  C   C797      1.0  0.76641  0.74911  0.66013  1.0000
  C   C798      1.0  0.75385  0.73878  0.63195  1.0000
  C   C799      1.0  0.73549  0.74764  0.61878  1.0000
  C   C800      1.0  0.72959  0.76713  0.63333  1.0000
  C   C801      1.0  0.74237  0.77769  0.66140  1.0000
  C   C802      1.0  0.76059  0.76864  0.67474  1.0000
  H   H1403     1.0  0.75805  0.72375  0.62037  1.0000
  H   H1404     1.0  0.72562  0.73920  0.59719  1.0000
  H   H1405     1.0  0.73802  0.79263  0.67293  1.0000
  H   H1406     1.0  0.77005  0.77671  0.69657  1.0000
  C   C803      1.0  0.73906  0.94250  0.65372  1.0000
  C   C804      1.0  0.71376  0.94480  0.65300  1.0000
  H   H1407     1.0  0.83542  0.74313  0.51391  1.0000
  H   H1408     1.0  0.61634  0.73425  0.56039  1.0000
  H   H1409     1.0  0.51327  0.66530  0.91998  1.0000
  C   C805      1.0  0.76617  0.96687  0.65325  1.0000
  H   H1410     1.0  0.69276  0.92628  0.65344  1.0000
  H   H1411     1.0  0.77685  0.69360  0.76759  1.0000
  H   H1412     1.0  0.88002  0.77569  0.64803  1.0000
  H   H1413     1.0  0.78589  0.96536  0.65406  1.0000
  H   H1414     1.0  0.51548  0.74852  0.93934  1.0000
  C   C806      1.0  0.71563  0.97117  0.65326  1.0000
  H   H1415     1.0  0.73448  0.72790  0.54567  1.0000
  C   C807      1.0  0.97097  0.84080  0.70169  1.0000
  H   H1416     1.0  0.96547  0.74723  0.51588  1.0000
  H   H1417     1.0  0.69593  0.97269  0.65387  1.0000
  C   C808      1.0  0.81181  0.66030  0.51256  1.0000
  H   H1418     1.0  0.74216  0.68882  0.72746  1.0000
  C   C809      1.0  0.71089  0.73256  0.50789  1.0000
  C   C810      1.0  0.73456  0.72716  0.52070  1.0000
  C   C811      1.0  0.74019  0.84908  0.52110  1.0000
  H   H1419     1.0  0.84335  0.74978  0.55354  1.0000
  C   C812      1.0  0.73038  0.94550  0.73626  1.0000
  H   H1420     1.0  0.83434  0.78434  0.72365  1.0000
  C   C813      1.0  0.71111  0.92009  0.57328  1.0000
  H   H1421     1.0  0.91066  0.69545  0.57384  1.0000
  H   H1422     1.0  0.75952  0.67629  0.70156  1.0000
  H   H1423     1.0  0.72309  0.91180  0.55988  1.0000
  C   C814      1.0  0.53267  0.75421  0.89450  1.0000
  H   H1424     1.0  0.74397  0.95441  0.53007  1.0000
  C   C815      1.0  0.73415  0.96478  0.54369  1.0000
  H   H1425     1.0  0.74895  0.95732  0.58723  1.0000
  H   H1426     1.0  0.68966  0.71605  0.51599  1.0000
  H   H1427     1.0  0.54458  0.74091  0.93448  1.0000
  H   H1428     1.0  0.79536  0.71259  0.73448  1.0000
  H   H1429     1.0  0.71543  0.95858  0.58920  1.0000
  H   H1430     1.0  0.68947  0.91318  0.56294  1.0000
  H   H1431     1.0  0.97363  0.75456  0.58413  1.0000
  H   H1432     1.0  0.92247  0.75497  0.48742  1.0000
  H   H1433     1.0  0.56162  0.66638  0.92696  1.0000
  H   H1434     1.0  0.86450  0.72104  0.72849  1.0000
  H   H1435     1.0  0.92221  0.74043  0.56722  1.0000
  N   N44       1.0  0.65348  0.87930  0.73411  1.0000
  C   C816      1.0  0.64696  0.84971  0.72956  1.0000
  C   C817      1.0  0.63915  0.88660  0.70911  1.0000
  C   C818      1.0  0.68598  0.89768  0.73085  1.0000
  C   C819      1.0  0.64410  0.88434  0.76471  1.0000
  C   C820      1.0  0.61676  0.85984  0.77901  1.0000
  C   C821      1.0  0.66451  0.84030  0.74967  1.0000
  C   C822      1.0  0.69734  0.92942  0.73260  1.0000
  C   C823      1.0  0.60552  0.87132  0.70880  1.0000
  C   C824      1.0  0.59393  0.87609  0.67929  1.0000
  C   C825      1.0  0.60733  0.86913  0.80745  1.0000
  C   C826      1.0  0.65040  0.80877  0.75077  1.0000
  C   C827      1.0  0.89520  0.69493  0.52754  1.0000
  H   H1436     1.0  0.65129  0.84628  0.70580  1.0000
  H   H1437     1.0  0.62353  0.83495  0.73263  1.0000
  H   H1438     1.0  0.64543  0.90889  0.71001  1.0000
  H   H1439     1.0  0.64691  0.88317  0.68685  1.0000
  H   H1440     1.0  0.69366  0.89323  0.70908  1.0000
  H   H1441     1.0  0.69769  0.89314  0.74876  1.0000
  H   H1442     1.0  0.66188  0.89025  0.78147  1.0000
  H   H1443     1.0  0.64028  0.90245  0.76378  1.0000
  H   H1444     1.0  0.62141  0.84306  0.78554  1.0000
  H   H1445     1.0  0.59798  0.85065  0.76351  1.0000
  H   H1446     1.0  0.68676  0.84823  0.74033  1.0000
  H   H1447     1.0  0.66657  0.84833  0.77303  1.0000
  H   H1448     1.0  0.68764  0.93502  0.75181  1.0000
  H   H1449     1.0  0.69210  0.93671  0.71161  1.0000
  H   H1450     1.0  0.59615  0.84874  0.71127  1.0000
  H   H1451     1.0  0.59734  0.87927  0.72739  1.0000
  H   H1452     1.0  0.60215  0.89854  0.67566  1.0000
  H   H1453     1.0  0.60054  0.86734  0.66006  1.0000
  H   H1454     1.0  0.56980  0.86540  0.67999  1.0000
  H   H1455     1.0  0.60105  0.88509  0.80203  1.0000
  H   H1456     1.0  0.58819  0.85109  0.81747  1.0000
  H   H1457     1.0  0.62513  0.87764  0.82434  1.0000
  H   H1458     1.0  0.62853  0.79980  0.76130  1.0000
  H   H1459     1.0  0.64829  0.80002  0.72772  1.0000
  H   H1460     1.0  0.66405  0.80275  0.76433  1.0000
  C   C828      1.0  0.95671  0.74144  0.53896  1.0000
  C   C829      1.0  0.85182  0.75710  0.53057  1.0000
  H   H1461     1.0  0.85478  0.77826  0.52786  1.0000
  H   H1462     1.0  0.86313  0.82204  0.64859  1.0000
  C   C830      1.0  0.93908  0.82486  0.71128  1.0000
  C   C831      1.0  0.85389  0.79550  0.61012  1.0000
  H   H1463     1.0  0.85444  0.81152  0.59486  1.0000
  H   H1464     1.0  0.88104  0.74371  0.67773  1.0000
  H   H1465     1.0  0.96280  0.80881  0.62638  1.0000
  C   C832      1.0  0.89237  0.75485  0.69859  1.0000
  H   H1466     1.0  0.84316  0.84292  0.71341  1.0000
  C   C833      1.0  0.70654  0.79975  0.50317  1.0000
  C   C834      1.0  0.88779  0.73317  0.72216  1.0000
  H   H1467     1.0  0.54849  0.77634  0.89890  1.0000
  N   N45       1.0  0.69257  0.76899  0.50899  1.0000
  H   H1468     1.0  0.74908  0.86249  0.54139  1.0000
  C   C835      1.0  0.88026  0.77399  0.70967  1.0000
  C   C836      1.0  0.84321  0.80352  0.71017  1.0000
  H   H1469     1.0  0.93642  0.80698  0.72469  1.0000
  H   H1470     1.0  0.84781  0.77185  0.66432  1.0000
  H   H1471     1.0  0.88818  0.78109  0.73300  1.0000
  H   H1472     1.0  0.83084  0.78127  0.61627  1.0000
  H   H1473     1.0  0.92603  0.80429  0.66774  1.0000
  H   H1474     1.0  0.97530  0.85940  0.68854  1.0000
  H   H1475     1.0  0.83168  0.79839  0.68827  1.0000
  H   H1476     1.0  0.88766  0.76436  0.50216  1.0000
  H   H1477     1.0  0.92326  0.83468  0.67138  1.0000
  C   C837      1.0  0.88074  0.75745  0.52553  1.0000
  H   H1478     1.0  0.88457  0.83646  0.69410  1.0000
  H   H1479     1.0  0.88637  0.82204  0.72872  1.0000
  H   H1480     1.0  0.85781  0.71275  0.51956  1.0000
  H   H1481     1.0  0.91174  0.69029  0.51739  1.0000
  C   C838      1.0  0.83574  0.82368  0.72661  1.0000
  H   H1482     1.0  0.87478  0.68126  0.51517  1.0000
  H   H1483     1.0  0.91600  0.76650  0.69391  1.0000
  C   C839      1.0  0.72832  0.95165  0.57534  1.0000
  H   H1484     1.0  0.97030  0.85366  0.53624  1.0000
  H   H1485     1.0  0.64260  0.71800  0.52558  1.0000
  H   H1486     1.0  0.62465  0.89587  0.50904  1.0000
  H   H1487     1.0  0.69544  0.98181  0.55885  1.0000
  N   N46       1.0  0.49579  0.68773  0.94482  1.0000
  C   C840      1.0  0.87195  0.80933  0.63825  1.0000
  H   H1488     1.0  0.81180  0.81393  0.72947  1.0000
  C   C841      1.0  0.71623  0.76198  0.51668  1.0000
  H   H1489     1.0  0.64308  0.74052  0.58925  1.0000
  H   H1490     1.0  0.54274  0.74554  0.87879  1.0000
  H   H1491     1.0  0.61995  0.70589  0.57540  1.0000
  C   C842      1.0  0.56498  0.67857  0.94805  1.0000
  H   H1492     1.0  0.56626  0.73795  0.75432  1.0000
  C   C843      1.0  0.67172  0.76257  0.53499  1.0000
  H   H1493     1.0  0.73060  0.70627  0.51355  1.0000
  C   C844      1.0  0.63210  0.72801  0.56887  1.0000
  H   H1494     1.0  0.66950  0.72546  0.55468  1.0000
  C   C845      1.0  0.72079  0.81909  0.53070  1.0000
  H   H1495     1.0  0.89459  0.82333  0.63090  1.0000
  H   H1496     1.0  0.73812  0.96809  0.73483  1.0000
  H   H1497     1.0  0.93465  0.83869  0.72606  1.0000
  H   H1498     1.0  0.68341  0.77397  0.55564  1.0000
  H   H1499     1.0  0.65589  0.76990  0.52994  1.0000
  H   H1500     1.0  0.84598  0.82900  0.74923  1.0000
  C   C846      1.0  0.65449  0.73192  0.54467  1.0000
  S   S190      1.0  0.51513  0.73489  0.78183  1.0000
  H   H1501     1.0  0.72102  0.76504  0.54129  1.0000
  H   H1502     1.0  0.73411  0.81246  0.54396  1.0000
  H   H1503     1.0  0.70358  0.81881  0.54547  1.0000
  H   H1504     1.0  0.90087  0.74329  0.74261  1.0000
  H   H1505     1.0  0.71282  0.95846  0.53280  1.0000
  H   H1506     1.0  0.75634  0.74272  0.51238  1.0000
  H   H1507     1.0  0.95262  0.72011  0.54326  1.0000
  C   C847      1.0  0.75349  0.67642  0.72548  1.0000
  N   N47       1.0  0.88663  0.79830  0.68985  1.0000
  C   C848      1.0  0.91872  0.81545  0.68345  1.0000
  C   C849      1.0  0.87092  0.78734  0.66038  1.0000
  C   C850      1.0  0.87658  0.81636  0.70585  1.0000
  N   N48       1.0  0.90343  0.72491  0.52316  1.0000
  H   H1508     1.0  0.95802  0.80198  0.49876  1.0000
  H   H1509     1.0  0.79415  0.68012  0.74227  1.0000
  C   C851      1.0  0.78165  0.69151  0.74364  1.0000
  H   H1510     1.0  0.70778  0.91129  0.59619  1.0000
  H   H1511     1.0  0.73687  0.94114  0.75841  1.0000
  H   H1512     1.0  0.93570  0.82280  0.53161  1.0000
  H   H1513     1.0  0.87359  0.68832  0.57186  1.0000
  S   S191      1.0  0.76888  0.66922  0.63202  1.0000
  C   C852      1.0  0.92865  0.74373  0.54304  1.0000
  H   H1514     1.0  0.48096  0.70821  0.91372  1.0000
  H   H1515     1.0  0.74117  0.93980  0.71816  1.0000
  H   H1516     1.0  0.73713  0.77660  0.50568  1.0000
  C   C853      1.0  0.91211  0.73224  0.49068  1.0000
  C   C854      1.0  0.87760  0.72849  0.53137  1.0000
  H   H1517     1.0  0.48457  0.71201  0.97473  1.0000
  H   H1518     1.0  0.87237  0.72447  0.55569  1.0000
  H   H1519     1.0  0.50695  0.69987  0.89824  1.0000
  H   H1520     1.0  0.75862  0.85092  0.50720  1.0000
  S   S192      1.0  0.82211  0.65736  0.61439  1.0000
  C   C855      1.0  0.52441  0.73838  0.92412  1.0000
  H   H1521     1.0  0.51323  0.75316  0.88361  1.0000
  C   C856      1.0  0.89028  0.68473  0.56058  1.0000
  H   H1522     1.0  0.69034  0.80505  0.49380  1.0000
  H   H1523     1.0  0.50841  0.65764  0.95868  1.0000
  H   H1524     1.0  0.81542  0.65224  0.53320  1.0000
  H   H1525     1.0  0.58860  0.69321  0.95056  1.0000
  C   C857      1.0  0.49883  0.70236  0.97460  1.0000
  H   H1526     1.0  0.96480  0.82099  0.55082  1.0000
  H   H1527     1.0  0.65892  0.89606  0.50795  1.0000
  C   C858      1.0  0.95958  0.83095  0.53203  1.0000
  C   C859      1.0  0.50125  0.70749  0.91915  1.0000
  C   C860      1.0  0.54831  0.69475  0.94696  1.0000
  H   H1528     1.0  0.55299  0.70685  0.96820  1.0000
  H   H1529     1.0  0.55705  0.70901  0.92761  1.0000
  H   H1530     1.0  0.55778  0.66433  0.96755  1.0000
  H   H1531     1.0  0.52107  0.71992  0.97780  1.0000
  C   C861      1.0  0.64008  0.89311  0.49417  1.0000
  C   C862      1.0  0.96954  0.82470  0.50196  1.0000
  H   H1532     1.0  0.72371  0.80590  0.48565  1.0000
  H   H1533     1.0  0.97684  0.82737  0.68783  1.0000
  C   C863      1.0  0.87984  0.65368  0.56191  1.0000
  H   H1534     1.0  0.69635  0.66250  0.71649  1.0000
  H   H1535     1.0  0.64780  0.66106  0.71566  1.0000
  H   H1536     1.0  0.78377  0.70016  0.48711  1.0000
  C   C864      1.0  0.79395  0.68723  0.48653  1.0000
