data_image0
_chemical_formula_structural       FeS2FeS2FeSFeS3FeS2FeS2FeSFeS3FeS2FeS2FeHFeS3HCHC2H2C6H4C3H2C5H3C6H4CNCH2C2H3C6H4NC7H11CH2C2NC2H2CH2CHNH11NH5CH5CHCH2CHC2HCHCH5C2H2CH5CHCHCH7CH9CHC2H4NCH3CHC4H2CHCH2C3H4CHCH9CH8C2HCH3NC10H6CH3CH2C2HC2H6CH3CH3C3H2CH14CHC2H3CH2FeS2FeS2FeSFeS3FeS2FeS2FeCFeS3FeSHFeS2FeSFeS3C6H4C6H5C4H4C2H4C6H4C6H5C2H5CH3C2H2CH2CH2NC9HC2H16CH8CH2CHC2H3CH2C3H7CH5CHC2H2SH2C2HCH2CHC3HCH5CHSH2C2H5CH3CNH2CH7CH4CH2CHNHNCH6CH2CH3CH2C3HCH13C2HCH2C2HCHCHCH2C2H2CH6C2H2C2H2NH3C2H2C2HCH5SH2CH6CH2FeS2FeS2FeSFeS3FeS2FeSHFeSFeS3FeSHFeS2FeSFeS3C6H3CHC3H3C6H2CHCHC9H4C6H4C4H4CH4CHC3H2NHCSC3H15NH3CHC2HC2H3C5HC2H2CHC3H3C2H3CHC2H4CH22NHCNH3CHCNCH2CHCH3CH6CHCH9CH4CH3C2H3C2HCH5C2HC2H4CH3CH3C2H3CHCH2CHCH5SH3SC2H5C2HCH5CH4FeS2FeS2FeHFeS3FeS2FeS2FeSFeS3FeS2FeS2FeSFeS3H5CH7C2H2C7H4C3H2C6H4C5H3C6H5NC8HC3H15CHCH11NC4H2C4H2CH4CHNH9C2H3CH4CH3C2H3CH3CH2NHCH2CH2NH4C2H7CH4CH5C2HC2HCH4CHCH2CHCH2C2H2C2HCH2CHC3H5CH2NC7H2C3H14CHCH3CHSH2CH8CHCHCHCH3CHCHCH2CH2CH2CH6C2HC2NCH2CH5C2HFeS2FeS2FeSFeS3FeS2FeS2FeHFeHS2FeS2FeS2FeSFeS3HC2H2C6H4C2H8CH2C6H4C6H4C2H2CH2C2H4CHNC3HC3H2C2H5CH3C2HCHCHCH2NC3HC8H9CH10CH7NC12H30CHC2H3SH4CNHCHC6H6CH2CH5CH7C2H13C2HCH2CHC2H9NH2C2H2C2H3CHC3H2CH3CH4CH4CHCH2CH2CHCH4CFeS2FeS2FeCFeS3FeS2FeS2FeHFeS3FeS2FeS2FeCFeS3C6H4C3H9C6H4C6H5C4HCHC6H9C3HCH3CH2CH7C2H5CH2NCH6SNHC4HC4HCH11C2H8CH4SH5C3H2CHC2HC3H7CH8CHCH2CH5NH3CH5CH2CH2C2NC2H2CHCH2NHCH2CH2C5H2CH5C2H2C2H3C2HCH2CH8C2H2CH2C2H2CNH3SCH2CH3FeSHFeSCFeSFeS3FeS2FeS2FeSFeS3FeS2FeSHFeSFeS3C2H3C6H4NC2H2C2HC2HCHC6H6C6H4C6H2SHSHC2HC2H2C6H5C4H2CH5CH3CH6CH8C2H7CH2CHCH2CHCH2CHCH3CHCHCH2CHCH6CHCHCH3CH3CH3CH8CHCH5C2HC2NH3CH7NHC5HCH8CH5CH2CHCH2C3HCH5CH4CH3CH2NH4NC2HC5HCH2NHCH4CH10C2H5C2H2NH3NHCHCH2CH2C2H5CHFeS2FeS2FeSFeS3FeS2FeS2FeHFeS3FeS2FeS2FeSFeHS2H2C6H4C2H3CHC9H8C6H3C6H5C3HNC10HCH23CH3CNC9SC2H21CH6NCNC5H4CH2CH4CH3CH3CH2CH2CH2CH2CH11C2HCH10C3H2CH3CH2C2HC2HCH3CH3CH15SHCH3CH4C2SHFeSHFeSHFeSFeS3FeSHFeS2FeSFeS3FeS2FeS2FeSFeS3C5H3C6H4C3H2C6H4C6H5C6H5C3H9NC12H28CH2CH2CH3C2H9SH2CH3CHC2HCHC2HN2H7CHCHCH3CH4NC8HCH15SCH2NC2HCH5CHCHCH2CH2CHCH2CH6C4H2CH4CH2C2H5CH2C2H6C2H3SH2CHNH5C2H2C2H3FeS2FeS2FeSFeS3FeS2FeS2FeHFeS3FeS2FeS2FeHFeS3HCH2CHC7H5C2H2C6H4C2H3C6H4C2H4C4H2CNC5HC2HCH10CSH5C2H4CH5NHC2HCH2SHCHNCH5CH2C2H8CH3CH3C5HCH3CH2C2H3C3H4CH4CH2NH5C2HCH10CH3C2H5CH3CH2CHCHCH7CHSH2CH4C2HCH2CHCHCHCH2CHC7NCNCH2C3H2CH3CH8NH8CH3CH5CH3CH4C2H2CH4CH4CH4C2H2FeSHFeSHFeSFeS3FeS2FeS2FeSFeS3FeS2FeS2FeSFeS3C6H4C3H2CHCH2C6H5C5H2NCHCSH2C3H2C6H4C3HCH7CHCHNC12H29CH6CH4C2H4CH5CH3CHNCH2CH2CH9CHCH2CH2CHCH2CH2CH3CH2C2H3CH2CH2CHC2HCH3CHC2NCH2C2H10CHC2H2CH2CH5CNH2C3HC2H2CH2CH3CHC2H3C2H3CH4CH4C2HC2H7C2H5CH2NH2C2H4FeSCFeS2FeSFeS3FeS2FeS2FeHFeS3FeS2FeS2FeSFeS3CH4C6H4C6H4C3HCH2C6H4C6HCH2C4HCH2NH3CH6CHCH3CHCH6CHCH2CHC2H6CH5C2HCH2CH3CH2CH3CHSHCH2CH2CH2CH3NCHC2H4CHNH2C5H10CHCH3CH4CH3CHC2H2CH2CH5CHSHCH3CHCH12CHCH2CHCH3CHCH3C2H16FeS2FeS2FeSFeS3FeS2FeSCFeSFeS3FeS2FeSHFeSFeS3C4HCH2CHC3H2C6H6CH2C6H4C6H4C4H10C3H3CH2CHCH3C4HC2H7CH7CH3C3H4NC5HCHCH5CH6C2HC3HCHCH3NC10H2C2H18CNC5HC2H19CHCH6CHCH3CHNCH5C2H4CHCHNH2CH3C3HCH5CHCHC4H2CH2NHCH6C2HCH2CH2CNH11CH2C2H2CHCH7CH6C2HCHC2H2CHCH4SH6FeS2FeS2FeHFeS3FeS2FeS2FeSFeS3FeS2FeS2FeHFeS3C5H2CH5C6H4C2H3C2HCH2C4H2C6H4C6H4CH2CH2CH2CH5C2H2C2HNHC2H5CHSCH3NHCH3C2H3CH8CH5CH6CH4C2HCH5CH4CH2CH2CH5CH3C2H4CH2CHCH2NC7H2C2H15NHC2H2CH5CNC12H6CH2CH5CH5CHC2H2CHCH2CHCH2CH7CH4CHCHCSHCH2CH2NH2NH5CH3C2H4CH3CH5C2FeS2FeS2FeSFeS3FeS2FeS2FeSFeS3FeSCFeS2FeSFeS3C3H2C6H6C2H3C6H4C6HCH2CHC2HC4H2CHCH3CH7CHCH4CH3CH2SHC3H2C2HNC2H2C3HCHC2NC2H5CHCH14CH3CH2C2HCNH2CH9C2HCH3C2HCH2C4HCHCH2CH9CH4C2H2CH9CH2CHNC4HC6H16NCH8C3H2C2H2CH4CHSH5CNCH2CH2CH4CH2CHC2HC3H4C2H12CH5CH5CH3CFeS2FeSHFeSFeS3FeS2FeSHFeSFeS3FeS2FeS2FeHFeS3C6H4C6H5C4H5C6H5SH3C6HCH2C3H2NC10H23NC2HC4H2CSCHCH3CH3NCH2CH2CH5CHCH2C2H6CHC4H2C3H3C2H2CH4NH6CH3CH8CHC4H2CH7CH3C2HCH6CH2C2NHCHCH6C2HNHC3H2C3H2C3H4CH4CH3NH3SCH5C2H5
_chemical_formula_sum              "Fe192 S384 H3072 C1728 N96"
_cell_length_a       58.021
_cell_length_b       58.0393
_cell_length_c       58.0676
_cell_angle_alpha    90.2173
_cell_angle_beta     89.9715
_cell_angle_gamma    89.6555

_space_group_name_H-M_alt    "P 1"
_space_group_IT_number       1

loop_
  _space_group_symop_operation_xyz
  'x, y, z'

loop_
  _atom_site_type_symbol
  _atom_site_label
  _atom_site_symmetry_multiplicity
  _atom_site_fract_x
  _atom_site_fract_y
  _atom_site_fract_z
  _atom_site_occupancy
  Fe  Fe1       1.0  0.20137  0.40530  0.14159  1.0000
  S   S1        1.0  0.18868  0.37143  0.15455  1.0000
  S   S2        1.0  0.23777  0.40960  0.12769  1.0000
  Fe  Fe2       1.0  0.15291  0.42772  0.14437  1.0000
  S   S3        1.0  0.13720  0.39448  0.15646  1.0000
  S   S4        1.0  0.12603  0.45644  0.14057  1.0000
  Fe  Fe3       1.0  0.16770  0.39233  0.18004  1.0000
  S   S5        1.0  0.16711  0.38728  0.21901  1.0000
  Fe  Fe4       1.0  0.15944  0.37701  0.12962  1.0000
  S   S6        1.0  0.14769  0.34783  0.10589  1.0000
  S   S7        1.0  0.18278  0.42620  0.16883  1.0000
  S   S8        1.0  0.17282  0.41024  0.11578  1.0000
  Fe  Fe5       1.0  0.34922  0.32831  0.12057  1.0000
  S   S9        1.0  0.34501  0.29912  0.09529  1.0000
  S   S10       1.0  0.31840  0.33602  0.14379  1.0000
  Fe  Fe6       1.0  0.39967  0.33599  0.10714  1.0000
  S   S11       1.0  0.39797  0.30788  0.08065  1.0000
  S   S12       1.0  0.43455  0.35422  0.10768  1.0000
  Fe  Fe7       1.0  0.36356  0.32249  0.07066  1.0000
  S   S13       1.0  0.35125  0.32363  0.03330  1.0000
  Fe  Fe8       1.0  0.37980  0.28709  0.10766  1.0000
  S   S14       1.0  0.39493  0.25075  0.11017  1.0000
  S   S15       1.0  0.36605  0.35229  0.09529  1.0000
  S   S16       1.0  0.38312  0.31464  0.13476  1.0000
  Fe  Fe9       1.0  0.40517  0.13669  0.18161  1.0000
  S   S17       1.0  0.43545  0.14373  0.20450  1.0000
  S   S18       1.0  0.37908  0.16597  0.17801  1.0000
  Fe  Fe10      1.0  0.42003  0.08632  0.17385  1.0000
  S   S19       1.0  0.45185  0.09105  0.19549  1.0000
  S   S20       1.0  0.41758  0.04974  0.15943  1.0000
  Fe  Fe11      1.0  0.42781  0.10916  0.22026  1.0000
  H   H1        1.0  0.27409  0.32840  0.10437  1.0000
  Fe  Fe12      1.0  0.45626  0.12493  0.17735  1.0000
  S   S21       1.0  0.48691  0.14410  0.16157  1.0000
  S   S22       1.0  0.39603  0.10322  0.19931  1.0000
  S   S23       1.0  0.42594  0.11913  0.15385  1.0000
  H   H2        1.0  0.23288  0.38646  0.05131  1.0000
  C   C1        1.0  0.49604  0.35588  0.14180  1.0000
  H   H3        1.0  0.46766  0.37994  0.01388  1.0000
  C   C2        1.0  0.39407  0.03075  0.16271  1.0000
  C   C3        1.0  0.37167  0.03872  0.16697  1.0000
  H   H4        1.0  0.40671  0.36850  0.02099  1.0000
  H   H5        1.0  0.36849  0.05701  0.16892  1.0000
  C   C4        1.0  0.39054  0.22804  0.13010  1.0000
  C   C5        1.0  0.37370  0.22897  0.14735  1.0000
  C   C6        1.0  0.37052  0.20996  0.16213  1.0000
  C   C7        1.0  0.38440  0.19007  0.16005  1.0000
  C   C8        1.0  0.40165  0.18946  0.14325  1.0000
  C   C9        1.0  0.40448  0.20821  0.12822  1.0000
  H   H6        1.0  0.36279  0.24408  0.14894  1.0000
  H   H7        1.0  0.35706  0.21057  0.17499  1.0000
  H   H8        1.0  0.41235  0.17424  0.14136  1.0000
  H   H9        1.0  0.41728  0.20715  0.11475  1.0000
  C   C10       1.0  0.18098  0.47044  0.22820  1.0000
  C   C11       1.0  0.41676  0.03213  0.24561  1.0000
  C   C12       1.0  0.35934  0.36908  0.02097  1.0000
  H   H10       1.0  0.39650  0.27396  0.16488  1.0000
  H   H11       1.0  0.35913  0.37304  0.03917  1.0000
  C   C13       1.0  0.45603  0.35053  0.12921  1.0000
  C   C14       1.0  0.47847  0.35872  0.12521  1.0000
  C   C15       1.0  0.35592  0.34638  0.01363  1.0000
  C   C16       1.0  0.20244  0.45949  0.21739  1.0000
  C   C17       1.0  0.45126  0.33975  0.15014  1.0000
  H   H12       1.0  0.48232  0.36724  0.10914  1.0000
  H   H13       1.0  0.25709  0.31473  0.12633  1.0000
  H   H14       1.0  0.43399  0.33380  0.15364  1.0000
  C   C18       1.0  0.25968  0.38849  0.13172  1.0000
  C   C19       1.0  0.25768  0.37129  0.14839  1.0000
  C   C20       1.0  0.27581  0.35539  0.15179  1.0000
  C   C21       1.0  0.29591  0.35615  0.13828  1.0000
  C   C22       1.0  0.29762  0.37290  0.12109  1.0000
  C   C23       1.0  0.27969  0.38915  0.11803  1.0000
  H   H15       1.0  0.24250  0.37065  0.15916  1.0000
  H   H16       1.0  0.27433  0.34252  0.16514  1.0000
  H   H17       1.0  0.31300  0.37371  0.11061  1.0000
  H   H18       1.0  0.28144  0.40243  0.10514  1.0000
  C   C24       1.0  0.12830  0.48562  0.14960  1.0000
  N   N1        1.0  0.43559  0.38997  0.03053  1.0000
  C   C25       1.0  0.10815  0.49917  0.15114  1.0000
  H   H19       1.0  0.50087  0.25845  0.20129  1.0000
  H   H20       1.0  0.46771  0.37671  0.04411  1.0000
  C   C26       1.0  0.14324  0.37888  0.23614  1.0000
  C   C27       1.0  0.12148  0.37487  0.22664  1.0000
  H   H21       1.0  0.40782  0.40907  0.01439  1.0000
  H   H22       1.0  0.11898  0.37645  0.20826  1.0000
  H   H23       1.0  0.17782  0.45752  0.05233  1.0000
  C   C28       1.0  0.14282  0.35334  0.02679  1.0000
  C   C29       1.0  0.15378  0.37062  0.03974  1.0000
  C   C30       1.0  0.15553  0.36901  0.06386  1.0000
  C   C31       1.0  0.14617  0.35019  0.07543  1.0000
  C   C32       1.0  0.13551  0.33270  0.06249  1.0000
  C   C33       1.0  0.13379  0.33425  0.03827  1.0000
  H   H24       1.0  0.16089  0.38542  0.03102  1.0000
  H   H25       1.0  0.16428  0.38227  0.07349  1.0000
  H   H26       1.0  0.12831  0.31798  0.07125  1.0000
  H   H27       1.0  0.12524  0.32086  0.02855  1.0000
  N   N2        1.0  0.46388  0.26422  0.13910  1.0000
  C   C34       1.0  0.45736  0.24185  0.12758  1.0000
  C   C35       1.0  0.47360  0.28113  0.12202  1.0000
  C   C36       1.0  0.44249  0.27470  0.14966  1.0000
  C   C37       1.0  0.45817  0.28655  0.10086  1.0000
  C   C38       1.0  0.47655  0.22980  0.11330  1.0000
  C   C39       1.0  0.46772  0.20764  0.10217  1.0000
  C   C40       1.0  0.47040  0.30265  0.08413  1.0000
  H   H28       1.0  0.45169  0.22907  0.14061  1.0000
  H   H29       1.0  0.44218  0.24433  0.11621  1.0000
  H   H30       1.0  0.46481  0.32888  0.18300  1.0000
  H   H31       1.0  0.45058  0.34332  0.03875  1.0000
  H   H32       1.0  0.44589  0.29254  0.15568  1.0000
  H   H33       1.0  0.42876  0.27655  0.13644  1.0000
  H   H34       1.0  0.44205  0.29535  0.10640  1.0000
  H   H35       1.0  0.45356  0.27075  0.09117  1.0000
  H   H36       1.0  0.17034  0.45557  0.08239  1.0000
  H   H37       1.0  0.40229  0.32537  0.02708  1.0000
  H   H38       1.0  0.17989  0.31980  0.03367  1.0000
  C   C41       1.0  0.14955  0.49583  0.15435  1.0000
  H   H39       1.0  0.40279  0.26443  0.19360  1.0000
  H   H40       1.0  0.28147  0.38570  0.02978  1.0000
  C   C42       1.0  0.39791  0.00695  0.16008  1.0000
  C   C43       1.0  0.38031  0.04917  0.23280  1.0000
  N   N3        1.0  0.13623  0.47030  0.22641  1.0000
  C   C44       1.0  0.15871  0.46181  0.21622  1.0000
  C   C45       1.0  0.11609  0.46075  0.21291  1.0000
  H   H41       1.0  0.23799  0.29098  0.09307  1.0000
  H   H42       1.0  0.34999  0.19949  0.22280  1.0000
  C   C46       1.0  0.07977  0.38568  0.02416  1.0000
  H   H43       1.0  0.20159  0.31062  0.01348  1.0000
  H   H44       1.0  0.40523  0.39427  0.09728  1.0000
  C   C47       1.0  0.11836  0.43580  0.20345  1.0000
  H   H45       1.0  0.10000  0.46186  0.22335  1.0000
  N   N4        1.0  0.39129  0.02777  0.24274  1.0000
  H   H46       1.0  0.45919  0.02695  0.11454  1.0000
  H   H47       1.0  0.15966  0.46673  0.19769  1.0000
  H   H48       1.0  0.15978  0.44271  0.21619  1.0000
  H   H49       1.0  0.46594  0.04064  0.21186  1.0000
  H   H50       1.0  0.11283  0.47143  0.19727  1.0000
  H   H51       1.0  0.27232  0.27632  0.11383  1.0000
  H   H52       1.0  0.28962  0.29039  0.09204  1.0000
  H   H53       1.0  0.06668  0.41583  0.04143  1.0000
  H   H54       1.0  0.20300  0.36396  0.06993  1.0000
  H   H55       1.0  0.46163  0.19542  0.11554  1.0000
  H   H56       1.0  0.34746  0.03554  0.21953  1.0000
  N   N5        1.0  0.35979  0.17604  0.25007  1.0000
  H   H57       1.0  0.47672  0.29806  0.13050  1.0000
  H   H58       1.0  0.23089  0.30977  0.04390  1.0000
  H   H59       1.0  0.17727  0.42976  0.06605  1.0000
  H   H60       1.0  0.13084  0.43543  0.18894  1.0000
  H   H61       1.0  0.12457  0.42355  0.21655  1.0000
  C   C48       1.0  0.45553  0.01411  0.10078  1.0000
  H   H62       1.0  0.39607  0.37626  0.05930  1.0000
  H   H63       1.0  0.08616  0.36550  0.23345  1.0000
  H   H64       1.0  0.16520  0.48567  0.15312  1.0000
  H   H65       1.0  0.07513  0.41431  0.09101  1.0000
  H   H66       1.0  0.14291  0.43589  0.04154  1.0000
  C   C49       1.0  0.48882  0.27977  0.17276  1.0000
  H   H67       1.0  0.31349  0.36274  0.04706  1.0000
  C   C50       1.0  0.19607  0.30972  0.03176  1.0000
  H   H68       1.0  0.33610  0.16875  0.20599  1.0000
  H   H69       1.0  0.09727  0.42572  0.10845  1.0000
  C   C51       1.0  0.40989  0.27366  0.17855  1.0000
  H   H70       1.0  0.13241  0.43868  0.09397  1.0000
  C   C52       1.0  0.43085  0.03452  0.22303  1.0000
  C   C53       1.0  0.48196  0.25921  0.15710  1.0000
  H   H71       1.0  0.21752  0.33773  0.04202  1.0000
  C   C54       1.0  0.35358  0.04918  0.23143  1.0000
  H   H72       1.0  0.12158  0.39171  0.10454  1.0000
  C   C55       1.0  0.07885  0.40154  0.04525  1.0000
  H   H73       1.0  0.18896  0.29364  0.15548  1.0000
  H   H74       1.0  0.31407  0.13454  0.19625  1.0000
  H   H75       1.0  0.07181  0.39131  0.05969  1.0000
  H   H76       1.0  0.20187  0.44040  0.21887  1.0000
  H   H77       1.0  0.30754  0.40189  0.00615  1.0000
  C   C56       1.0  0.32872  0.13284  0.20844  1.0000
  C   C57       1.0  0.10339  0.39067  0.09881  1.0000
  H   H78       1.0  0.17801  0.32056  0.14463  1.0000
  H   H79       1.0  0.32424  0.11975  0.22155  1.0000
  C   C58       1.0  0.09421  0.41506  0.09278  1.0000
  H   H80       1.0  0.38185  0.00333  0.07974  1.0000
  H   H81       1.0  0.07139  0.37716  0.11294  1.0000
  H   H82       1.0  0.20305  0.30002  0.07642  1.0000
  H   H83       1.0  0.49084  0.27536  0.11580  1.0000
  H   H84       1.0  0.33881  0.00930  0.08763  1.0000
  C   C59       1.0  0.35322  0.02304  0.16772  1.0000
  H   H85       1.0  0.06224  0.37921  0.02018  1.0000
  C   C60       1.0  0.33329  0.15608  0.21995  1.0000
  H   H86       1.0  0.13610  0.46207  0.05694  1.0000
  C   C61       1.0  0.08243  0.48968  0.07915  1.0000
  H   H87       1.0  0.21095  0.37435  0.09795  1.0000
  H   H88       1.0  0.20383  0.46429  0.19893  1.0000
  H   H89       1.0  0.21632  0.40483  0.07026  1.0000
  H   H90       1.0  0.45865  0.30692  0.06966  1.0000
  H   H91       1.0  0.19131  0.32798  0.07528  1.0000
  H   H92       1.0  0.22126  0.29427  0.12844  1.0000
  H   H93       1.0  0.47383  0.28655  0.18254  1.0000
  C   C62       1.0  0.13007  0.43029  0.07687  1.0000
  H   H94       1.0  0.10893  0.42040  0.03531  1.0000
  H   H95       1.0  0.29451  0.33833  0.04990  1.0000
  H   H96       1.0  0.42630  0.24371  0.16443  1.0000
  H   H97       1.0  0.11511  0.39604  0.05225  1.0000
  H   H98       1.0  0.09162  0.49145  0.14748  1.0000
  H   H99       1.0  0.18103  0.46589  0.24673  1.0000
  H   H100      1.0  0.24457  0.39523  0.07886  1.0000
  H   H101      1.0  0.45817  0.05533  0.23816  1.0000
  H   H102      1.0  0.08962  0.39147  0.13383  1.0000
  C   C63       1.0  0.09474  0.46747  0.08622  1.0000
  H   H103      1.0  0.13925  0.41356  0.07830  1.0000
  C   C64       1.0  0.09238  0.44857  0.06733  1.0000
  C   C65       1.0  0.38086  0.23489  0.22537  1.0000
  H   H104      1.0  0.44361  0.25968  0.18458  1.0000
  H   H105      1.0  0.43005  0.01865  0.21238  1.0000
  H   H106      1.0  0.46967  0.42004  0.04943  1.0000
  H   H107      1.0  0.21809  0.46568  0.22644  1.0000
  N   N6        1.0  0.10491  0.42623  0.07197  1.0000
  C   C66       1.0  0.28118  0.29254  0.10910  1.0000
  H   H108      1.0  0.29479  0.29589  0.12211  1.0000
  H   H109      1.0  0.10250  0.37863  0.08399  1.0000
  H   H110      1.0  0.25386  0.30802  0.07367  1.0000
  C   C67       1.0  0.16874  0.44694  0.06534  1.0000
  H   H111      1.0  0.09794  0.45598  0.05058  1.0000
  C   C68       1.0  0.42140  0.32420  0.02726  1.0000
  C   C69       1.0  0.14340  0.44446  0.05864  1.0000
  C   C70       1.0  0.38694  0.00792  0.22649  1.0000
  C   C71       1.0  0.39623  0.40420  0.08364  1.0000
  H   H112      1.0  0.19419  0.29641  0.11336  1.0000
  H   H113      1.0  0.09748  0.40935  0.18735  1.0000
  C   C72       1.0  0.09530  0.42708  0.19429  1.0000
  H   H114      1.0  0.08695  0.46176  0.10267  1.0000
  C   C73       1.0  0.35465  0.15467  0.23607  1.0000
  H   H115      1.0  0.45334  0.21152  0.09012  1.0000
  H   H116      1.0  0.36945  0.15004  0.22477  1.0000
  C   C74       1.0  0.40193  0.39441  0.05982  1.0000
  C   C75       1.0  0.10314  0.41100  0.05091  1.0000
  C   C76       1.0  0.42576  0.36731  0.02260  1.0000
  H   H117      1.0  0.43698  0.38423  0.06746  1.0000
  H   H118      1.0  0.42651  0.30903  0.03770  1.0000
  H   H119      1.0  0.34981  0.08648  0.23393  1.0000
  H   H120      1.0  0.41389  0.29161  0.18385  1.0000
  C   C77       1.0  0.10291  0.36865  0.24096  1.0000
  H   H121      1.0  0.34411  0.12698  0.19856  1.0000
  C   C78       1.0  0.08948  0.38007  0.11841  1.0000
  H   H122      1.0  0.28482  0.33760  0.00693  1.0000
  H   H123      1.0  0.41927  0.02042  0.10323  1.0000
  H   H124      1.0  0.47520  0.31898  0.09289  1.0000
  H   H125      1.0  0.43370  0.41339  0.05951  1.0000
  H   H126      1.0  0.39208  0.01249  0.20865  1.0000
  H   H127      1.0  0.40114  0.14677  0.24472  1.0000
  H   H128      1.0  0.20537  0.31958  0.15973  1.0000
  H   H129      1.0  0.38581  0.06478  0.24252  1.0000
  H   H130      1.0  0.09723  0.36321  0.12322  1.0000
  C   C79       1.0  0.43169  0.34608  0.03766  1.0000
  H   H131      1.0  0.08897  0.43835  0.18018  1.0000
  H   H132      1.0  0.09013  0.49670  0.06314  1.0000
  H   H133      1.0  0.32537  0.07182  0.22171  1.0000
  H   H134      1.0  0.46381  0.02456  0.23827  1.0000
  H   H135      1.0  0.40133  0.42258  0.08489  1.0000
  H   H136      1.0  0.19268  0.29142  0.03605  1.0000
  H   H137      1.0  0.14000  0.50126  0.20600  1.0000
  H   H138      1.0  0.07360  0.44539  0.06533  1.0000
  C   C80       1.0  0.28051  0.36668  0.02939  1.0000
  C   C81       1.0  0.46156  0.38827  0.03009  1.0000
  H   H139      1.0  0.11302  0.47186  0.08952  1.0000
  C   C82       1.0  0.43153  0.26125  0.16988  1.0000
  H   H140      1.0  0.28886  0.36451  0.06585  1.0000
  H   H141      1.0  0.39171  0.40440  0.04722  1.0000
  H   H142      1.0  0.38655  0.05201  0.21492  1.0000
  N   N7        1.0  0.22565  0.32619  0.09023  1.0000
  C   C83       1.0  0.21432  0.32855  0.11351  1.0000
  C   C84       1.0  0.23550  0.34922  0.08365  1.0000
  C   C85       1.0  0.20777  0.31825  0.07307  1.0000
  C   C86       1.0  0.24494  0.30864  0.09061  1.0000
  C   C87       1.0  0.26416  0.31273  0.10870  1.0000
  C   C88       1.0  0.20635  0.30572  0.12474  1.0000
  C   C89       1.0  0.21482  0.31962  0.04731  1.0000
  C   C90       1.0  0.21772  0.36906  0.08082  1.0000
  C   C91       1.0  0.22864  0.39012  0.06960  1.0000
  C   C92       1.0  0.19395  0.31025  0.14754  1.0000
  H   H143      1.0  0.49562  0.17550  0.20247  1.0000
  H   H144      1.0  0.19876  0.33980  0.11224  1.0000
  H   H145      1.0  0.22582  0.33764  0.12589  1.0000
  H   H146      1.0  0.24783  0.35525  0.09701  1.0000
  H   H147      1.0  0.24593  0.34763  0.06768  1.0000
  H   H148      1.0  0.37738  0.40313  0.08676  1.0000
  C   C93       1.0  0.47472  0.41128  0.03318  1.0000
  H   H149      1.0  0.49115  0.22493  0.12454  1.0000
  H   H150      1.0  0.26243  0.36181  0.03289  1.0000
  H   H151      1.0  0.48616  0.29428  0.07705  1.0000
  C   C94       1.0  0.46878  0.33703  0.16677  1.0000
  H   H152      1.0  0.08230  0.42652  0.20833  1.0000
  H   H153      1.0  0.37858  0.18942  0.22089  1.0000
  C   C95       1.0  0.29524  0.35745  0.04920  1.0000
  C   C96       1.0  0.43098  0.00519  0.10365  1.0000
  H   H154      1.0  0.49587  0.20602  0.19710  1.0000
  C   C97       1.0  0.45624  0.03901  0.22826  1.0000
  C   C98       1.0  0.49130  0.34494  0.16270  1.0000
  H   H155      1.0  0.36818  0.00431  0.22529  1.0000
  H   H156      1.0  0.42484  0.34810  0.05539  1.0000
  H   H157      1.0  0.39569  0.22756  0.21560  1.0000
  H   H158      1.0  0.43201  0.36312  0.00495  1.0000
  H   H159      1.0  0.33585  0.02938  0.17043  1.0000
  H   H160      1.0  0.09120  0.37060  0.02749  1.0000
  C   C99       1.0  0.34449  0.07217  0.22239  1.0000
  H   H161      1.0  0.42435  0.04914  0.21261  1.0000
  H   H162      1.0  0.48186  0.19918  0.09232  1.0000
  H   H163      1.0  0.31747  0.16112  0.22949  1.0000
  C   C100      1.0  0.42817  0.39568  0.05483  1.0000
  H   H164      1.0  0.38626  0.25144  0.23330  1.0000
  H   H165      1.0  0.36651  0.23844  0.21319  1.0000
  H   H166      1.0  0.18276  0.48937  0.22648  1.0000
  C   C101      1.0  0.36290  0.38666  0.00468  1.0000
  C   C102      1.0  0.13572  0.49626  0.22404  1.0000
  C   C103      1.0  0.50075  0.40710  0.03405  1.0000
  H   H167      1.0  0.35105  0.07541  0.20473  1.0000
  H   H168      1.0  0.48291  0.24106  0.09932  1.0000
  C   C104      1.0  0.36530  0.19519  0.23349  1.0000
  H   H169      1.0  0.40825  0.17670  0.24099  1.0000
  H   H170      1.0  0.47648  0.24470  0.16831  1.0000
  H   H171      1.0  0.34693  0.00954  0.11767  1.0000
  H   H172      1.0  0.43193  0.42600  0.02135  1.0000
  H   H173      1.0  0.49617  0.29395  0.16242  1.0000
  H   H174      1.0  0.45757  0.02264  0.08381  1.0000
  H   H175      1.0  0.49818  0.25324  0.14875  1.0000
  H   H176      1.0  0.08637  0.39503  0.00887  1.0000
  H   H177      1.0  0.47127  0.42315  0.01863  1.0000
  H   H178      1.0  0.06377  0.48653  0.07638  1.0000
  H   H179      1.0  0.35207  0.13975  0.24774  1.0000
  H   H180      1.0  0.50183  0.10355  0.07825  1.0000
  H   H181      1.0  0.42769  0.32143  0.00939  1.0000
  H   H182      1.0  0.34564  0.04644  0.24855  1.0000
  C   C105      1.0  0.42694  0.40871  0.01472  1.0000
  H   H183      1.0  0.22440  0.36465  0.00904  1.0000
  C   C106      1.0  0.28836  0.35642  0.00592  1.0000
  C   C107      1.0  0.37322  0.21823  0.24416  1.0000
  H   H184      1.0  0.36569  0.40415  0.01046  1.0000
  H   H185      1.0  0.30752  0.35756  0.00509  1.0000
  H   H186      1.0  0.15249  0.43092  0.25074  1.0000
  C   C108      1.0  0.13417  0.46466  0.25171  1.0000
  H   H187      1.0  0.09855  0.50297  0.21853  1.0000
  H   H188      1.0  0.08431  0.50275  0.09306  1.0000
  Fe  Fe13      1.0  0.05106  0.33745  0.36116  1.0000
  S   S24       1.0  0.07882  0.34531  0.38691  1.0000
  S   S25       1.0  0.02051  0.31688  0.37511  1.0000
  Fe  Fe14      1.0  0.08229  0.35276  0.32101  1.0000
  S   S26       1.0  0.11223  0.36077  0.34416  1.0000
  S   S27       1.0  0.08194  0.35811  0.28210  1.0000
  Fe  Fe15      1.0  0.10303  0.32780  0.36245  1.0000
  S   S28       1.0  0.13006  0.30359  0.37747  1.0000
  Fe  Fe16      1.0  0.08557  0.37762  0.36675  1.0000
  S   S29       1.0  0.09079  0.41057  0.38754  1.0000
  S   S30       1.0  0.07529  0.31824  0.33738  1.0000
  S   S31       1.0  0.05565  0.37135  0.34282  1.0000
  Fe  Fe17      1.0  0.10263  0.12582  0.43004  1.0000
  S   S32       1.0  0.09812  0.15318  0.45722  1.0000
  S   S33       1.0  0.07212  0.10232  0.42253  1.0000
  Fe  Fe18      1.0  0.15282  0.13962  0.42068  1.0000
  S   S34       1.0  0.15065  0.16871  0.44638  1.0000
  S   S35       1.0  0.18633  0.13715  0.39998  1.0000
  Fe  Fe19      1.0  0.13344  0.14277  0.46951  1.0000
  C   C109      1.0  0.01215  0.09965  0.38593  1.0000
  Fe  Fe20      1.0  0.11569  0.17646  0.43176  1.0000
  S   S36       1.0  0.09674  0.21009  0.42327  1.0000
  S   S37       1.0  0.13698  0.11344  0.44421  1.0000
  S   S38       1.0  0.11885  0.14931  0.40419  1.0000
  Fe  Fe21      1.0  0.35066  0.04085  0.38262  1.0000
  S   S39       1.0  0.37293  0.07243  0.38380  1.0000
  H   H189      1.0  0.44483  0.04788  0.39517  1.0000
  Fe  Fe22      1.0  0.30763  0.06945  0.39812  1.0000
  S   S40       1.0  0.32753  0.10260  0.39937  1.0000
  S   S41       1.0  0.27032  0.06572  0.41084  1.0000
  Fe  Fe23      1.0  0.34374  0.09010  0.36577  1.0000
  S   S42       1.0  0.34740  0.10950  0.33170  1.0000
  Fe  Fe24      1.0  0.35507  0.08154  0.41719  1.0000
  S   S43       1.0  0.37526  0.08606  0.45087  1.0000
  S   S44       1.0  0.32180  0.05838  0.36351  1.0000
  S   S45       1.0  0.33469  0.04865  0.41709  1.0000
  C   C110      1.0  0.40553  0.10024  0.27810  1.0000
  C   C111      1.0  0.40941  0.09461  0.30132  1.0000
  C   C112      1.0  0.39154  0.09637  0.31776  1.0000
  C   C113      1.0  0.36963  0.10413  0.31120  1.0000
  C   C114      1.0  0.36561  0.10918  0.28785  1.0000
  C   C115      1.0  0.38339  0.10700  0.27135  1.0000
  H   H190      1.0  0.42644  0.08924  0.30673  1.0000
  H   H191      1.0  0.39494  0.09249  0.33565  1.0000
  H   H192      1.0  0.34867  0.11497  0.28260  1.0000
  H   H193      1.0  0.01761  0.26907  0.31565  1.0000
  C   C116      1.0  0.20943  0.11705  0.40334  1.0000
  C   C117      1.0  0.23153  0.12291  0.39534  1.0000
  C   C118      1.0  0.25031  0.10747  0.39747  1.0000
  C   C119      1.0  0.24719  0.08581  0.40747  1.0000
  C   C120      1.0  0.22503  0.07987  0.41533  1.0000
  C   C121      1.0  0.20624  0.09532  0.41320  1.0000
  H   H194      1.0  0.23418  0.13955  0.38747  1.0000
  H   H195      1.0  0.26720  0.11230  0.39128  1.0000
  H   H196      1.0  0.22235  0.06310  0.42289  1.0000
  H   H197      1.0  0.18926  0.09036  0.41894  1.0000
  H   H198      1.0  0.39933  0.04718  0.28790  1.0000
  C   C122      1.0  0.03018  0.09492  0.40156  1.0000
  C   C123      1.0  0.04996  0.10883  0.40239  1.0000
  C   C124      1.0  0.05158  0.12749  0.38730  1.0000
  C   C125      1.0  0.03364  0.13212  0.37157  1.0000
  H   H199      1.0  0.13903  0.34754  0.44213  1.0000
  H   H200      1.0  0.02880  0.08041  0.41311  1.0000
  H   H201      1.0  0.06668  0.13830  0.38771  1.0000
  H   H202      1.0  0.25116  0.04308  0.46510  1.0000
  C   C126      1.0  0.37407  0.10754  0.47282  1.0000
  C   C127      1.0  0.36444  0.12937  0.46914  1.0000
  H   H203      1.0  0.46631  0.02479  0.45417  1.0000
  H   H204      1.0  0.35752  0.13367  0.45239  1.0000
  H   H205      1.0  0.09483  0.15806  0.35801  1.0000
  H   H206      1.0  0.00691  0.14633  0.44348  1.0000
  C   C128      1.0  0.10765  0.43461  0.37952  1.0000
  C   C129      1.0  0.10924  0.45340  0.39477  1.0000
  C   C130      1.0  0.12400  0.47200  0.39006  1.0000
  C   C131      1.0  0.13764  0.47172  0.37025  1.0000
  C   C132      1.0  0.13570  0.45318  0.35472  1.0000
  C   C133      1.0  0.12047  0.43490  0.35912  1.0000
  H   H207      1.0  0.09931  0.45340  0.41055  1.0000
  H   H208      1.0  0.39878  0.02098  0.46232  1.0000
  H   H209      1.0  0.14614  0.45289  0.33928  1.0000
  H   H210      1.0  0.11909  0.42075  0.34704  1.0000
  C   C134      1.0  0.12112  0.27701  0.38925  1.0000
  C   C135      1.0  0.13632  0.26435  0.40325  1.0000
  C   C136      1.0  0.12943  0.24338  0.41322  1.0000
  C   C137      1.0  0.10741  0.23469  0.40890  1.0000
  C   C138      1.0  0.09251  0.24704  0.39437  1.0000
  C   C139      1.0  0.09919  0.26820  0.38477  1.0000
  H   H211      1.0  0.15331  0.27106  0.40683  1.0000
  H   H212      1.0  0.14083  0.23434  0.42485  1.0000
  H   H213      1.0  0.07564  0.24026  0.39059  1.0000
  H   H214      1.0  0.08741  0.27766  0.37382  1.0000
  H   H215      1.0  0.11696  0.46986  0.25837  1.0000
  C   C140      1.0  0.10589  0.36619  0.26488  1.0000
  C   C141      1.0  0.12766  0.37021  0.27438  1.0000
  H   H216      1.0  0.14666  0.47501  0.26190  1.0000
  H   H217      1.0  0.13022  0.36830  0.29270  1.0000
  H   H218      1.0  0.21079  0.14879  0.33042  1.0000
  H   H219      1.0  0.11514  0.26081  0.33725  1.0000
  H   H220      1.0  0.35143  0.01036  0.45301  1.0000
  C   C142      1.0  0.00496  0.15526  0.42665  1.0000
  H   H221      1.0  0.19557  0.20900  0.37719  1.0000
  H   H222      1.0  0.12537  0.48617  0.40215  1.0000
  H   H223      1.0  0.05299  0.15866  0.42785  1.0000
  C   C143      1.0  0.13805  0.23272  0.32672  1.0000
  C   C144      1.0  0.15905  0.19815  0.37998  1.0000
  H   H224      1.0  0.26068  0.04696  0.49463  1.0000
  H   H225      1.0  0.05420  0.18761  0.43905  1.0000
  C   C145      1.0  0.31908  0.08488  0.49431  1.0000
  H   H226      1.0  0.07883  0.26899  0.48421  1.0000
  H   H227      1.0  0.16194  0.23751  0.35435  1.0000
  C   C146      1.0  0.37075  0.03382  0.30685  1.0000
  H   H228      1.0  0.04180  0.16513  0.45626  1.0000
  H   H229      1.0  0.05671  0.49466  0.31294  1.0000
  N   N8        1.0  0.16937  0.39310  0.39561  1.0000
  C   C147      1.0  0.16056  0.38825  0.37162  1.0000
  C   C148      1.0  0.15273  0.38382  0.41342  1.0000
  C   C149      1.0  0.17036  0.41898  0.39860  1.0000
  C   C150      1.0  0.19332  0.38356  0.39927  1.0000
  C   C151      1.0  0.19673  0.35745  0.39480  1.0000
  C   C152      1.0  0.17501  0.39798  0.35139  1.0000
  C   C153      1.0  0.17761  0.42786  0.42279  1.0000
  C   C154      1.0  0.13948  0.36144  0.40726  1.0000
  C   C155      1.0  0.12672  0.35186  0.42814  1.0000
  H   H230      1.0  0.01142  0.30654  0.47038  1.0000
  C   C156      1.0  0.16563  0.38986  0.32815  1.0000
  C   C157      1.0  0.17503  0.45405  0.42446  1.0000
  H   H231      1.0  0.14273  0.39517  0.36993  1.0000
  H   H232      1.0  0.15883  0.36950  0.36844  1.0000
  H   H233      1.0  0.16172  0.38101  0.43012  1.0000
  H   H234      1.0  0.13884  0.39675  0.41712  1.0000
  H   H235      1.0  0.15328  0.42674  0.39451  1.0000
  H   H236      1.0  0.18279  0.42677  0.38635  1.0000
  H   H237      1.0  0.20602  0.39314  0.38864  1.0000
  H   H238      1.0  0.19887  0.38646  0.41737  1.0000
  H   H239      1.0  0.19062  0.35223  0.37749  1.0000
  H   H240      1.0  0.18757  0.34741  0.40813  1.0000
  H   H241      1.0  0.17441  0.41708  0.35123  1.0000
  H   H242      1.0  0.19323  0.39222  0.35249  1.0000
  H   H243      1.0  0.19597  0.42363  0.42616  1.0000
  H   H244      1.0  0.16695  0.42027  0.43666  1.0000
  H   H245      1.0  0.12637  0.36528  0.39387  1.0000
  H   H246      1.0  0.15089  0.34770  0.40047  1.0000
  C   C158      1.0  0.04146  0.28153  0.42172  1.0000
  H   H247      1.0  0.15571  0.44485  0.29075  1.0000
  H   H248      1.0  0.03491  0.25913  0.46428  1.0000
  H   H249      1.0  0.17616  0.39715  0.31398  1.0000
  H   H250      1.0  0.16630  0.37076  0.32682  1.0000
  H   H251      1.0  0.14754  0.39577  0.32585  1.0000
  H   H252      1.0  0.18463  0.46269  0.41037  1.0000
  H   H253      1.0  0.15658  0.45908  0.42342  1.0000
  H   H254      1.0  0.18190  0.46023  0.44121  1.0000
  C   C159      1.0  0.21580  0.11593  0.47331  1.0000
  H   H255      1.0  0.14448  0.20333  0.39130  1.0000
  H   H256      1.0  0.11017  0.19269  0.37910  1.0000
  C   C160      1.0  0.03585  0.27830  0.46434  1.0000
  H   H257      1.0  0.11754  0.33587  0.42309  1.0000
  C   C161      1.0  0.17260  0.19499  0.33938  1.0000
  C   C162      1.0  0.13953  0.43665  0.28472  1.0000
  H   H258      1.0  0.11382  0.36460  0.43454  1.0000
  H   H259      1.0  0.39107  0.00746  0.27384  1.0000
  H   H260      1.0  0.45852  0.07711  0.46486  1.0000
  C   C163      1.0  0.09019  0.17596  0.35303  1.0000
  H   H261      1.0  0.24905  0.08603  0.46089  1.0000
  H   H262      1.0  0.18624  0.20839  0.33990  1.0000
  C   C164      1.0  0.42775  0.05008  0.43880  1.0000
  C   C165      1.0  0.42231  0.16101  0.27120  1.0000
  C   C166      1.0  0.08800  0.27667  0.46935  1.0000
  H   H263      1.0  0.12329  0.22195  0.32133  1.0000
  H   H264      1.0  0.20307  0.17353  0.46063  1.0000
  H   H265      1.0  0.41630  0.04684  0.36298  1.0000
  H   H266      1.0  0.41018  0.00826  0.40054  1.0000
  H   H267      1.0  0.10448  0.47428  0.32469  1.0000
  H   H268      1.0  0.38401  0.18520  0.27714  1.0000
  H   H269      1.0  0.15128  0.05874  0.46270  1.0000
  C   C167      1.0  0.02381  0.25390  0.39278  1.0000
  H   H270      1.0  0.31580  0.07847  0.45755  1.0000
  H   H271      1.0  0.44969  0.01717  0.39148  1.0000
  H   H272      1.0  0.01896  0.25196  0.42922  1.0000
  H   H273      1.0  0.05418  0.28617  0.40810  1.0000
  H   H274      1.0  0.23231  0.35977  0.38284  1.0000
  C   C168      1.0  0.42821  0.05499  0.46511  1.0000
  H   H275      1.0  0.32232  0.20988  0.31530  1.0000
  C   C169      1.0  0.43675  0.03127  0.39052  1.0000
  C   C170      1.0  0.42944  0.03302  0.36528  1.0000
  H   H276      1.0  0.03726  0.25838  0.37994  1.0000
  H   H277      1.0  0.41766  0.14830  0.28466  1.0000
  S   S46       1.0  0.37075  0.01074  0.36654  1.0000
  H   H278      1.0  0.12465  0.44464  0.29378  1.0000
  H   H279      1.0  0.41039  0.05650  0.47194  1.0000
  C   C171      1.0  0.31269  0.09273  0.46999  1.0000
  C   C172      1.0  0.20169  0.13869  0.47398  1.0000
  H   H280      1.0  0.09107  0.29516  0.47305  1.0000
  C   C173      1.0  0.41592  0.02565  0.40615  1.0000
  H   H281      1.0  0.05773  0.45124  0.31544  1.0000
  H   H282      1.0  0.30753  0.18693  0.30059  1.0000
  C   C174      1.0  0.03313  0.25651  0.41727  1.0000
  H   H283      1.0  0.35249  0.02879  0.30433  1.0000
  C   C175      1.0  0.01379  0.11832  0.37085  1.0000
  C   C176      1.0  0.31922  0.20183  0.29820  1.0000
  C   C177      1.0  0.07582  0.49571  0.31122  1.0000
  H   H284      1.0  0.02339  0.18391  0.41032  1.0000
  C   C178      1.0  0.14620  0.37655  0.26007  1.0000
  H   H285      1.0  0.38506  0.03753  0.44050  1.0000
  H   H286      1.0  0.13630  0.07852  0.48175  1.0000
  H   H287      1.0  0.44461  0.03718  0.35443  1.0000
  H   H288      1.0  0.14019  0.41812  0.28931  1.0000
  H   H289      1.0  0.40163  0.03762  0.40157  1.0000
  C   C179      1.0  0.36386  0.14577  0.48715  1.0000
  H   H290      1.0  0.36331  0.01561  0.26421  1.0000
  S   S47       1.0  0.15830  0.49331  0.36476  1.0000
  H   H291      1.0  0.19946  0.14512  0.49185  1.0000
  H   H292      1.0  0.43815  0.15474  0.26236  1.0000
  C   C180      1.0  0.38333  0.10246  0.49466  1.0000
  C   C181      1.0  0.05682  0.31182  0.44798  1.0000
  H   H293      1.0  0.07117  0.25437  0.44533  1.0000
  H   H294      1.0  0.07417  0.31570  0.44066  1.0000
  H   H295      1.0  0.16177  0.17956  0.38387  1.0000
  H   H296      1.0  0.17649  0.23060  0.38886  1.0000
  H   H297      1.0  0.37118  0.04817  0.31958  1.0000
  C   C182      1.0  0.14669  0.22643  0.35119  1.0000
  H   H298      1.0  0.04274  0.32852  0.41730  1.0000
  H   H299      1.0  0.18449  0.13614  0.46614  1.0000
  H   H300      1.0  0.16681  0.19463  0.32111  1.0000
  C   C183      1.0  0.07683  0.45207  0.31451  1.0000
  N   N9        1.0  0.20704  0.09650  0.48809  1.0000
  H   H301      1.0  0.16298  0.37957  0.26757  1.0000
  H   H302      1.0  0.03510  0.14658  0.35997  1.0000
  C   C184      1.0  0.11152  0.26480  0.46764  1.0000
  H   H303      1.0  0.43970  0.08109  0.48932  1.0000
  H   H304      1.0  0.38801  0.21586  0.25599  1.0000
  H   H305      1.0  0.32327  0.10762  0.46468  1.0000
  H   H306      1.0  0.19196  0.18627  0.41337  1.0000
  H   H307      1.0  0.10950  0.24611  0.46393  1.0000
  H   H308      1.0  0.31075  0.21477  0.28691  1.0000
  H   H309      1.0  0.18266  0.08766  0.46135  1.0000
  C   C185      1.0  0.38145  0.04168  0.28415  1.0000
  H   H310      1.0  0.13636  0.16801  0.35509  1.0000
  H   H311      1.0  0.17102  0.10566  0.48331  1.0000
  H   H312      1.0  0.42609  0.17782  0.27951  1.0000
  H   H313      1.0  0.02631  0.29259  0.41823  1.0000
  C   C186      1.0  0.43619  0.00737  0.43921  1.0000
  H   H314      1.0  0.14058  0.04903  0.49017  1.0000
  H   H315      1.0  0.08235  0.45019  0.29628  1.0000
  C   C187      1.0  0.21368  0.15755  0.46019  1.0000
  H   H316      1.0  0.04323  0.28279  0.48143  1.0000
  N   N10       1.0  0.15273  0.20141  0.35497  1.0000
  H   H317      1.0  0.29425  0.09780  0.46902  1.0000
  N   N11       1.0  0.05143  0.28641  0.44526  1.0000
  C   C188      1.0  0.07394  0.27324  0.44685  1.0000
  H   H318      1.0  0.46803  0.02192  0.42368  1.0000
  H   H319      1.0  0.12201  0.27275  0.45381  1.0000
  H   H320      1.0  0.35016  0.18163  0.30015  1.0000
  H   H321      1.0  0.07382  0.18069  0.36185  1.0000
  H   H322      1.0  0.41634  0.06342  0.43087  1.0000
  H   H323      1.0  0.35633  0.16258  0.48411  1.0000
  C   C189      1.0  0.18421  0.17131  0.34424  1.0000
  H   H324      1.0  0.21652  0.11030  0.45504  1.0000
  H   H325      1.0  0.06387  0.35848  0.43957  1.0000
  C   C190      1.0  0.39669  0.02242  0.44333  1.0000
  H   H326      1.0  0.08535  0.27795  0.43215  1.0000
  H   H327      1.0  0.18242  0.05439  0.49197  1.0000
  H   H328      1.0  0.19291  0.17135  0.36126  1.0000
  C   C191      1.0  0.18040  0.21186  0.38844  1.0000
  H   H329      1.0  0.23381  0.12040  0.47778  1.0000
  H   H330      1.0  0.22089  0.06379  0.50013  1.0000
  C   C192      1.0  0.13019  0.25790  0.32575  1.0000
  C   C193      1.0  0.18746  0.20488  0.41277  1.0000
  C   C194      1.0  0.22221  0.35074  0.39629  1.0000
  H   H331      1.0  0.13367  0.23234  0.36401  1.0000
  C   C195      1.0  0.33851  0.18181  0.26417  1.0000
  H   H332      1.0  0.10341  0.21020  0.35465  1.0000
  H   H333      1.0  0.20281  0.21486  0.41818  1.0000
  H   H334      1.0  0.14432  0.26962  0.33107  1.0000
  H   H335      1.0  0.12497  0.26235  0.30790  1.0000
  H   H336      1.0  0.12446  0.49388  0.29915  1.0000
  H   H337      1.0  0.21476  0.06440  0.47017  1.0000
  H   H338      1.0  0.17332  0.20854  0.42513  1.0000
  H   H339      1.0  0.13017  0.18452  0.33036  1.0000
  H   H340      1.0  0.27782  0.05725  0.47087  1.0000
  H   H341      1.0  0.32887  0.16580  0.26848  1.0000
  H   H342      1.0  0.37151  0.05689  0.27819  1.0000
  H   H343      1.0  0.17142  0.15719  0.34410  1.0000
  H   H344      1.0  0.22414  0.33188  0.39349  1.0000
  C   C196      1.0  0.04368  0.17172  0.43842  1.0000
  C   C197      1.0  0.34215  0.19390  0.28780  1.0000
  H   H345      1.0  0.08732  0.17659  0.33413  1.0000
  C   C198      1.0  0.08547  0.47474  0.32478  1.0000
  H   H346      1.0  0.44515  0.05379  0.43196  1.0000
  H   H347      1.0  0.15213  0.23039  0.31395  1.0000
  C   C199      1.0  0.14851  0.06375  0.48099  1.0000
  C   C200      1.0  0.13265  0.18592  0.34932  1.0000
  H   H348      1.0  0.03429  0.36623  0.43413  1.0000
  C   C201      1.0  0.24749  0.07820  0.47826  1.0000
  H   H349      1.0  0.19476  0.16430  0.30881  1.0000
  C   C202      1.0  0.10910  0.19280  0.36012  1.0000
  H   H350      1.0  0.08395  0.43732  0.32442  1.0000
  C   C203      1.0  0.38129  0.02198  0.26599  1.0000
  H   H351      1.0  0.01187  0.19083  0.43845  1.0000
  H   H352      1.0  0.21618  0.17902  0.32612  1.0000
  C   C204      1.0  0.22172  0.07503  0.48463  1.0000
  C   C205      1.0  0.18286  0.09086  0.48030  1.0000
  H   H353      1.0  0.43701  0.04097  0.47465  1.0000
  H   H354      1.0  0.38057  0.01905  0.31413  1.0000
  C   C206      1.0  0.46231  0.01318  0.43952  1.0000
  H   H355      1.0  0.23086  0.16143  0.46764  1.0000
  H   H356      1.0  0.04717  0.24372  0.41942  1.0000
  H   H357      1.0  0.05789  0.31651  0.46657  1.0000
  H   H358      1.0  0.01290  0.14351  0.41370  1.0000
  H   H359      1.0  0.25656  0.08940  0.49070  1.0000
  H   H360      1.0  0.33725  0.07873  0.49380  1.0000
  C   C207      1.0  0.02017  0.17714  0.42789  1.0000
  C   C208      1.0  0.01105  0.28834  0.46448  1.0000
  H   H361      1.0  0.43125  0.09223  0.46168  1.0000
  H   H362      1.0  0.22929  0.35506  0.41354  1.0000
  C   C209      1.0  0.37990  0.17049  0.26568  1.0000
  C   C210      1.0  0.20259  0.16562  0.32621  1.0000
  H   H363      1.0  0.37516  0.15622  0.27752  1.0000
  H   H364      1.0  0.42218  0.01642  0.35919  1.0000
  N   N12       1.0  0.41978  0.02632  0.43188  1.0000
  H   H365      1.0  0.04259  0.35640  0.46237  1.0000
  H   H366      1.0  0.21581  0.15216  0.44192  1.0000
  H   H367      1.0  0.35347  0.20910  0.28648  1.0000
  C   C211      1.0  0.44023  0.07774  0.47047  1.0000
  C   C212      1.0  0.04038  0.32940  0.43621  1.0000
  H   H368      1.0  0.12091  0.26668  0.48419  1.0000
  H   H369      1.0  0.02200  0.32610  0.43987  1.0000
  C   C213      1.0  0.17135  0.07001  0.49243  1.0000
  C   C214      1.0  0.25998  0.05493  0.47728  1.0000
  H   H370      1.0  0.00869  0.26542  0.39021  1.0000
  C   C215      1.0  0.04570  0.35410  0.44363  1.0000
  H   H371      1.0  0.07939  0.49261  0.29261  1.0000
  H   H372      1.0  0.07979  0.47524  0.34302  1.0000
  H   H373      1.0  0.39097  0.08573  0.49773  1.0000
  H   H374      1.0  0.08286  0.49690  0.38568  1.0000
  H   H375      1.0  0.00680  0.29547  0.32805  1.0000
  S   S48       1.0  0.42888  0.09900  0.25827  1.0000
  H   H376      1.0  0.01840  0.23582  0.38976  1.0000
  H   H377      1.0  0.30798  0.07007  0.49872  1.0000
  C   C216      1.0  0.13705  0.43905  0.25860  1.0000
  H   H378      1.0  0.41955  0.04837  0.25548  1.0000
  H   H379      1.0  0.42499  0.01846  0.25624  1.0000
  H   H380      1.0  0.32629  0.19251  0.25388  1.0000
  H   H381      1.0  0.35870  0.22656  0.25349  1.0000
  H   H382      1.0  0.37569  0.00416  0.41816  1.0000
  H   H383      1.0  0.38014  0.11084  0.25347  1.0000
  C   C217      1.0  0.40282  0.16357  0.25366  1.0000
  H   H384      1.0  0.12151  0.42922  0.25350  1.0000
  H   H385      1.0  0.31285  0.00511  0.31592  1.0000
  Fe  Fe25      1.0  0.40204  0.13233  0.60968  1.0000
  S   S49       1.0  0.41027  0.16437  0.58983  1.0000
  S   S50       1.0  0.43094  0.10657  0.61713  1.0000
  Fe  Fe26      1.0  0.35027  0.14429  0.61286  1.0000
  S   S51       1.0  0.35588  0.17779  0.59419  1.0000
  S   S52       1.0  0.31209  0.13957  0.62192  1.0000
  Fe  Fe27      1.0  0.37782  0.15665  0.56983  1.0000
  S   S53       1.0  0.37070  0.16154  0.53138  1.0000
  Fe  Fe28      1.0  0.38761  0.18240  0.61595  1.0000
  S   S54       1.0  0.40270  0.21196  0.63741  1.0000
  S   S55       1.0  0.37108  0.12321  0.58768  1.0000
  S   S56       1.0  0.38053  0.15033  0.63657  1.0000
  Fe  Fe29      1.0  0.44848  0.35825  0.68732  1.0000
  S   S57       1.0  0.43165  0.36434  0.65319  1.0000
  S   S58       1.0  0.48531  0.34440  0.68961  1.0000
  Fe  Fe30      1.0  0.40468  0.37230  0.71459  1.0000
  S   S59       1.0  0.38489  0.37791  0.68161  1.0000
  H   H386      1.0  0.28042  0.13023  0.53979  1.0000
  Fe  Fe31      1.0  0.40179  0.34524  0.66858  1.0000
  S   S60       1.0  0.38283  0.32011  0.64503  1.0000
  Fe  Fe32      1.0  0.41635  0.39630  0.66948  1.0000
  S   S61       1.0  0.41615  0.43153  0.65233  1.0000
  S   S62       1.0  0.41905  0.33786  0.70251  1.0000
  S   S63       1.0  0.43588  0.39183  0.70250  1.0000
  Fe  Fe33      1.0  0.16305  0.03112  0.65924  1.0000
  S   S64       1.0  0.13985  0.06187  0.65464  1.0000
  H   H387      1.0  0.49173  0.11372  0.71868  1.0000
  Fe  Fe34      1.0  0.20543  0.05836  0.64177  1.0000
  S   S65       1.0  0.18476  0.09074  0.63635  1.0000
  S   S66       1.0  0.24398  0.05458  0.63447  1.0000
  Fe  Fe35      1.0  0.16837  0.08218  0.67075  1.0000
  S   S67       1.0  0.16446  0.10754  0.70064  1.0000
  Fe  Fe36      1.0  0.15815  0.06714  0.62077  1.0000
  S   S68       1.0  0.13722  0.06919  0.58748  1.0000
  S   S69       1.0  0.19084  0.05133  0.67702  1.0000
  S   S70       1.0  0.17970  0.03495  0.62452  1.0000
  C   C218      1.0  0.14408  0.12211  0.52871  1.0000
  C   C219      1.0  0.15723  0.12447  0.54894  1.0000
  C   C220      1.0  0.15561  0.10830  0.56693  1.0000
  C   C221      1.0  0.14045  0.08974  0.56507  1.0000
  C   C222      1.0  0.12714  0.08748  0.54493  1.0000
  C   C223      1.0  0.12896  0.10353  0.52682  1.0000
  H   H388      1.0  0.16867  0.13900  0.55074  1.0000
  H   H389      1.0  0.16581  0.11040  0.58238  1.0000
  H   H390      1.0  0.11517  0.07338  0.54340  1.0000
  C   C224      1.0  0.34883  0.48587  0.58772  1.0000
  H   H391      1.0  0.10659  0.06260  0.74333  1.0000
  C   C225      1.0  0.14719  0.10059  0.72495  1.0000
  C   C226      1.0  0.13247  0.08158  0.72480  1.0000
  C   C227      1.0  0.31656  0.10481  0.51210  1.0000
  H   H392      1.0  0.13179  0.07052  0.70976  1.0000
  H   H393      1.0  0.38983  0.11467  0.52937  1.0000
  H   H394      1.0  0.01999  0.11907  0.73662  1.0000
  C   C228      1.0  0.39280  0.45097  0.65617  1.0000
  C   C229      1.0  0.37389  0.44547  0.66999  1.0000
  C   C230      1.0  0.35474  0.46045  0.67113  1.0000
  C   C231      1.0  0.35419  0.48089  0.65827  1.0000
  C   C232      1.0  0.37347  0.48689  0.64523  1.0000
  C   C233      1.0  0.39275  0.47202  0.64427  1.0000
  H   H395      1.0  0.37373  0.42938  0.67932  1.0000
  H   H396      1.0  0.33993  0.45576  0.68140  1.0000
  C   C234      1.0  0.19214  0.15349  0.65151  1.0000
  H   H397      1.0  0.40738  0.47651  0.63367  1.0000
  C   C235      1.0  0.43604  0.23317  0.58248  1.0000
  H   H398      1.0  0.48486  0.42932  0.66194  1.0000
  C   C236      1.0  0.44080  0.31375  0.59055  1.0000
  C   C237      1.0  0.46595  0.20557  0.64892  1.0000
  C   C238      1.0  0.25520  0.15111  0.69477  1.0000
  C   C239      1.0  0.39529  0.24161  0.64016  1.0000
  C   C240      1.0  0.38017  0.25269  0.62500  1.0000
  C   C241      1.0  0.37631  0.27667  0.62692  1.0000
  C   C242      1.0  0.38748  0.28982  0.64396  1.0000
  C   C243      1.0  0.40245  0.27869  0.65922  1.0000
  C   C244      1.0  0.40625  0.25473  0.65735  1.0000
  H   H399      1.0  0.37172  0.24286  0.61162  1.0000
  H   H400      1.0  0.36471  0.28511  0.61501  1.0000
  H   H401      1.0  0.41112  0.28854  0.67245  1.0000
  H   H402      1.0  0.41794  0.24631  0.66918  1.0000
  C   C245      1.0  0.29383  0.11520  0.62359  1.0000
  C   C246      1.0  0.30231  0.09283  0.62684  1.0000
  C   C247      1.0  0.28686  0.07438  0.62993  1.0000
  C   C248      1.0  0.26286  0.07809  0.62979  1.0000
  C   C249      1.0  0.25444  0.10031  0.62575  1.0000
  C   C250      1.0  0.26984  0.11874  0.62280  1.0000
  H   H403      1.0  0.32072  0.08985  0.62755  1.0000
  H   H404      1.0  0.29355  0.05719  0.63281  1.0000
  H   H405      1.0  0.23605  0.10328  0.62494  1.0000
  H   H406      1.0  0.26311  0.13593  0.62000  1.0000
  C   C251      1.0  0.47419  0.13895  0.66200  1.0000
  C   C252      1.0  0.45501  0.13386  0.64807  1.0000
  C   C253      1.0  0.45558  0.11480  0.63327  1.0000
  C   C254      1.0  0.47580  0.10130  0.63214  1.0000
  H   H407      1.0  0.37707  0.47945  0.71436  1.0000
  H   H408      1.0  0.43951  0.14427  0.64929  1.0000
  H   H409      1.0  0.47637  0.08650  0.62076  1.0000
  H   H410      1.0  0.24693  0.04921  0.69257  1.0000
  C   C255      1.0  0.29709  0.13813  0.54461  1.0000
  H   H411      1.0  0.49100  0.19775  0.67487  1.0000
  H   H412      1.0  0.42059  0.34203  0.60542  1.0000
  H   H413      1.0  0.29364  0.08211  0.57873  1.0000
  H   H414      1.0  0.46119  0.27143  0.57976  1.0000
  C   C256      1.0  0.33686  0.44151  0.61397  1.0000
  H   H415      1.0  0.47610  0.25288  0.59875  1.0000
  C   C257      1.0  0.50159  0.42249  0.65543  1.0000
  C   C258      1.0  0.46143  0.26535  0.59782  1.0000
  C   C259      1.0  0.49930  0.35638  0.64561  1.0000
  H   H416      1.0  0.33162  0.41865  0.65702  1.0000
  H   H417      1.0  0.21021  0.11769  0.67486  1.0000
  N   N13       1.0  0.46543  0.28497  0.61453  1.0000
  H   H418      1.0  0.48342  0.30336  0.57257  1.0000
  C   C260      1.0  0.33765  0.07378  0.56737  1.0000
  S   S71       1.0  0.32840  0.49724  0.65738  1.0000
  C   C261      1.0  0.44610  0.30249  0.61405  1.0000
  C   C262      1.0  0.22814  0.11278  0.52402  1.0000
  C   C263      1.0  0.28144  0.08503  0.56442  1.0000
  H   H419      1.0  0.45070  0.22078  0.58264  1.0000
  H   H420      1.0  0.49996  0.02808  0.72901  1.0000
  H   H421      1.0  0.30346  0.42658  0.53350  1.0000
  H   H422      1.0  0.30594  0.42002  0.61080  1.0000
  H   H423      1.0  0.19822  0.15769  0.68758  1.0000
  H   H424      1.0  0.34659  0.50200  0.70962  1.0000
  H   H425      1.0  0.45828  0.05940  0.71119  1.0000
  H   H426      1.0  0.47840  0.25987  0.63877  1.0000
  H   H427      1.0  0.44980  0.31703  0.62598  1.0000
  H   H428      1.0  0.21095  0.13386  0.55013  1.0000
  H   H429      1.0  0.28103  0.16929  0.55802  1.0000
  H   H430      1.0  0.23226  0.12917  0.65749  1.0000
  H   H431      1.0  0.21709  0.14755  0.71895  1.0000
  H   H432      1.0  0.07336  0.00401  0.75105  1.0000
  H   H433      1.0  0.33790  0.06873  0.53107  1.0000
  N   N14       1.0  0.31497  0.09783  0.53714  1.0000
  H   H434      1.0  0.26967  0.06575  0.67972  1.0000
  H   H435      1.0  0.09841  0.03744  0.56815  1.0000
  H   H436      1.0  0.46948  0.03240  0.73447  1.0000
  C   C264      1.0  0.46622  0.27475  0.63842  1.0000
  H   H437      1.0  0.33240  0.12811  0.55020  1.0000
  C   C265      1.0  0.47310  0.29132  0.65827  1.0000
  C   C266      1.0  0.36097  0.06207  0.57149  1.0000
  H   H438      1.0  0.31326  0.11587  0.57010  1.0000
  C   C267      1.0  0.47329  0.27878  0.68137  1.0000
  C   C268      1.0  0.45534  0.09499  0.70064  1.0000
  H   H439      1.0  0.07570  0.02163  0.53544  1.0000
  H   H440      1.0  0.44912  0.26785  0.64329  1.0000
  H   H441      1.0  0.19198  0.11630  0.51594  1.0000
  C   C269      1.0  0.41893  0.32854  0.59191  1.0000
  C   C270      1.0  0.43897  0.25143  0.60126  1.0000
  C   C271      1.0  0.24035  0.08604  0.69214  1.0000
  C   C272      1.0  0.49447  0.12562  0.66073  1.0000
  C   C273      1.0  0.11818  0.07712  0.74389  1.0000
  H   H442      1.0  0.01457  0.14657  0.74835  1.0000
  C   C274      1.0  0.36153  0.46221  0.58685  1.0000
  C   C275      1.0  0.49041  0.19843  0.65579  1.0000
  H   H443      1.0  0.41870  0.08688  0.70278  1.0000
  H   H444      1.0  0.42692  0.10316  0.67774  1.0000
  C   C276      1.0  0.49552  0.05377  0.68703  1.0000
  H   H445      1.0  0.35194  0.09441  0.53979  1.0000
  C   C277      1.0  0.36145  0.41998  0.58595  1.0000
  C   C278      1.0  0.38014  0.41501  0.60446  1.0000
  C   C279      1.0  0.32226  0.42026  0.62076  1.0000
  H   H446      1.0  0.30392  0.40668  0.65029  1.0000
  H   H447      1.0  0.49339  0.18078  0.64933  1.0000
  H   H448      1.0  0.15923  0.12940  0.74506  1.0000
  C   C280      1.0  0.39398  0.39329  0.59856  1.0000
  C   C281      1.0  0.14787  0.11469  0.74472  1.0000
  H   H449      1.0  0.27281  0.19273  0.67765  1.0000
  H   H450      1.0  0.50179  0.27918  0.57877  1.0000
  H   H451      1.0  0.37142  0.46112  0.57045  1.0000
  C   C282      1.0  0.38796  0.48698  0.72824  1.0000
  H   H452      1.0  0.32550  0.45683  0.61655  1.0000
  C   C283      1.0  0.31237  0.44340  0.53191  1.0000
  C   C284      1.0  0.48844  0.29630  0.60985  1.0000
  H   H453      1.0  0.35061  0.40431  0.58420  1.0000
  H   H454      1.0  0.37073  0.42132  0.56924  1.0000
  H   H455      1.0  0.37239  0.41220  0.62169  1.0000
  H   H456      1.0  0.39245  0.42949  0.60573  1.0000
  C   C285      1.0  0.09484  0.02095  0.53528  1.0000
  H   H457      1.0  0.33161  0.40384  0.61761  1.0000
  H   H458      1.0  0.26981  0.04943  0.56624  1.0000
  H   H459      1.0  0.23441  0.12819  0.51477  1.0000
  H   H460      1.0  0.31387  0.45426  0.57762  1.0000
  H   H461      1.0  0.37528  0.07451  0.56924  1.0000
  H   H462      1.0  0.31759  0.44568  0.51365  1.0000
  H   H463      1.0  0.06487  0.03429  0.64788  1.0000
  H   H464      1.0  0.48598  0.26438  0.68116  1.0000
  H   H465      1.0  0.38260  0.37795  0.59822  1.0000
  H   H466      1.0  0.40270  0.39510  0.58164  1.0000
  H   H467      1.0  0.40738  0.39048  0.61194  1.0000
  H   H468      1.0  0.10124  0.03623  0.52580  1.0000
  H   H469      1.0  0.26803  0.14907  0.70885  1.0000
  H   H470      1.0  0.41926  0.47526  0.74639  1.0000
  H   H471      1.0  0.45340  0.19298  0.65586  1.0000
  H   H472      1.0  0.46406  0.20577  0.62988  1.0000
  H   H473      1.0  0.08913  0.05322  0.64332  1.0000
  H   H474      1.0  0.48237  0.06208  0.67590  1.0000
  H   H475      1.0  0.32425  0.06042  0.56971  1.0000
  H   H476      1.0  0.26312  0.10897  0.67493  1.0000
  H   H477      1.0  0.43801  0.30075  0.57684  1.0000
  H   H478      1.0  0.26601  0.06572  0.71069  1.0000
  N   N15       1.0  0.34669  0.44117  0.58994  1.0000
  H   H479      1.0  0.27349  0.10223  0.56719  1.0000
  C   C286      1.0  0.43227  0.08903  0.68948  1.0000
  N   N16       1.0  0.48812  0.07715  0.72511  1.0000
  H   H480      1.0  0.35084  0.44365  0.62677  1.0000
  H   H481      1.0  0.48758  0.03832  0.69467  1.0000
  H   H482      1.0  0.38982  0.44347  0.74787  1.0000
  C   C287      1.0  0.09327  0.01760  0.61180  1.0000
  H   H483      1.0  0.33437  0.48674  0.57530  1.0000
  C   C288      1.0  0.20583  0.10326  0.51317  1.0000
  N   N17       1.0  0.23931  0.13062  0.69408  1.0000
  C   C289      1.0  0.49529  0.10687  0.64554  1.0000
  H   H484      1.0  0.50256  0.28724  0.61927  1.0000
  H   H485      1.0  0.40375  0.31766  0.59595  1.0000
  C   C290      1.0  0.08375  0.03627  0.65027  1.0000
  H   H486      1.0  0.34182  0.48925  0.60519  1.0000
  C   C291      1.0  0.22410  0.11990  0.54911  1.0000
  H   H487      1.0  0.45589  0.27197  0.68537  1.0000
  H   H488      1.0  0.17907  0.13987  0.65434  1.0000
  H   H489      1.0  0.42069  0.47174  0.71561  1.0000
  C   C292      1.0  0.46302  0.07648  0.71829  1.0000
  H   H490      1.0  0.34551  0.43010  0.54158  1.0000
  H   H491      1.0  0.49797  0.40763  0.64392  1.0000
  H   H492      1.0  0.05118  0.15437  0.74945  1.0000
  H   H493      1.0  0.22014  0.16961  0.66922  1.0000
  H   H494      1.0  0.47314  0.15313  0.67409  1.0000
  H   H495      1.0  0.10031  0.03449  0.60619  1.0000
  C   C293      1.0  0.26234  0.06710  0.56634  1.0000
  H   H496      1.0  0.43386  0.07298  0.67909  1.0000
  C   C294      1.0  0.29339  0.08372  0.54048  1.0000
  H   H497      1.0  0.26756  0.10859  0.70494  1.0000
  H   H498      1.0  0.10067  0.00521  0.52596  1.0000
  H   H499      1.0  0.42991  0.29487  0.62077  1.0000
  H   H500      1.0  0.36349  0.04743  0.55936  1.0000
  H   H501      1.0  0.23037  0.08411  0.67595  1.0000
  H   H502      1.0  0.46153  0.22282  0.65603  1.0000
  H   H503      1.0  0.45185  0.07876  0.73377  1.0000
  H   H504      1.0  0.41993  0.22341  0.58568  1.0000
  H   H505      1.0  0.39289  0.43978  0.71715  1.0000
  C   C295      1.0  0.25683  0.06548  0.69392  1.0000
  H   H506      1.0  0.46828  0.09684  0.68683  1.0000
  H   H507      1.0  0.46072  0.30587  0.65988  1.0000
  H   H508      1.0  0.33539  0.08726  0.58074  1.0000
  H   H509      1.0  0.29705  0.06522  0.53666  1.0000
  C   C296      1.0  0.10431  0.02120  0.55984  1.0000
  H   H510      1.0  0.18294  0.17023  0.64975  1.0000
  H   H511      1.0  0.08916  0.13383  0.74525  1.0000
  H   H512      1.0  0.37323  0.50266  0.63540  1.0000
  C   C297      1.0  0.26931  0.15563  0.67250  1.0000
  C   C298      1.0  0.20874  0.15459  0.67190  1.0000
  H   H513      1.0  0.48042  0.10713  0.74632  1.0000
  H   H514      1.0  0.30922  0.16332  0.56972  1.0000
  H   H515      1.0  0.29625  0.17560  0.68940  1.0000
  C   C299      1.0  0.22293  0.13196  0.67396  1.0000
  C   C300      1.0  0.40171  0.44567  0.73307  1.0000
  H   H516      1.0  0.30351  0.14793  0.52950  1.0000
  C   C301      1.0  0.31523  0.11962  0.55147  1.0000
  H   H517      1.0  0.30020  0.45752  0.53660  1.0000
  H   H518      1.0  0.25795  0.15804  0.65736  1.0000
  H   H519      1.0  0.27999  0.08877  0.52778  1.0000
  H   H520      1.0  0.49057  0.29835  0.65550  1.0000
  H   H521      1.0  0.30742  0.43756  0.65087  1.0000
  C   C302      1.0  0.01206  0.12797  0.75176  1.0000
  C   C303      1.0  0.22526  0.13041  0.71597  1.0000
  H   H522      1.0  0.28133  0.14114  0.66885  1.0000
  C   C304      1.0  0.33368  0.44406  0.54734  1.0000
  C   C305      1.0  0.33625  0.08384  0.54275  1.0000
  H   H523      1.0  0.20161  0.14988  0.63524  1.0000
  H   H524      1.0  0.21821  0.10500  0.55950  1.0000
  H   H525      1.0  0.41704  0.43446  0.73568  1.0000
  H   H526      1.0  0.36169  0.05539  0.58937  1.0000
  C   C306      1.0  0.32699  0.44092  0.57301  1.0000
  H   H527      1.0  0.28457  0.14674  0.57896  1.0000
  H   H528      1.0  0.24032  0.12652  0.55672  1.0000
  H   H529      1.0  0.48326  0.36585  0.64423  1.0000
  C   C307      1.0  0.37279  0.14056  0.50907  1.0000
  H   H530      1.0  0.20067  0.08829  0.52387  1.0000
  H   H531      1.0  0.37739  0.48547  0.74415  1.0000
  H   H532      1.0  0.08761  0.03597  0.66901  1.0000
  C   C308      1.0  0.29276  0.15540  0.56406  1.0000
  C   C309      1.0  0.31593  0.42094  0.64630  1.0000
  H   H533      1.0  0.25284  0.06956  0.58277  1.0000
  H   H534      1.0  0.45512  0.32530  0.58560  1.0000
  H   H535      1.0  0.47819  0.29105  0.69525  1.0000
  C   C310      1.0  0.25375  0.10905  0.69165  1.0000
  H   H536      1.0  0.43935  0.24215  0.61788  1.0000
  C   C311      1.0  0.49684  0.29685  0.58444  1.0000
  H   H537      1.0  0.21053  0.11833  0.71442  1.0000
  H   H538      1.0  0.22819  0.08505  0.70680  1.0000
  C   C312      1.0  0.28392  0.17732  0.67486  1.0000
  H   H539      1.0  0.41584  0.33711  0.57512  1.0000
  C   C313      1.0  0.40917  0.47076  0.73079  1.0000
  H   H540      1.0  0.43474  0.24132  0.56524  1.0000
  H   H541      1.0  0.42358  0.26284  0.60077  1.0000
  H   H542      1.0  0.24546  0.16712  0.69916  1.0000
  H   H543      1.0  0.37494  0.46290  0.60048  1.0000
  H   H544      1.0  0.45333  0.11200  0.70931  1.0000
  S   S72       1.0  0.14751  0.14271  0.50637  1.0000
  H   H545      1.0  0.25265  0.13666  0.74155  1.0000
  H   H546      1.0  0.24982  0.06879  0.55200  1.0000
  H   H547      1.0  0.11526  0.01839  0.64256  1.0000
  S   S73       1.0  0.38593  0.38807  0.74571  1.0000
  C   C314      1.0  0.23847  0.12432  0.73837  1.0000
  C   C315      1.0  0.49190  0.06125  0.74531  1.0000
  H   H548      1.0  0.31764  0.42426  0.57406  1.0000
  H   H549      1.0  0.16760  0.07423  0.51073  1.0000
  H   H550      1.0  0.30099  0.11483  0.50700  1.0000
  H   H551      1.0  0.20864  0.00851  0.71528  1.0000
  H   H552      1.0  0.29401  0.17986  0.65879  1.0000
  C   C316      1.0  0.48707  0.03536  0.74120  1.0000
  C   C317      1.0  0.49333  0.10139  0.73324  1.0000
  H   H553      1.0  0.24162  0.09929  0.52394  1.0000
  C   C318      1.0  0.38264  0.11882  0.51269  1.0000
  H   H554      1.0  0.13541  0.01838  0.59517  1.0000
  H   H555      1.0  0.34224  0.46084  0.54444  1.0000
  H   H556      1.0  0.24587  0.10667  0.73747  1.0000
  H   H557      1.0  0.48848  0.31428  0.61672  1.0000
  H   H558      1.0  0.07444  0.01875  0.60829  1.0000
  C   C319      1.0  0.09676  0.01665  0.63827  1.0000
  H   H559      1.0  0.12337  0.02159  0.55856  1.0000
  H   H560      1.0  0.17330  0.00617  0.57908  1.0000
  H   H561      1.0  0.33133  0.11665  0.50946  1.0000
  H   H562      1.0  0.11840  0.10174  0.51159  1.0000
  Fe  Fe37      1.0  0.16198  0.32088  0.92286  1.0000
  S   S74       1.0  0.15453  0.30196  0.95583  1.0000
  S   S75       1.0  0.19845  0.31959  0.90795  1.0000
  Fe  Fe38      1.0  0.11110  0.33625  0.91755  1.0000
  S   S76       1.0  0.10063  0.31942  0.95058  1.0000
  S   S77       1.0  0.08677  0.35708  0.89463  1.0000
  Fe  Fe39      1.0  0.13368  0.33342  0.96572  1.0000
  H   H563      1.0  0.03926  0.17791  0.86508  1.0000
  Fe  Fe40      1.0  0.12238  0.28946  0.93762  1.0000
  S   S78       1.0  0.10629  0.25352  0.93782  1.0000
  S   S79       1.0  0.14253  0.35266  0.93321  1.0000
  S   S80       1.0  0.13143  0.30595  0.90405  1.0000
  Fe  Fe41      1.0  0.34469  0.43881  0.88510  1.0000
  S   S81       1.0  0.37324  0.41349  0.89241  1.0000
  S   S82       1.0  0.34951  0.47158  0.86400  1.0000
  Fe  Fe42      1.0  0.30725  0.40441  0.90137  1.0000
  S   S83       1.0  0.33321  0.37669  0.90912  1.0000
  S   S84       1.0  0.26903  0.40331  0.91043  1.0000
  Fe  Fe43      1.0  0.35384  0.40516  0.92512  1.0000
  S   S85       1.0  0.36953  0.40386  0.96111  1.0000
  Fe  Fe44      1.0  0.35010  0.38737  0.87566  1.0000
  S   S86       1.0  0.36420  0.36119  0.84987  1.0000
  S   S87       1.0  0.32703  0.43268  0.91897  1.0000
  S   S88       1.0  0.32242  0.41285  0.86671  1.0000
  Fe  Fe45      1.0  0.09515  0.10358  0.82134  1.0000
  S   S89       1.0  0.12258  0.10728  0.84838  1.0000
  S   S90       1.0  0.09941  0.08531  0.78659  1.0000
  Fe  Fe46      1.0  0.05631  0.11912  0.85517  1.0000
  S   S91       1.0  0.08105  0.12367  0.88457  1.0000
  S   S92       1.0  0.01763  0.12638  0.85388  1.0000
  Fe  Fe47      1.0  0.10398  0.14039  0.85835  1.0000
  S   S93       1.0  0.12328  0.17418  0.86292  1.0000
  Fe  Fe48      1.0  0.09745  0.09026  0.87222  1.0000
  S   S94       1.0  0.10501  0.06030  0.89638  1.0000
  S   S95       1.0  0.07836  0.13777  0.82935  1.0000
  S   S96       1.0  0.07087  0.08475  0.84482  1.0000
  H   H564      1.0  0.29915  0.39130  0.76115  1.0000
  H   H565      1.0  0.15129  0.15133  0.94703  1.0000
  H   H566      1.0  0.48625  0.00320  0.76016  1.0000
  H   H567      1.0  0.12957  0.13184  0.92368  1.0000
  H   H568      1.0  0.04973  0.37357  0.93684  1.0000
  C   C320      1.0  0.17758  0.15280  0.97274  1.0000
  H   H569      1.0  0.19859  0.03534  0.92994  1.0000
  H   H570      1.0  0.28575  0.32068  0.92805  1.0000
  H   H571      1.0  0.09709  0.04120  0.84732  1.0000
  H   H572      1.0  0.35263  0.44981  0.78242  1.0000
  H   H573      1.0  0.19544  0.14657  0.97595  1.0000
  H   H574      1.0  0.02222  0.17303  0.82318  1.0000
  H   H575      1.0  0.43198  0.41899  0.85934  1.0000
  C   C321      1.0  0.14323  0.04028  0.87523  1.0000
  C   C322      1.0  0.12475  0.03750  0.89042  1.0000
  H   H576      1.0  0.47646  0.02787  0.77646  1.0000
  H   H577      1.0  0.14548  0.05653  0.86648  1.0000
  C   C323      1.0  0.30454  0.38512  0.77842  1.0000
  C   C324      1.0  0.37941  0.37922  0.77418  1.0000
  C   C325      1.0  0.36486  0.39336  0.78757  1.0000
  C   C326      1.0  0.36004  0.38804  0.81071  1.0000
  C   C327      1.0  0.36954  0.36828  0.82068  1.0000
  C   C328      1.0  0.38366  0.35378  0.80715  1.0000
  C   C329      1.0  0.38873  0.35930  0.78404  1.0000
  H   H578      1.0  0.35730  0.40858  0.77996  1.0000
  H   H579      1.0  0.34899  0.39923  0.82082  1.0000
  H   H580      1.0  0.39097  0.33836  0.81468  1.0000
  H   H581      1.0  0.03050  0.09472  0.81374  1.0000
  C   C330      1.0  0.35849  0.35924  0.97361  1.0000
  C   C331      1.0  0.36272  0.38179  0.98094  1.0000
  C   C332      1.0  0.11861  0.09138  0.76352  1.0000
  H   H582      1.0  0.35844  0.35522  0.95540  1.0000
  H   H583      1.0  0.03352  0.16717  0.89338  1.0000
  C   C333      1.0  0.11063  0.23199  0.91634  1.0000
  C   C334      1.0  0.09788  0.21144  0.91738  1.0000
  C   C335      1.0  0.10123  0.19370  0.90099  1.0000
  C   C336      1.0  0.11757  0.19627  0.88347  1.0000
  C   C337      1.0  0.13006  0.21693  0.88223  1.0000
  C   C338      1.0  0.12654  0.23475  0.89847  1.0000
  H   H584      1.0  0.08552  0.20916  0.93113  1.0000
  H   H585      1.0  0.09145  0.17795  0.90215  1.0000
  H   H586      1.0  0.14274  0.21910  0.86875  1.0000
  H   H587      1.0  0.13651  0.25041  0.89745  1.0000
  C   C339      1.0  0.02387  0.35514  0.86376  1.0000
  C   C340      1.0  0.04620  0.36162  0.87067  1.0000
  C   C341      1.0  0.05811  0.34922  0.88773  1.0000
  C   C342      1.0  0.04711  0.33078  0.89848  1.0000
  C   C343      1.0  0.02482  0.32423  0.89149  1.0000
  H   H588      1.0  0.16885  0.03487  0.92126  1.0000
  H   H589      1.0  0.05455  0.37597  0.86232  1.0000
  H   H590      1.0  0.05593  0.32139  0.91195  1.0000
  C   C344      1.0  0.21802  0.34289  0.90961  1.0000
  C   C345      1.0  0.21080  0.36510  0.91574  1.0000
  C   C346      1.0  0.22670  0.38335  0.91610  1.0000
  C   C347      1.0  0.24997  0.37959  0.91047  1.0000
  C   C348      1.0  0.25733  0.35730  0.90484  1.0000
  C   C349      1.0  0.24139  0.33907  0.90424  1.0000
  H   H591      1.0  0.19289  0.36829  0.91992  1.0000
  H   H592      1.0  0.22084  0.40053  0.92057  1.0000
  H   H593      1.0  0.27528  0.35420  0.90095  1.0000
  H   H594      1.0  0.24714  0.32189  0.89967  1.0000
  H   H595      1.0  0.11440  0.00389  0.84660  1.0000
  N   N18       1.0  0.27188  0.36026  0.83216  1.0000
  C   C350      1.0  0.25045  0.35232  0.81974  1.0000
  C   C351      1.0  0.29086  0.36583  0.81515  1.0000
  C   C352      1.0  0.28012  0.34048  0.84698  1.0000
  C   C353      1.0  0.26690  0.38057  0.84772  1.0000
  C   C354      1.0  0.25778  0.40269  0.83600  1.0000
  C   C355      1.0  0.22977  0.34532  0.83521  1.0000
  C   C356      1.0  0.30418  0.34333  0.85838  1.0000
  C   C357      1.0  0.28363  0.37606  0.79153  1.0000
  H   H596      1.0  0.20545  0.33901  0.98131  1.0000
  C   C358      1.0  0.25088  0.42087  0.85387  1.0000
  C   C359      1.0  0.20905  0.33819  0.82064  1.0000
  C   C360      1.0  0.31052  0.32226  0.87280  1.0000
  H   H597      1.0  0.25478  0.33729  0.80849  1.0000
  H   H598      1.0  0.24382  0.36575  0.80791  1.0000
  H   H599      1.0  0.30370  0.37759  0.82327  1.0000
  H   H600      1.0  0.30076  0.34994  0.81050  1.0000
  H   H601      1.0  0.28075  0.32424  0.83666  1.0000
  H   H602      1.0  0.26783  0.33731  0.86127  1.0000
  H   H603      1.0  0.25461  0.37574  0.86149  1.0000
  H   H604      1.0  0.28262  0.38578  0.85714  1.0000
  H   H605      1.0  0.24241  0.39922  0.82527  1.0000
  H   H606      1.0  0.27156  0.41038  0.82530  1.0000
  H   H607      1.0  0.23418  0.33043  0.84632  1.0000
  H   H608      1.0  0.22406  0.35985  0.84633  1.0000
  H   H609      1.0  0.30459  0.35855  0.86990  1.0000
  H   H610      1.0  0.31786  0.34528  0.84524  1.0000
  H   H611      1.0  0.43805  0.44338  0.98245  1.0000
  C   C361      1.0  0.48934  0.02177  0.76361  1.0000
  H   H612      1.0  0.37750  0.46883  0.82500  1.0000
  C   C362      1.0  0.09246  0.11529  0.94613  1.0000
  H   H613      1.0  0.45816  0.43071  0.75762  1.0000
  H   H614      1.0  0.26607  0.42607  0.86427  1.0000
  H   H615      1.0  0.24401  0.43641  0.84508  1.0000
  H   H616      1.0  0.23733  0.41416  0.86557  1.0000
  H   H617      1.0  0.19464  0.33315  0.83215  1.0000
  H   H618      1.0  0.20311  0.35275  0.80973  1.0000
  H   H619      1.0  0.21353  0.32321  0.80950  1.0000
  H   H620      1.0  0.31171  0.30664  0.86174  1.0000
  H   H621      1.0  0.32758  0.32503  0.88103  1.0000
  H   H622      1.0  0.29754  0.31942  0.88653  1.0000
  H   H623      1.0  0.36674  0.43997  0.82225  1.0000
  N   N19       1.0  0.27779  0.36673  0.98444  1.0000
  C   C363      1.0  0.25348  0.37560  0.98789  1.0000
  C   C364      1.0  0.29243  0.38616  0.97538  1.0000
  C   C365      1.0  0.27680  0.34845  0.96589  1.0000
  C   C366      1.0  0.08624  0.02691  0.84083  1.0000
  H   H624      1.0  0.05285  0.20432  0.83568  1.0000
  H   H625      1.0  0.13617  0.04100  0.77697  1.0000
  C   C367      1.0  0.30026  0.33818  0.95797  1.0000
  C   C368      1.0  0.36478  0.49744  0.86972  1.0000
  C   C369      1.0  0.16887  0.14421  0.94941  1.0000
  C   C370      1.0  0.42932  0.40779  0.84404  1.0000
  H   H626      1.0  0.08107  0.01198  0.87488  1.0000
  H   H627      1.0  0.24745  0.38473  0.97207  1.0000
  C   C371      1.0  0.12237  0.01637  0.90195  1.0000
  H   H628      1.0  0.03427  0.33074  0.82182  1.0000
  H   H629      1.0  0.28516  0.39264  0.95881  1.0000
  H   H630      1.0  0.26803  0.35537  0.95033  1.0000
  H   H631      1.0  0.26624  0.33364  0.97166  1.0000
  C   C372      1.0  0.04983  0.12242  0.77012  1.0000
  H   H632      1.0  0.40958  0.48983  0.81623  1.0000
  N   N20       1.0  0.11450  0.01106  0.81001  1.0000
  H   H633      1.0  0.35246  0.32414  0.98407  1.0000
  H   H634      1.0  0.18888  0.07127  0.91029  1.0000
  H   H635      1.0  0.06076  0.03421  0.86727  1.0000
  H   H636      1.0  0.31100  0.33319  0.97292  1.0000
  H   H637      1.0  0.30983  0.35084  0.94744  1.0000
  H   H638      1.0  0.44763  0.49484  0.85275  1.0000
  H   H639      1.0  0.29652  0.43321  0.96491  1.0000
  H   H640      1.0  0.07500  0.03377  0.82703  1.0000
  H   H641      1.0  0.05713  0.15814  0.77990  1.0000
  C   C373      1.0  0.00486  0.12285  0.89994  1.0000
  C   C374      1.0  0.35523  0.34164  0.98990  1.0000
  H   H642      1.0  0.02932  0.36747  0.95934  1.0000
  H   H643      1.0  0.17683  0.12560  0.86007  1.0000
  H   H644      1.0  0.43640  0.37704  0.86406  1.0000
  C   C375      1.0  0.42256  0.38401  0.85283  1.0000
  H   H645      1.0  0.04814  0.27568  0.92258  1.0000
  H   H646      1.0  0.41998  0.37186  0.83825  1.0000
  H   H647      1.0  0.34036  0.46775  0.80475  1.0000
  H   H648      1.0  0.04158  0.19703  0.88956  1.0000
  C   C376      1.0  0.16157  0.05756  0.79788  1.0000
  H   H649      1.0  0.39232  0.43279  0.78887  1.0000
  H   H650      1.0  0.08290  0.11249  0.96244  1.0000
  H   H651      1.0  0.13272  0.30134  0.85215  1.0000
  C   C377      1.0  0.43761  0.41539  0.78501  1.0000
  C   C378      1.0  0.45839  0.41524  0.76884  1.0000
  H   H652      1.0  0.12454  0.11768  0.96421  1.0000
  H   H653      1.0  0.31240  0.39976  0.78790  1.0000
  H   H654      1.0  0.18801  0.11275  0.94798  1.0000
  C   C379      1.0  0.42527  0.48313  0.82486  1.0000
  H   H655      1.0  0.16533  0.09831  0.89257  1.0000
  H   H656      1.0  0.04974  0.08087  0.79350  1.0000
  H   H657      1.0  0.40232  0.46148  0.78901  1.0000
  C   C380      1.0  0.13193  0.11321  0.92722  1.0000
  H   H658      1.0  0.47470  0.41477  0.77884  1.0000
  H   H659      1.0  0.01661  0.30968  0.89958  1.0000
  N   N21       1.0  0.41668  0.44013  0.81606  1.0000
  H   H660      1.0  0.20799  0.11264  0.75693  1.0000
  C   C381      1.0  0.16871  0.11220  0.90546  1.0000
  H   H661      1.0  0.45369  0.43569  0.81201  1.0000
  H   H662      1.0  0.44599  0.40581  0.83492  1.0000
  C   C382      1.0  0.15915  0.02213  0.87171  1.0000
  H   H663      1.0  0.05917  0.11676  0.78582  1.0000
  H   H664      1.0  0.39496  0.42090  0.83941  1.0000
  N   N22       1.0  0.15712  0.10652  0.92808  1.0000
  H   H665      1.0  0.39990  0.34821  0.77393  1.0000
  H   H666      1.0  0.31015  0.38001  0.97129  1.0000
  H   H667      1.0  0.40759  0.45893  0.84720  1.0000
  H   H668      1.0  0.44053  0.45211  0.79015  1.0000
  C   C383      1.0  0.02940  0.31437  0.81317  1.0000
  C   C384      1.0  0.16945  0.11757  0.94812  1.0000
  H   H669      1.0  0.43744  0.45379  0.84379  1.0000
  H   H670      1.0  0.03055  0.13465  0.80753  1.0000
  H   H671      1.0  0.07733  0.21023  0.81732  1.0000
  H   H672      1.0  0.15796  0.02203  0.78849  1.0000
  H   H673      1.0  0.17625  0.04009  0.95106  1.0000
  H   H674      1.0  0.43818  0.39915  0.79503  1.0000
  H   H675      1.0  0.31391  0.31056  0.93660  1.0000
  C   C385      1.0  0.01424  0.38118  0.92779  1.0000
  H   H676      1.0  0.14659  0.07194  0.91896  1.0000
  H   H677      1.0  0.10829  0.01411  0.91395  1.0000
  H   H678      1.0  0.00533  0.20444  0.86805  1.0000
  H   H679      1.0  0.04199  0.27993  0.80857  1.0000
  C   C386      1.0  0.11763  0.10806  0.94919  1.0000
  H   H680      1.0  0.17298  0.05390  0.81281  1.0000
  H   H681      1.0  0.15230  0.07575  0.94875  1.0000
  H   H682      1.0  0.36284  0.47898  0.78667  1.0000
  H   H683      1.0  0.14124  0.02896  0.82868  1.0000
  H   H684      1.0  0.05657  0.02449  0.76777  1.0000
  C   C387      1.0  0.16113  0.13468  0.89308  1.0000
  C   C388      1.0  0.03139  0.08390  0.79799  1.0000
  H   H685      1.0  0.01529  0.36421  0.84992  1.0000
  C   C389      1.0  0.05947  0.14663  0.76478  1.0000
  C   C390      1.0  0.37441  0.45459  0.81275  1.0000
  H   H686      1.0  0.09110  0.13382  0.94153  1.0000
  C   C391      1.0  0.18247  0.06920  0.92817  1.0000
  H   H687      1.0  0.24304  0.34138  0.00176  1.0000
  H   H688      1.0  0.16084  0.14991  0.90452  1.0000
  H   H689      1.0  0.15077  0.07297  0.80180  1.0000
  H   H690      1.0  0.02300  0.12086  0.90381  1.0000
  C   C392      1.0  0.01860  0.09558  0.77763  1.0000
  H   H691      1.0  0.02789  0.25224  0.92143  1.0000
  C   C393      1.0  0.17705  0.13994  0.87280  1.0000
  H   H692      1.0  0.17765  0.17195  0.97292  1.0000
  H   H693      1.0  0.02012  0.39263  0.91373  1.0000
  C   C394      1.0  0.18140  0.04333  0.93293  1.0000
  H   H694      1.0  0.14344  0.13266  0.88617  1.0000
  C   C395      1.0  0.06281  0.00637  0.76687  1.0000
  H   H695      1.0  0.16276  0.11068  0.96469  1.0000
  H   H696      1.0  0.40500  0.40477  0.81560  1.0000
  C   C396      1.0  0.42158  0.45834  0.83400  1.0000
  C   C397      1.0  0.04705  0.29548  0.81849  1.0000
  H   H697      1.0  0.12381  0.33103  0.84989  1.0000
  H   H698      1.0  0.18778  0.11267  0.90774  1.0000
  C   C398      1.0  0.03171  0.18248  0.88206  1.0000
  C   C399      1.0  0.43786  0.43676  0.80125  1.0000
  H   H699      1.0  0.06399  0.30138  0.81206  1.0000
  C   C400      1.0  0.41034  0.41815  0.82824  1.0000
  H   H700      1.0  0.12349  0.10431  0.91245  1.0000
  H   H701      1.0  0.05832  0.24635  0.91924  1.0000
  C   C401      1.0  0.29692  0.31672  0.94305  1.0000
  H   H702      1.0  0.12020  0.04728  0.81660  1.0000
  C   C402      1.0  0.13383  0.11000  0.76400  1.0000
  C   C403      1.0  0.35654  0.46327  0.79546  1.0000
  C   C404      1.0  0.39702  0.44720  0.80056  1.0000
  H   H703      1.0  0.19531  0.07667  0.94015  1.0000
  H   H704      1.0  0.00655  0.07214  0.97337  1.0000
  H   H705      1.0  0.12153  0.31224  0.82518  1.0000
  H   H706      1.0  0.08425  0.10470  0.93246  1.0000
  H   H707      1.0  0.22794  0.34325  0.96049  1.0000
  C   C405      1.0  0.15837  0.08066  0.93128  1.0000
  H   H708      1.0  0.03713  0.39701  0.95305  1.0000
  H   H709      1.0  0.40646  0.38514  0.86310  1.0000
  N   N23       1.0  0.06609  0.27336  0.85230  1.0000
  C   C406      1.0  0.06174  0.25045  0.84082  1.0000
  C   C407      1.0  0.04766  0.29013  0.84465  1.0000
  C   C408      1.0  0.08979  0.28156  0.84551  1.0000
  C   C409      1.0  0.06527  0.27132  0.87819  1.0000
  C   C410      1.0  0.04286  0.26094  0.88834  1.0000
  C   C411      1.0  0.07670  0.22995  0.84938  1.0000
  C   C412      1.0  0.09543  0.30698  0.85166  1.0000
  H   H710      1.0  0.16613  0.14685  0.98683  1.0000
  H   H711      1.0  0.11763  0.08940  0.95318  1.0000
  C   C413      1.0  0.04446  0.25871  0.91449  1.0000
  C   C414      1.0  0.07156  0.20817  0.83544  1.0000
  C   C415      1.0  0.11989  0.31317  0.84421  1.0000
  H   H712      1.0  0.06485  0.25175  0.82196  1.0000
  H   H713      1.0  0.04328  0.24557  0.84248  1.0000
  H   H714      1.0  0.03021  0.28361  0.84899  1.0000
  H   H715      1.0  0.04912  0.30663  0.85427  1.0000
  H   H716      1.0  0.09273  0.27923  0.82670  1.0000
  H   H717      1.0  0.10328  0.27076  0.85394  1.0000
  H   H718      1.0  0.08022  0.26109  0.88469  1.0000
  H   H719      1.0  0.06733  0.28852  0.88633  1.0000
  H   H720      1.0  0.03944  0.24355  0.88128  1.0000
  H   H721      1.0  0.02781  0.27213  0.88457  1.0000
  H   H722      1.0  0.09534  0.23366  0.84754  1.0000
  H   H723      1.0  0.07321  0.22606  0.86774  1.0000
  H   H724      1.0  0.09403  0.30999  0.87045  1.0000
  H   H725      1.0  0.08363  0.31925  0.84295  1.0000
  C   C416      1.0  0.13038  0.03129  0.81317  1.0000
  H   H726      1.0  0.08095  0.19330  0.84298  1.0000
  C   C417      1.0  0.00884  0.15993  0.79058  1.0000
  H   H727      1.0  0.17110  0.15588  0.86404  1.0000
  H   H728      1.0  0.19497  0.14274  0.87887  1.0000
  H   H729      1.0  0.27105  0.39034  0.79318  1.0000
  C   C418      1.0  0.01325  0.33615  0.87385  1.0000
  H   H730      1.0  0.02239  0.08521  0.76185  1.0000
  S   S97       1.0  0.13986  0.35737  0.99665  1.0000
  H   H731      1.0  0.02875  0.31745  0.79432  1.0000
  H   H732      1.0  0.42193  0.41507  0.77415  1.0000
  C   C419      1.0  0.14640  0.03677  0.79255  1.0000
  H   H733      1.0  0.18055  0.15141  0.93616  1.0000
  H   H734      1.0  0.13453  0.12103  0.77904  1.0000
  H   H735      1.0  0.17359  0.02455  0.86020  1.0000
  H   H736      1.0  0.43976  0.48364  0.81243  1.0000
  H   H737      1.0  0.17246  0.06154  0.78269  1.0000
  H   H738      1.0  0.10717  0.01614  0.77384  1.0000
  H   H739      1.0  0.28894  0.30271  0.95325  1.0000
  H   H740      1.0  0.20952  0.36700  0.96899  1.0000
  C   C420      1.0  0.30764  0.42688  0.97916  1.0000
  H   H741      1.0  0.27560  0.36240  0.78078  1.0000
  C   C421      1.0  0.42808  0.42849  0.97582  1.0000
  H   H742      1.0  0.09135  0.03456  0.79218  1.0000
  C   C422      1.0  0.21866  0.35132  0.97517  1.0000
  H   H743      1.0  0.03112  0.05232  0.81781  1.0000
  C   C423      1.0  0.03372  0.37978  0.94544  1.0000
  H   H744      1.0  0.43218  0.42606  0.95727  1.0000
  H   H745      1.0  0.37193  0.49039  0.90535  1.0000
  H   H746      1.0  0.48130  0.06717  0.76026  1.0000
  C   C424      1.0  0.09798  0.01656  0.79067  1.0000
  H   H747      1.0  0.01209  0.36383  0.92027  1.0000
  C   C425      1.0  0.29605  0.40699  0.99171  1.0000
  H   H748      1.0  0.25279  0.38915  0.00135  1.0000
  C   C426      1.0  0.43097  0.49965  0.84462  1.0000
  H   H749      1.0  0.31769  0.37130  0.77606  1.0000
  H   H750      1.0  0.02175  0.04886  0.78839  1.0000
  C   C427      1.0  0.01652  0.13453  0.79448  1.0000
  H   H751      1.0  0.40936  0.43236  0.97736  1.0000
  H   H752      1.0  0.45774  0.39970  0.75762  1.0000
  C   C428      1.0  0.00630  0.18906  0.87915  1.0000
  H   H753      1.0  0.41721  0.49937  0.85792  1.0000
  H   H754      1.0  0.00598  0.20385  0.91361  1.0000
  C   C429      1.0  0.07067  0.01919  0.86054  1.0000
  H   H755      1.0  0.01193  0.30927  0.81903  1.0000
  H   H756      1.0  0.45302  0.40362  0.98708  1.0000
  H   H757      1.0  0.23201  0.12046  0.77500  1.0000
  H   H758      1.0  0.01327  0.40280  0.87092  1.0000
  H   H759      1.0  0.32450  0.42131  0.97200  1.0000
  H   H760      1.0  0.42499  0.39210  0.98071  1.0000
  C   C430      1.0  0.43425  0.40660  0.98907  1.0000
  C   C431      1.0  0.22231  0.12510  0.75918  1.0000
  H   H761      1.0  0.02135  0.16969  0.78016  1.0000
  C   C432      1.0  0.23514  0.35737  0.99486  1.0000
  C   C433      1.0  0.37390  0.50256  0.89143  1.0000
  N   N24       1.0  0.02409  0.12071  0.77361  1.0000
  C   C434      1.0  0.10194  0.00691  0.83235  1.0000
  H   H762      1.0  0.05831  0.00597  0.85444  1.0000
  H   H763      1.0  0.31068  0.44134  0.99134  1.0000
  C   C435      1.0  0.02109  0.06042  0.80367  1.0000
  H   H764      1.0  0.27966  0.41384  0.99873  1.0000
  H   H765      1.0  0.09467  0.13919  0.77549  1.0000
  H   H766      1.0  0.21496  0.14268  0.76149  1.0000
  H   H767      1.0  0.09187  0.16293  0.75584  1.0000
  H   H768      1.0  0.05551  0.11043  0.75612  1.0000
  C   C436      1.0  0.08536  0.14549  0.76002  1.0000
  C   C437      1.0  0.00571  0.17262  0.81352  1.0000
  H   H769      1.0  0.39995  0.50314  0.77061  1.0000
  Fe  Fe49      1.0  0.10422  0.83792  0.11665  1.0000
  S   S98       1.0  0.09574  0.81347  0.08777  1.0000
  S   S99       1.0  0.07816  0.86163  0.13454  1.0000
  Fe  Fe50      1.0  0.15469  0.82231  0.11859  1.0000
  S   S100      1.0  0.14904  0.79595  0.09077  1.0000
  S   S101      1.0  0.19081  0.82339  0.13411  1.0000
  Fe  Fe51      1.0  0.12975  0.82420  0.07222  1.0000
  S   S102      1.0  0.14139  0.82651  0.03452  1.0000
  Fe  Fe52      1.0  0.11588  0.78755  0.10869  1.0000
  S   S103      1.0  0.09995  0.75182  0.11228  1.0000
  S   S104      1.0  0.13687  0.85089  0.09957  1.0000
  S   S105      1.0  0.12286  0.81156  0.13817  1.0000
  Fe  Fe53      1.0  0.10424  0.58831  0.17654  1.0000
  S   S106      1.0  0.06819  0.58067  0.18854  1.0000
  S   S107      1.0  0.13306  0.56322  0.16654  1.0000
  Fe  Fe54      1.0  0.09892  0.64060  0.18700  1.0000
  S   S108      1.0  0.06308  0.63627  0.20057  1.0000
  S   S109      1.0  0.11729  0.67515  0.18853  1.0000
  Fe  Fe55      1.0  0.07702  0.60444  0.21819  1.0000
  H   H770      1.0  0.18630  0.71112  0.24349  1.0000
  Fe  Fe56      1.0  0.05763  0.61334  0.16974  1.0000
  H   H771      1.0  0.32489  0.99026  0.10776  1.0000
  S   S110      1.0  0.11321  0.61067  0.20693  1.0000
  S   S111      1.0  0.09336  0.61903  0.15550  1.0000
  Fe  Fe57      1.0  0.30154  0.90525  0.13337  1.0000
  S   S112      1.0  0.32920  0.87790  0.13424  1.0000
  S   S113      1.0  0.26430  0.90331  0.12048  1.0000
  Fe  Fe58      1.0  0.33486  0.94309  0.15104  1.0000
  S   S114      1.0  0.36496  0.91863  0.15278  1.0000
  S   S115      1.0  0.33327  0.98037  0.16357  1.0000
  Fe  Fe59      1.0  0.35208  0.90486  0.11851  1.0000
  S   S116      1.0  0.37702  0.90005  0.08839  1.0000
  Fe  Fe60      1.0  0.33976  0.89384  0.16835  1.0000
  S   S117      1.0  0.34387  0.87285  0.20120  1.0000
  S   S118      1.0  0.32388  0.93143  0.11571  1.0000
  S   S119      1.0  0.31027  0.91906  0.16852  1.0000
  H   H772      1.0  0.29677  0.81140  0.17902  1.0000
  C   C438      1.0  0.12379  0.86714  0.01557  1.0000
  C   C439      1.0  0.07200  0.80641  0.20300  1.0000
  H   H773      1.0  0.03769  0.89779  0.09481  1.0000
  H   H774      1.0  0.17663  0.67080  0.23300  1.0000
  C   C440      1.0  0.36332  0.85267  0.02591  1.0000
  C   C441      1.0  0.34738  0.85404  0.04416  1.0000
  C   C442      1.0  0.35146  0.86819  0.06350  1.0000
  C   C443      1.0  0.37186  0.88079  0.06509  1.0000
  C   C444      1.0  0.38815  0.87892  0.04718  1.0000
  C   C445      1.0  0.38380  0.86517  0.02754  1.0000
  H   H775      1.0  0.33173  0.84404  0.04336  1.0000
  H   H776      1.0  0.33884  0.86931  0.07717  1.0000
  H   H777      1.0  0.40417  0.88823  0.04842  1.0000
  H   H778      1.0  0.08433  0.71514  0.20578  1.0000
  C   C446      1.0  0.38219  0.89416  0.22037  1.0000
  C   C447      1.0  0.36512  0.87741  0.22269  1.0000
  H   H779      1.0  0.31005  0.90146  0.02822  1.0000
  H   H780      1.0  0.38289  0.90450  0.20493  1.0000
  H   H781      1.0  0.40185  0.94968  0.22005  1.0000
  H   H782      1.0  0.22923  0.87683  0.22497  1.0000
  H   H783      1.0  0.09792  0.54291  0.23306  1.0000
  H   H784      1.0  0.23008  0.94293  0.17920  1.0000
  H   H785      1.0  0.01844  0.79794  0.19907  1.0000
  H   H786      1.0  0.01541  0.68301  0.19587  1.0000
  C   C448      1.0  0.26479  0.84675  0.18851  1.0000
  H   H787      1.0  0.11333  0.86882  0.03091  1.0000
  H   H788      1.0  0.24122  0.88044  0.16880  1.0000
  C   C449      1.0  0.10396  0.73177  0.13487  1.0000
  C   C450      1.0  0.12079  0.73467  0.15186  1.0000
  C   C451      1.0  0.12444  0.71736  0.16846  1.0000
  C   C452      1.0  0.11112  0.69720  0.16840  1.0000
  C   C453      1.0  0.09358  0.69482  0.15209  1.0000
  C   C454      1.0  0.09019  0.71191  0.13527  1.0000
  H   H789      1.0  0.13143  0.74992  0.15177  1.0000
  H   H790      1.0  0.13792  0.71944  0.18115  1.0000
  H   H791      1.0  0.08295  0.67956  0.15211  1.0000
  H   H792      1.0  0.07702  0.70960  0.12229  1.0000
  C   C455      1.0  0.21104  0.84537  0.12826  1.0000
  C   C456      1.0  0.23472  0.84039  0.13002  1.0000
  C   C457      1.0  0.25131  0.85777  0.12698  1.0000
  C   C458      1.0  0.24433  0.88040  0.12251  1.0000
  C   C459      1.0  0.22068  0.88524  0.12006  1.0000
  C   C460      1.0  0.20410  0.86785  0.12299  1.0000
  H   H793      1.0  0.24025  0.82299  0.13386  1.0000
  H   H794      1.0  0.26947  0.85372  0.12817  1.0000
  H   H795      1.0  0.21511  0.90269  0.11649  1.0000
  H   H796      1.0  0.18592  0.87195  0.12178  1.0000
  C   C461      1.0  0.05070  0.85182  0.14350  1.0000
  C   C462      1.0  0.04049  0.83246  0.13351  1.0000
  H   H797      1.0  0.31605  0.93525  0.24109  1.0000
  H   H798      1.0  0.42964  0.99715  0.12083  1.0000
  C   C463      1.0  0.03880  0.86375  0.16104  1.0000
  H   H799      1.0  0.04928  0.82334  0.11975  1.0000
  H   H800      1.0  0.04653  0.87882  0.16878  1.0000
  C   C464      1.0  0.10921  0.52275  0.15703  1.0000
  C   C465      1.0  0.13054  0.53317  0.16098  1.0000
  H   H801      1.0  0.23359  0.84050  0.01636  1.0000
  H   H802      1.0  0.09360  0.53301  0.15787  1.0000
  H   H803      1.0  0.16724  0.52740  0.16277  1.0000
  H   H804      1.0  0.31299  0.82698  0.15778  1.0000
  C   C466      1.0  0.28896  0.84815  0.17724  1.0000
  H   H805      1.0  0.09758  0.83272  0.20990  1.0000
  N   N25       1.0  0.04493  0.77407  0.18800  1.0000
  C   C467      1.0  0.03236  0.76722  0.16629  1.0000
  C   C468      1.0  0.15065  0.51952  0.15978  1.0000
  C   C469      1.0  0.06008  0.79440  0.18229  1.0000
  H   H806      1.0  0.33823  0.91370  0.23700  1.0000
  C   C470      1.0  0.01597  0.67623  0.17797  1.0000
  C   C471      1.0  0.04780  0.76322  0.14485  1.0000
  C   C472      1.0  0.24219  0.90989  0.19199  1.0000
  H   H807      1.0  0.03611  0.78750  0.22183  1.0000
  H   H808      1.0  0.19765  0.87972  0.01448  1.0000
  C   C473      1.0  0.03506  0.75006  0.12595  1.0000
  C   C474      1.0  0.16973  0.70692  0.23490  1.0000
  H   H809      1.0  0.39087  0.97788  0.24899  1.0000
  H   H810      1.0  0.36725  0.94254  0.25243  1.0000
  H   H811      1.0  0.04991  0.80791  0.17328  1.0000
  H   H812      1.0  0.07403  0.78919  0.17009  1.0000
  H   H813      1.0  0.07758  0.75555  0.18984  1.0000
  C   C475      1.0  0.03737  0.91000  0.10961  1.0000
  H   H814      1.0  0.06101  0.69493  0.20404  1.0000
  H   H815      1.0  0.05324  0.78001  0.13754  1.0000
  H   H816      1.0  0.06352  0.75342  0.14949  1.0000
  C   C476      1.0  0.06554  0.71294  0.20863  1.0000
  C   C477      1.0  0.27374  0.87683  0.21785  1.0000
  H   H817      1.0  0.14658  0.67889  0.23046  1.0000
  C   C478      1.0  0.05996  0.75496  0.19754  1.0000
  H   H818      1.0  0.06166  0.71574  0.22717  1.0000
  C   C479      1.0  0.23418  0.86267  0.21292  1.0000
  H   H819      1.0  0.01134  0.80960  0.13371  1.0000
  C   C480      1.0  0.01740  0.85578  0.16925  1.0000
  H   H820      1.0  0.01125  0.65772  0.17817  1.0000
  H   H821      1.0  0.22540  0.91921  0.15967  1.0000
  N   N26       1.0  0.20715  0.86784  0.04849  1.0000
  C   C481      1.0  0.21586  0.84652  0.06064  1.0000
  C   C482      1.0  0.22315  0.88793  0.05296  1.0000
  C   C483      1.0  0.18383  0.87387  0.05854  1.0000
  H   H822      1.0  0.12809  0.54121  0.24027  1.0000
  C   C484      1.0  0.33477  0.93246  0.23811  1.0000
  C   C485      1.0  0.20023  0.82496  0.05951  1.0000
  C   C486      1.0  0.17255  0.89659  0.04985  1.0000
  C   C487      1.0  0.24917  0.88238  0.05641  1.0000
  C   C488      1.0  0.26351  0.90438  0.05696  1.0000
  C   C489      1.0  0.25247  0.88684  0.18285  1.0000
  C   C490      1.0  0.21207  0.80416  0.07057  1.0000
  C   C491      1.0  0.15061  0.90219  0.06338  1.0000
  H   H823      1.0  0.21860  0.85046  0.07921  1.0000
  H   H824      1.0  0.23299  0.84113  0.05402  1.0000
  H   H825      1.0  0.22153  0.90091  0.03896  1.0000
  H   H826      1.0  0.21806  0.89718  0.06909  1.0000
  H   H827      1.0  0.18498  0.87479  0.07768  1.0000
  H   H828      1.0  0.17109  0.86019  0.05465  1.0000
  H   H829      1.0  0.02204  0.75147  0.16886  1.0000
  H   H830      1.0  0.38255  0.97303  0.15896  1.0000
  H   H831      1.0  0.21614  0.80781  0.08891  1.0000
  C   C492      1.0  0.23765  0.92670  0.17230  1.0000
  H   H832      1.0  0.18399  0.82799  0.06916  1.0000
  H   H833      1.0  0.19601  0.82025  0.04149  1.0000
  H   H834      1.0  0.16752  0.89496  0.03147  1.0000
  H   H835      1.0  0.18427  0.91151  0.05166  1.0000
  H   H836      1.0  0.25180  0.87352  0.07314  1.0000
  H   H837      1.0  0.25615  0.87103  0.04275  1.0000
  H   H838      1.0  0.26270  0.91331  0.04012  1.0000
  H   H839      1.0  0.25714  0.91624  0.07066  1.0000
  H   H840      1.0  0.28175  0.89998  0.06087  1.0000
  H   H841      1.0  0.26486  0.83184  0.20051  1.0000
  C   C493      1.0  0.31861  0.91559  0.01887  1.0000
  H   H842      1.0  0.29132  0.84431  0.22739  1.0000
  H   H843      1.0  0.20036  0.78910  0.06989  1.0000
  H   H844      1.0  0.22819  0.79967  0.06122  1.0000
  H   H845      1.0  0.34702  0.93908  0.02569  1.0000
  H   H846      1.0  0.13794  0.88804  0.06152  1.0000
  H   H847      1.0  0.15458  0.90472  0.08193  1.0000
  H   H848      1.0  0.14266  0.91825  0.05663  1.0000
  N   N27       1.0  0.15105  0.66265  0.11668  1.0000
  C   C494      1.0  0.16100  0.65879  0.14040  1.0000
  C   C495      1.0  0.15019  0.68817  0.11129  1.0000
  C   C496      1.0  0.12661  0.65366  0.11686  1.0000
  C   C497      1.0  0.16413  0.64949  0.09839  1.0000
  C   C498      1.0  0.18998  0.65525  0.09573  1.0000
  C   C499      1.0  0.16181  0.63347  0.14893  1.0000
  C   C500      1.0  0.11114  0.66027  0.09600  1.0000
  C   C501      1.0  0.16983  0.70352  0.12095  1.0000
  C   C502      1.0  0.16939  0.72744  0.11000  1.0000
  C   C503      1.0  0.20181  0.63851  0.07904  1.0000
  C   C504      1.0  0.17142  0.63203  0.17339  1.0000
  C   C505      1.0  0.08709  0.64992  0.09845  1.0000
  H   H849      1.0  0.15097  0.66902  0.15323  1.0000
  H   H850      1.0  0.17882  0.66539  0.14177  1.0000
  H   H851      1.0  0.14901  0.69088  0.09233  1.0000
  H   H852      1.0  0.13426  0.69606  0.11862  1.0000
  H   H853      1.0  0.11753  0.65961  0.13270  1.0000
  H   H854      1.0  0.12656  0.63450  0.11757  1.0000
  H   H855      1.0  0.16254  0.63060  0.10119  1.0000
  H   H856      1.0  0.15632  0.65255  0.08119  1.0000
  H   H857      1.0  0.19929  0.65417  0.11234  1.0000
  H   H858      1.0  0.19188  0.67278  0.08843  1.0000
  H   H859      1.0  0.14440  0.62577  0.14945  1.0000
  H   H860      1.0  0.17299  0.62273  0.13762  1.0000
  H   H861      1.0  0.11860  0.65378  0.07962  1.0000
  H   H862      1.0  0.10885  0.67921  0.09459  1.0000
  H   H863      1.0  0.16752  0.70582  0.13984  1.0000
  H   H864      1.0  0.18714  0.69601  0.11809  1.0000
  H   H865      1.0  0.04882  0.92471  0.10558  1.0000
  H   H866      1.0  0.17312  0.72624  0.09126  1.0000
  H   H867      1.0  0.15231  0.73584  0.11242  1.0000
  H   H868      1.0  0.19346  0.63915  0.06183  1.0000
  H   H869      1.0  0.22020  0.64331  0.07702  1.0000
  H   H870      1.0  0.20107  0.62062  0.08573  1.0000
  H   H871      1.0  0.17149  0.61378  0.17913  1.0000
  H   H872      1.0  0.18935  0.63861  0.17403  1.0000
  H   H873      1.0  0.16044  0.64216  0.18547  1.0000
  H   H874      1.0  0.07632  0.65485  0.08343  1.0000
  H   H875      1.0  0.08808  0.63080  0.09919  1.0000
  H   H876      1.0  0.07849  0.65643  0.11432  1.0000
  H   H877      1.0  0.12841  0.64912  0.24314  1.0000
  H   H878      1.0  0.41697  0.91278  0.12390  1.0000
  C   C506      1.0  0.00756  0.83597  0.15973  1.0000
  H   H879      1.0  0.08302  0.83598  0.18269  1.0000
  C   C507      1.0  0.11461  0.53460  0.22843  1.0000
  C   C508      1.0  0.09044  0.82323  0.19490  1.0000
  H   H880      1.0  0.33438  0.92640  0.05108  1.0000
  H   H881      1.0  0.00510  0.91702  0.16330  1.0000
  H   H882      1.0  0.28946  0.86162  0.16381  1.0000
  S   S120      1.0  0.03070  0.62252  0.14244  1.0000
  H   H883      1.0  0.05917  0.81660  0.21303  1.0000
  H   H884      1.0  0.28510  0.83107  0.01752  1.0000
  H   H885      1.0  0.03329  0.72753  0.19795  1.0000
  H   H886      1.0  0.21671  0.84290  0.18532  1.0000
  C   C509      1.0  0.37947  0.99132  0.16078  1.0000
  N   N28       1.0  0.40310  0.97377  0.08862  1.0000
  H   H887      1.0  0.00733  0.92887  0.09891  1.0000
  C   C510      1.0  0.39672  0.96099  0.06682  1.0000
  H   H888      1.0  0.17191  0.70914  0.21602  1.0000
  C   C511      1.0  0.40565  0.95737  0.10861  1.0000
  C   C512      1.0  0.42969  0.94614  0.11246  1.0000
  C   C513      1.0  0.35957  0.97970  0.09822  1.0000
  C   C514      1.0  0.41492  0.94422  0.05655  1.0000
  C   C515      1.0  0.40799  0.93641  0.03235  1.0000
  C   C516      1.0  0.01896  0.82472  0.14147  1.0000
  H   H889      1.0  0.26642  0.89147  0.22792  1.0000
  H   H890      1.0  0.04638  0.74837  0.11059  1.0000
  H   H891      1.0  0.42258  0.99788  0.06813  1.0000
  H   H892      1.0  0.38131  0.95006  0.06965  1.0000
  H   H893      1.0  0.39187  0.97358  0.05316  1.0000
  H   H894      1.0  0.28314  0.82039  0.15243  1.0000
  C   C517      1.0  0.02747  0.78221  0.20559  1.0000
  H   H895      1.0  0.40159  0.96632  0.12505  1.0000
  H   H896      1.0  0.39266  0.94338  0.10728  1.0000
  C   C518      1.0  0.22567  0.85638  0.00926  1.0000
  H   H897      1.0  0.43711  0.93881  0.09652  1.0000
  H   H898      1.0  0.36024  0.96809  0.11336  1.0000
  H   H899      1.0  0.35327  0.96985  0.08313  1.0000
  H   H900      1.0  0.09069  0.66590  0.23334  1.0000
  H   H901      1.0  0.41604  0.92849  0.06731  1.0000
  C   C519      1.0  0.18457  0.60703  0.24017  1.0000
  H   H902      1.0  0.19036  0.85084  0.01995  1.0000
  H   H903      1.0  0.25273  0.84183  0.17453  1.0000
  H   H904      1.0  0.35282  0.90936  0.03275  1.0000
  H   H905      1.0  0.42150  0.93347  0.14686  1.0000
  H   H906      1.0  0.43974  0.97655  0.08148  1.0000
  H   H907      1.0  0.25436  0.91840  0.20398  1.0000
  H   H908      1.0  0.14842  0.61323  0.24392  1.0000
  C   C520      1.0  0.21307  0.85743  0.19727  1.0000
  C   C521      1.0  0.19204  0.85085  0.21160  1.0000
  H   H909      1.0  0.03390  0.67761  0.17140  1.0000
  H   H910      1.0  0.28913  0.88400  0.20893  1.0000
  H   H911      1.0  0.20810  0.87265  0.18685  1.0000
  H   H912      1.0  0.08032  0.79367  0.21456  1.0000
  H   H913      1.0  0.18707  0.86516  0.22338  1.0000
  H   H914      1.0  0.17730  0.84725  0.19993  1.0000
  H   H915      1.0  0.19565  0.83508  0.22180  1.0000
  H   H916      1.0  0.06270  0.75762  0.21634  1.0000
  H   H917      1.0  0.44202  0.95910  0.11910  1.0000
  H   H918      1.0  0.25400  0.93095  0.16333  1.0000
  H   H919      1.0  0.40474  0.97151  0.19838  1.0000
  H   H920      1.0  0.41210  0.90991  0.23583  1.0000
  H   H921      1.0  0.42082  0.92374  0.02570  1.0000
  C   C522      1.0  0.28224  0.85895  0.23580  1.0000
  C   C523      1.0  0.11257  0.50842  0.23033  1.0000
  H   H922      1.0  0.15613  0.71911  0.24085  1.0000
  C   C524      1.0  0.00441  0.56470  0.10712  1.0000
  H   H923      1.0  0.44578  0.91945  0.13321  1.0000
  H   H924      1.0  0.23667  0.84730  0.22405  1.0000
  C   C525      1.0  0.42833  0.92681  0.13022  1.0000
  H   H925      1.0  0.10477  0.81378  0.18633  1.0000
  C   C526      1.0  0.05172  0.72978  0.19379  1.0000
  C   C527      1.0  0.36442  0.86419  0.24293  1.0000
  H   H926      1.0  0.30230  0.85210  0.19018  1.0000
  H   H927      1.0  0.43219  0.95202  0.05504  1.0000
  H   H928      1.0  0.22561  0.90720  0.20104  1.0000
  H   H929      1.0  0.03057  0.73249  0.13190  1.0000
  H   H930      1.0  0.04431  0.90116  0.12507  1.0000
  H   H931      1.0  0.05423  0.72463  0.17551  1.0000
  H   H932      1.0  0.00467  0.88569  0.12950  1.0000
  H   H933      1.0  0.37656  0.96470  0.20986  1.0000
  H   H934      1.0  0.41740  0.98656  0.23564  1.0000
  N   N29       1.0  0.25633  0.86829  0.20056  1.0000
  H   H935      1.0  0.01915  0.75949  0.12085  1.0000
  H   H936      1.0  0.18266  0.73852  0.11815  1.0000
  C   C528      1.0  0.39866  0.89726  0.23793  1.0000
  C   C529      1.0  0.39859  0.98471  0.23298  1.0000
  H   H937      1.0  0.39636  0.86406  0.01380  1.0000
  H   H938      1.0  0.01691  0.75084  0.22347  1.0000
  C   C530      1.0  0.29575  0.82528  0.16594  1.0000
  C   C531      1.0  0.20403  0.86379  0.02300  1.0000
  H   H939      1.0  0.31404  0.87730  0.24347  1.0000
  H   H940      1.0  0.01943  0.78068  0.16164  1.0000
  H   H941      1.0  0.26889  0.89132  0.17421  1.0000
  C   C532      1.0  0.39513  0.96661  0.21413  1.0000
  H   H942      1.0  0.11898  0.53960  0.21053  1.0000
  C   C533      1.0  0.33951  0.92310  0.03291  1.0000
  C   C534      1.0  0.13871  0.84827  0.01314  1.0000
  C   C535      1.0  0.16278  0.68208  0.23995  1.0000
  H   H943      1.0  0.46821  0.99978  0.10229  1.0000
  H   H944      1.0  0.23842  0.87047  0.00934  1.0000
  C   C536      1.0  0.35701  0.99934  0.16413  1.0000
  H   H945      1.0  0.40735  0.95129  0.02039  1.0000
  H   H946      1.0  0.26764  0.85203  0.24592  1.0000
  H   H947      1.0  0.39090  0.92796  0.03273  1.0000
  C   C537      1.0  0.38361  0.99046  0.09385  1.0000
  H   H948      1.0  0.27985  0.87217  0.00834  1.0000
  H   H949      1.0  0.00465  0.70822  0.16353  1.0000
  H   H950      1.0  0.18206  0.59794  0.22348  1.0000
  H   H951      1.0  0.38734  0.00051  0.10976  1.0000
  C   C538      1.0  0.16442  0.62357  0.24443  1.0000
  H   H952      1.0  0.16372  0.63587  0.22997  1.0000
  H   H953      1.0  0.01125  0.54742  0.11173  1.0000
  H   H954      1.0  0.33946  0.94038  0.22137  1.0000
  H   H955      1.0  0.30916  0.86563  0.01633  1.0000
  C   C539      1.0  0.29908  0.86996  0.25278  1.0000
  H   H956      1.0  0.20107  0.61660  0.23942  1.0000
  C   C540      1.0  0.01289  0.91877  0.11419  1.0000
  H   H957      1.0  0.01725  0.57342  0.09600  1.0000
  H   H958      1.0  0.10731  0.50456  0.24823  1.0000
  C   C541      1.0  0.42451  0.98781  0.08434  1.0000
  H   H959      1.0  0.35133  0.85115  0.24487  1.0000
  H   H960      1.0  0.11822  0.58363  0.25121  1.0000
  C   C542      1.0  0.34152  0.99841  0.10309  1.0000
  H   H961      1.0  0.01361  0.93066  0.12908  1.0000
  C   C543      1.0  0.00889  0.76471  0.21305  1.0000
  H   H962      1.0  0.30668  0.93062  0.01832  1.0000
  H   H963      1.0  0.41528  0.00057  0.15771  1.0000
  H   H964      1.0  0.00899  0.86445  0.18351  1.0000
  H   H965      1.0  0.14912  0.50431  0.23509  1.0000
  C   C544      1.0  0.08646  0.66478  0.25195  1.0000
  Fe  Fe61      1.0  0.40739  0.87964  0.36428  1.0000
  S   S121      1.0  0.43828  0.88974  0.34324  1.0000
  S   S122      1.0  0.38620  0.90385  0.38715  1.0000
  Fe  Fe62      1.0  0.40777  0.83003  0.34604  1.0000
  S   S123      1.0  0.43787  0.83730  0.32297  1.0000
  S   S124      1.0  0.39347  0.79357  0.34346  1.0000
  Fe  Fe63      1.0  0.45333  0.85529  0.35370  1.0000
  C   C545      1.0  0.16005  0.67808  0.26616  1.0000
  Fe  Fe64      1.0  0.42025  0.87071  0.31451  1.0000
  S   S125      1.0  0.41946  0.88823  0.27944  1.0000
  S   S126      1.0  0.42376  0.84647  0.37718  1.0000
  S   S127      1.0  0.38875  0.86223  0.33507  1.0000
  Fe  Fe65      1.0  0.14771  0.56913  0.41366  1.0000
  S   S128      1.0  0.17454  0.54100  0.41547  1.0000
  S   S129      1.0  0.12602  0.57466  0.44618  1.0000
  Fe  Fe66      1.0  0.15767  0.57817  0.36261  1.0000
  S   S130      1.0  0.18597  0.55163  0.36206  1.0000
  S   S131      1.0  0.15257  0.59500  0.32738  1.0000
  Fe  Fe67      1.0  0.16104  0.52912  0.38111  1.0000
  H   H966      1.0  0.48588  0.76420  0.42612  1.0000
  Fe  Fe68      1.0  0.19700  0.56602  0.39624  1.0000
  S   S132      1.0  0.23408  0.56807  0.40950  1.0000
  S   S133      1.0  0.13232  0.55523  0.38045  1.0000
  S   S134      1.0  0.17065  0.59467  0.39570  1.0000
  Fe  Fe69      1.0  0.34298  0.64861  0.41231  1.0000
  S   S135      1.0  0.34140  0.67535  0.44021  1.0000
  S   S136      1.0  0.30962  0.64551  0.39175  1.0000
  Fe  Fe70      1.0  0.39340  0.63790  0.42308  1.0000
  S   S137      1.0  0.39449  0.66345  0.45237  1.0000
  S   S138      1.0  0.42612  0.61663  0.41770  1.0000
  Fe  Fe71      1.0  0.35982  0.64953  0.46238  1.0000
  C   C546      1.0  0.27556  0.57110  0.47583  1.0000
  Fe  Fe72      1.0  0.37599  0.68692  0.42775  1.0000
  S   S139      1.0  0.38521  0.72497  0.42804  1.0000
  S   S140      1.0  0.35973  0.62204  0.43494  1.0000
  S   S141      1.0  0.37658  0.66224  0.39787  1.0000
  C   C547      1.0  0.28870  0.62395  0.39686  1.0000
  C   C548      1.0  0.26602  0.62717  0.38885  1.0000
  C   C549      1.0  0.24903  0.61027  0.39249  1.0000
  C   C550      1.0  0.25468  0.58984  0.40395  1.0000
  C   C551      1.0  0.27742  0.58654  0.41167  1.0000
  C   C552      1.0  0.29434  0.60349  0.40819  1.0000
  H   H967      1.0  0.26158  0.64279  0.37974  1.0000
  H   H968      1.0  0.23163  0.61297  0.38634  1.0000
  H   H969      1.0  0.28205  0.57058  0.42002  1.0000
  H   H970      1.0  0.31187  0.60055  0.41384  1.0000
  C   C553      1.0  0.14433  0.61442  0.46602  1.0000
  C   C554      1.0  0.12999  0.59529  0.46859  1.0000
  C   C555      1.0  0.34539  0.93036  0.28068  1.0000
  H   H971      1.0  0.15381  0.61666  0.45015  1.0000
  H   H972      1.0  0.17872  0.64144  0.31203  1.0000
  H   H973      1.0  0.43209  0.00138  0.45695  1.0000
  H   H974      1.0  0.34744  0.78778  0.43162  1.0000
  H   H975      1.0  0.27594  0.64016  0.45343  1.0000
  H   H976      1.0  0.43172  0.94120  0.29105  1.0000
  H   H977      1.0  0.38019  0.85698  0.27595  1.0000
  H   H978      1.0  0.31090  0.70843  0.34849  1.0000
  H   H979      1.0  0.05623  0.52216  0.27862  1.0000
  C   C556      1.0  0.39294  0.77439  0.36702  1.0000
  C   C557      1.0  0.38893  0.75084  0.36299  1.0000
  C   C558      1.0  0.38742  0.73526  0.38146  1.0000
  C   C559      1.0  0.38944  0.74320  0.40411  1.0000
  C   C560      1.0  0.39391  0.76664  0.40808  1.0000
  C   C561      1.0  0.39570  0.78217  0.38963  1.0000
  H   H980      1.0  0.38688  0.74472  0.34550  1.0000
  H   H981      1.0  0.38433  0.71719  0.37825  1.0000
  H   H982      1.0  0.39543  0.77294  0.42557  1.0000
  H   H983      1.0  0.39859  0.80028  0.39292  1.0000
  C   C562      1.0  0.38229  0.93364  0.38156  1.0000
  C   C563      1.0  0.39626  0.94538  0.36593  1.0000
  C   C564      1.0  0.39263  0.96905  0.36194  1.0000
  C   C565      1.0  0.37489  0.98121  0.37327  1.0000
  C   C566      1.0  0.36082  0.96947  0.38880  1.0000
  C   C567      1.0  0.36467  0.94585  0.39308  1.0000
  H   H984      1.0  0.40991  0.93623  0.35700  1.0000
  H   H985      1.0  0.40362  0.97796  0.34990  1.0000
  H   H986      1.0  0.34691  0.97852  0.39742  1.0000
  H   H987      1.0  0.35376  0.93688  0.40517  1.0000
  H   H988      1.0  0.24794  0.68827  0.43114  1.0000
  C   C568      1.0  0.47042  0.61316  0.40099  1.0000
  C   C569      1.0  0.44818  0.62221  0.39727  1.0000
  C   C570      1.0  0.44381  0.63436  0.37696  1.0000
  C   C571      1.0  0.46145  0.63710  0.36048  1.0000
  H   H989      1.0  0.28244  0.75230  0.39072  1.0000
  C   C572      1.0  0.28257  0.64357  0.47107  1.0000
  H   H990      1.0  0.42666  0.64095  0.37364  1.0000
  C   C573      1.0  0.09253  0.59333  0.27616  1.0000
  C   C574      1.0  0.08822  0.59699  0.29972  1.0000
  C   C575      1.0  0.10622  0.59571  0.31598  1.0000
  C   C576      1.0  0.12873  0.59066  0.30882  1.0000
  C   C577      1.0  0.13277  0.58583  0.28542  1.0000
  C   C578      1.0  0.11477  0.58703  0.26919  1.0000
  H   H991      1.0  0.07103  0.60170  0.30532  1.0000
  H   H992      1.0  0.10291  0.59982  0.33388  1.0000
  H   H993      1.0  0.15008  0.58174  0.27973  1.0000
  H   H994      1.0  0.31565  0.54694  0.46974  1.0000
  H   H995      1.0  0.40275  0.67243  0.32169  1.0000
  H   H996      1.0  0.26382  0.57532  0.49044  1.0000
  H   H997      1.0  0.13122  0.50780  0.32617  1.0000
  H   H998      1.0  0.28235  0.71198  0.43431  1.0000
  H   H999      1.0  0.27306  0.67135  0.42372  1.0000
  C   C579      1.0  0.30145  0.60405  0.47361  1.0000
  C   C580      1.0  0.47189  0.79878  0.42573  1.0000
  C   C581      1.0  0.44317  0.71326  0.33947  1.0000
  H   H1000     1.0  0.44737  0.72841  0.39745  1.0000
  C   C582      1.0  0.31702  0.73869  0.41460  1.0000
  H   H1001     1.0  0.11029  0.54416  0.30931  1.0000
  H   H1002     1.0  0.22109  0.61669  0.45781  1.0000
  H   H1003     1.0  0.08769  0.52728  0.39096  1.0000
  C   C583      1.0  0.31333  0.99287  0.33057  1.0000
  H   H1004     1.0  0.44128  0.67708  0.40889  1.0000
  H   H1005     1.0  0.34954  0.98685  0.32836  1.0000
  C   C584      1.0  0.06807  0.51957  0.35979  1.0000
  H   H1006     1.0  0.05856  0.53626  0.35994  1.0000
  H   H1007     1.0  0.45775  0.64566  0.34444  1.0000
  H   H1008     1.0  0.27071  0.65587  0.47982  1.0000
  H   H1009     1.0  0.31067  0.74730  0.34576  1.0000
  H   H1010     1.0  0.34742  0.58919  0.47268  1.0000
  H   H1011     1.0  0.36997  0.99090  0.46899  1.0000
  H   H1012     1.0  0.42792  0.70845  0.38355  1.0000
  C   C585      1.0  0.21282  0.60521  0.47061  1.0000
  C   C586      1.0  0.06562  0.53689  0.31259  1.0000
  H   H1013     1.0  0.24478  0.52066  0.46388  1.0000
  H   H1014     1.0  0.10221  0.50828  0.34917  1.0000
  H   H1015     1.0  0.03908  0.57082  0.29167  1.0000
  H   H1016     1.0  0.35359  0.98043  0.44479  1.0000
  H   H1017     1.0  0.31397  0.89261  0.35421  1.0000
  C   C587      1.0  0.28398  0.62116  0.48475  1.0000
  H   H1018     1.0  0.47023  0.81383  0.43750  1.0000
  H   H1019     1.0  0.28057  0.73068  0.36932  1.0000
  N   N30       1.0  0.08420  0.51938  0.31819  1.0000
  C   C588      1.0  0.05908  0.53922  0.28675  1.0000
  H   H1020     1.0  0.47234  0.98233  0.45854  1.0000
  H   H1021     1.0  0.43646  0.80290  0.41468  1.0000
  H   H1022     1.0  0.32368  0.77453  0.44653  1.0000
  H   H1023     1.0  0.09761  0.53820  0.34742  1.0000
  H   H1024     1.0  0.15638  0.64614  0.48125  1.0000
  H   H1025     1.0  0.48101  0.70564  0.38511  1.0000
  S   S142      1.0  0.06984  0.59694  0.25601  1.0000
  N   N31       1.0  0.35076  0.94383  0.30230  1.0000
  H   H1026     1.0  0.29982  0.65166  0.46976  1.0000
  C   C589      1.0  0.35134  0.92735  0.32235  1.0000
  C   C590      1.0  0.33234  0.96207  0.30557  1.0000
  C   C591      1.0  0.37382  0.95555  0.30061  1.0000
  C   C592      1.0  0.39476  0.93954  0.29589  1.0000
  H   H1027     1.0  0.47821  0.80505  0.40890  1.0000
  C   C593      1.0  0.33374  0.97626  0.32823  1.0000
  C   C594      1.0  0.32798  0.91638  0.32907  1.0000
  C   C595      1.0  0.33079  0.90048  0.34982  1.0000
  C   C596      1.0  0.41714  0.95323  0.29455  1.0000
  H   H1028     1.0  0.44476  0.67877  0.32343  1.0000
  C   C597      1.0  0.27224  0.54524  0.46983  1.0000
  H   H1029     1.0  0.22792  0.62300  0.49932  1.0000
  H   H1030     1.0  0.47562  0.78246  0.37559  1.0000
  H   H1031     1.0  0.36328  0.91269  0.31870  1.0000
  H   H1032     1.0  0.35857  0.93586  0.33790  1.0000
  H   H1033     1.0  0.31484  0.95441  0.30431  1.0000
  H   H1034     1.0  0.33296  0.97491  0.29146  1.0000
  H   H1035     1.0  0.37344  0.96917  0.28722  1.0000
  H   H1036     1.0  0.37780  0.96464  0.31695  1.0000
  H   H1037     1.0  0.27955  0.54154  0.45248  1.0000
  H   H1038     1.0  0.39699  0.92676  0.30988  1.0000
  H   H1039     1.0  0.42052  0.96215  0.31116  1.0000
  C   C598      1.0  0.35935  0.55846  0.45618  1.0000
  C   C599      1.0  0.38329  0.00081  0.43534  1.0000
  H   H1040     1.0  0.33382  0.96509  0.34367  1.0000
  H   H1041     1.0  0.31503  0.92967  0.33389  1.0000
  H   H1042     1.0  0.32106  0.90596  0.31462  1.0000
  H   H1043     1.0  0.43378  0.99187  0.42809  1.0000
  H   H1044     1.0  0.33696  0.91033  0.36504  1.0000
  H   H1045     1.0  0.16339  0.51017  0.29888  1.0000
  H   H1046     1.0  0.31904  0.76733  0.36738  1.0000
  H   H1047     1.0  0.47394  0.78763  0.34501  1.0000
  C   C600      1.0  0.08932  0.52133  0.34362  1.0000
  H   H1048     1.0  0.31867  0.61122  0.47728  1.0000
  H   H1049     1.0  0.30207  0.74283  0.42583  1.0000
  H   H1050     1.0  0.39764  0.70021  0.33477  1.0000
  H   H1051     1.0  0.41638  0.96606  0.28047  1.0000
  S   S143      1.0  0.49036  0.84259  0.35917  1.0000
  H   H1052     1.0  0.39269  0.93018  0.27941  1.0000
  H   H1053     1.0  0.35182  0.71771  0.33632  1.0000
  H   H1054     1.0  0.36151  0.69292  0.35278  1.0000
  H   H1055     1.0  0.29686  0.98325  0.33133  1.0000
  H   H1056     1.0  0.17835  0.67240  0.31045  1.0000
  C   C601      1.0  0.44765  0.78927  0.42219  1.0000
  C   C602      1.0  0.14825  0.52182  0.29692  1.0000
  C   C603      1.0  0.14588  0.65608  0.29907  1.0000
  H   H1057     1.0  0.18557  0.59392  0.25405  1.0000
  H   H1058     1.0  0.44006  0.78382  0.43886  1.0000
  C   C604      1.0  0.16782  0.65705  0.31441  1.0000
  H   H1059     1.0  0.22362  0.58946  0.47234  1.0000
  C   C605      1.0  0.34686  0.70058  0.34313  1.0000
  C   C606      1.0  0.16140  0.65841  0.33993  1.0000
  H   H1060     1.0  0.05969  0.51491  0.39591  1.0000
  C   C607      1.0  0.45381  0.75828  0.35684  1.0000
  C   C608      1.0  0.39812  0.88384  0.25805  1.0000
  C   C609      1.0  0.10546  0.52611  0.30483  1.0000
  H   H1061     1.0  0.13587  0.64069  0.30459  1.0000
  H   H1062     1.0  0.13523  0.67133  0.30392  1.0000
  H   H1063     1.0  0.14537  0.52505  0.27831  1.0000
  H   H1064     1.0  0.44347  0.75913  0.34075  1.0000
  H   H1065     1.0  0.10206  0.52606  0.28603  1.0000
  H   H1066     1.0  0.34018  0.73403  0.37318  1.0000
  H   H1067     1.0  0.47965  0.68373  0.33590  1.0000
  C   C610      1.0  0.47697  0.99140  0.44238  1.0000
  H   H1068     1.0  0.32851  0.72711  0.42485  1.0000
  H   H1069     1.0  0.03341  0.55578  0.26515  1.0000
  H   H1070     1.0  0.05604  0.50596  0.35396  1.0000
  H   H1071     1.0  0.35629  0.56485  0.43841  1.0000
  H   H1072     1.0  0.43098  0.70140  0.42528  1.0000
  H   H1073     1.0  0.15085  0.64332  0.34498  1.0000
  H   H1074     1.0  0.17731  0.65831  0.35057  1.0000
  H   H1075     1.0  0.15157  0.67446  0.34369  1.0000
  C   C611      1.0  0.24669  0.53896  0.46918  1.0000
  H   H1076     1.0  0.20017  0.63359  0.49082  1.0000
  C   C612      1.0  0.32587  0.70263  0.35885  1.0000
  H   H1077     1.0  0.32725  0.92426  0.28122  1.0000
  H   H1078     1.0  0.29488  0.78564  0.33792  1.0000
  C   C613      1.0  0.46404  0.78223  0.36044  1.0000
  H   H1079     1.0  0.44993  0.79498  0.36329  1.0000
  H   H1080     1.0  0.34276  0.70981  0.39117  1.0000
  H   H1081     1.0  0.27175  0.76580  0.34354  1.0000
  H   H1082     1.0  0.46153  0.69638  0.42263  1.0000
  H   H1083     1.0  0.34434  0.76046  0.39969  1.0000
  N   N32       1.0  0.29982  0.57922  0.48115  1.0000
  H   H1084     1.0  0.34331  0.88643  0.34599  1.0000
  H   H1085     1.0  0.48132  0.77635  0.45369  1.0000
  H   H1086     1.0  0.41095  0.69829  0.30665  1.0000
  C   C614      1.0  0.28666  0.77486  0.35136  1.0000
  H   H1087     1.0  0.32211  0.68503  0.36515  1.0000
  H   H1088     1.0  0.10239  0.66944  0.28478  1.0000
  H   H1089     1.0  0.42943  0.72295  0.34869  1.0000
  H   H1090     1.0  0.02213  0.54468  0.29181  1.0000
  H   H1091     1.0  0.28047  0.78639  0.36540  1.0000
  C   C615      1.0  0.11765  0.59279  0.48932  1.0000
  H   H1092     1.0  0.37755  0.56214  0.46081  1.0000
  H   H1093     1.0  0.29952  0.60516  0.45460  1.0000
  C   C616      1.0  0.40974  0.69009  0.32387  1.0000
  H   H1094     1.0  0.26452  0.72223  0.41091  1.0000
  H   H1095     1.0  0.44194  0.75473  0.37129  1.0000
  C   C617      1.0  0.48375  0.62837  0.36435  1.0000
  C   C618      1.0  0.29317  0.74146  0.37895  1.0000
  N   N33       1.0  0.46575  0.71464  0.35230  1.0000
  C   C619      1.0  0.30423  0.75752  0.36063  1.0000
  C   C620      1.0  0.14571  0.63113  0.48369  1.0000
  H   H1096     1.0  0.35674  0.53953  0.45662  1.0000
  H   H1097     1.0  0.28998  0.69571  0.38456  1.0000
  C   C621      1.0  0.38075  0.86746  0.26059  1.0000
  H   H1098     1.0  0.29046  0.88384  0.26285  1.0000
  C   C622      1.0  0.29677  0.70490  0.39998  1.0000
  H   H1099     1.0  0.48427  0.70959  0.32027  1.0000
  H   H1100     1.0  0.34283  0.68905  0.32838  1.0000
  N   N34       1.0  0.30935  0.72649  0.39290  1.0000
  H   H1101     1.0  0.25406  0.68178  0.40136  1.0000
  C   C623      1.0  0.43346  0.68881  0.33520  1.0000
  H   H1102     1.0  0.44487  0.72180  0.32238  1.0000
  H   H1103     1.0  0.23871  0.54130  0.48643  1.0000
  C   C624      1.0  0.48385  0.70230  0.33802  1.0000
  H   H1104     1.0  0.49439  0.87667  0.39682  1.0000
  H   H1105     1.0  0.35598  0.91427  0.27971  1.0000
  C   C625      1.0  0.12709  0.51071  0.30785  1.0000
  C   C626      1.0  0.03705  0.55347  0.28379  1.0000
  C   C627      1.0  0.34325  0.57064  0.47321  1.0000
  C   C628      1.0  0.44479  0.69536  0.41342  1.0000
  C   C629      1.0  0.44500  0.71033  0.39180  1.0000
  H   H1106     1.0  0.46372  0.68385  0.37313  1.0000
  H   H1107     1.0  0.31485  0.56875  0.44866  1.0000
  C   C630      1.0  0.32942  0.76200  0.41146  1.0000
  H   H1108     1.0  0.35048  0.75895  0.44250  1.0000
  H   H1109     1.0  0.23733  0.54982  0.45650  1.0000
  H   H1110     1.0  0.31720  0.77506  0.40463  1.0000
  H   H1111     1.0  0.07290  0.54817  0.27714  1.0000
  H   H1112     1.0  0.30565  0.85671  0.26492  1.0000
  C   C631      1.0  0.26194  0.68601  0.41828  1.0000
  C   C632      1.0  0.33045  0.71899  0.37957  1.0000
  H   H1113     1.0  0.48463  0.74165  0.36992  1.0000
  H   H1114     1.0  0.30891  0.69258  0.40826  1.0000
  C   C633      1.0  0.46472  0.70287  0.37542  1.0000
  C   C634      1.0  0.27609  0.70809  0.41665  1.0000
  H   H1115     1.0  0.26828  0.58054  0.46074  1.0000
  H   H1116     1.0  0.43148  0.67936  0.35163  1.0000
  H   H1117     1.0  0.19558  0.60027  0.46393  1.0000
  C   C635      1.0  0.31756  0.56576  0.46743  1.0000
  C   C636      1.0  0.33823  0.77131  0.43448  1.0000
  H   H1118     1.0  0.44792  0.77434  0.41019  1.0000
  C   C637      1.0  0.47307  0.73960  0.35480  1.0000
  H   H1119     1.0  0.07067  0.55432  0.31892  1.0000
  H   H1120     1.0  0.10648  0.57810  0.49147  1.0000
  C   C638      1.0  0.07512  0.51438  0.38458  1.0000
  H   H1121     1.0  0.39467  0.98541  0.43422  1.0000
  H   H1122     1.0  0.15227  0.53837  0.30572  1.0000
  H   H1123     1.0  0.48351  0.74501  0.33963  1.0000
  H   H1124     1.0  0.26637  0.61404  0.48551  1.0000
  H   H1125     1.0  0.14987  0.69265  0.27352  1.0000
  H   H1126     1.0  0.47390  0.60353  0.41654  1.0000
  H   H1127     1.0  0.04936  0.53262  0.32176  1.0000
  H   H1128     1.0  0.34753  0.56421  0.49071  1.0000
  C   C639      1.0  0.48819  0.61641  0.38475  1.0000
  C   C640      1.0  0.48821  0.78025  0.43621  1.0000
  H   H1129     1.0  0.49549  0.99609  0.44321  1.0000
  H   H1130     1.0  0.28077  0.53375  0.48240  1.0000
  C   C641      1.0  0.21054  0.61769  0.49377  1.0000
  H   H1131     1.0  0.07288  0.67776  0.25590  1.0000
  H   H1132     1.0  0.47447  0.97956  0.42751  1.0000
  C   C642      1.0  0.36337  0.99537  0.45162  1.0000
  C   C643      1.0  0.10786  0.66952  0.26647  1.0000
  H   H1133     1.0  0.11395  0.68698  0.26191  1.0000
  H   H1134     1.0  0.07953  0.64740  0.25574  1.0000
  C   C644      1.0  0.12680  0.65102  0.26208  1.0000
  N   N35       1.0  0.14987  0.65532  0.27332  1.0000
  H   H1135     1.0  0.16428  0.62159  0.28099  1.0000
  H   H1136     1.0  0.11981  0.63425  0.26804  1.0000
  H   H1137     1.0  0.34382  0.96172  0.25856  1.0000
  S   S144      1.0  0.34261  0.64709  0.49767  1.0000
  C   C645      1.0  0.16648  0.63569  0.26822  1.0000
  H   H1138     1.0  0.17758  0.68014  0.27357  1.0000
  H   H1139     1.0  0.18463  0.64145  0.27045  1.0000
  C   C646      1.0  0.34884  0.94333  0.25753  1.0000
  H   H1140     1.0  0.50200  0.74083  0.45903  1.0000
  H   H1141     1.0  0.31515  0.00300  0.34675  1.0000
  H   H1142     1.0  0.28953  0.62548  0.50256  1.0000
  Fe  Fe73      1.0  0.08496  0.87154  0.72059  1.0000
  S   S145      1.0  0.11309  0.86027  0.69635  1.0000
  H   H1143     1.0  0.00815  0.54152  0.69599  1.0000
  Fe  Fe74      1.0  0.04688  0.86025  0.68491  1.0000
  S   S146      1.0  0.07245  0.84888  0.65792  1.0000
  C   C647      1.0  0.35035  0.60813  0.73781  1.0000
  Fe  Fe75      1.0  0.09013  0.83035  0.68689  1.0000
  S   S147      1.0  0.10293  0.79306  0.68548  1.0000
  Fe  Fe76      1.0  0.09328  0.87978  0.66939  1.0000
  S   S148      1.0  0.11360  0.90238  0.64470  1.0000
  S   S149      1.0  0.06354  0.84007  0.71354  1.0000
  S   S150      1.0  0.06616  0.89264  0.69389  1.0000
  Fe  Fe77      1.0  0.10351  0.68593  0.59978  1.0000
  S   S151      1.0  0.10597  0.65967  0.62798  1.0000
  S   S152      1.0  0.08835  0.72226  0.60260  1.0000
  Fe  Fe78      1.0  0.12064  0.65094  0.56228  1.0000
  S   S153      1.0  0.12361  0.62217  0.58791  1.0000
  S   S154      1.0  0.13494  0.65078  0.52560  1.0000
  Fe  Fe79      1.0  0.08959  0.63567  0.60221  1.0000
  S   S155      1.0  0.05658  0.61499  0.60661  1.0000
  Fe  Fe80      1.0  0.13973  0.64866  0.61123  1.0000
  S   S156      1.0  0.17492  0.64731  0.62884  1.0000
  S   S157      1.0  0.08574  0.66251  0.57464  1.0000
  S   S158      1.0  0.13815  0.67691  0.58503  1.0000
  Fe  Fe81      1.0  0.28955  0.56958  0.62676  1.0000
  S   S159      1.0  0.31530  0.59842  0.62688  1.0000
  S   S160      1.0  0.25237  0.57021  0.61354  1.0000
  Fe  Fe82      1.0  0.32591  0.53398  0.64394  1.0000
  S   S161      1.0  0.35421  0.56012  0.64488  1.0000
  H   H1144     1.0  0.23728  0.62923  0.73028  1.0000
  Fe  Fe83      1.0  0.32780  0.58373  0.66091  1.0000
  S   S162      1.0  0.33119  0.60426  0.69442  1.0000
  Fe  Fe84      1.0  0.33948  0.57236  0.61085  1.0000
  S   S163      1.0  0.36232  0.57648  0.57930  1.0000
  S   S164      1.0  0.30005  0.55688  0.66174  1.0000
  S   S165      1.0  0.31314  0.54422  0.60892  1.0000
  C   C648      1.0  0.35377  0.60082  0.71490  1.0000
  C   C649      1.0  0.37516  0.59150  0.70870  1.0000
  H   H1145     1.0  0.40940  0.58237  0.72019  1.0000
  H   H1146     1.0  0.37826  0.58662  0.69099  1.0000
  H   H1147     1.0  0.00768  0.61010  0.60861  1.0000
  C   C650      1.0  0.34820  0.62691  0.51982  1.0000
  C   C651      1.0  0.33375  0.62681  0.53929  1.0000
  C   C652      1.0  0.33771  0.61134  0.55753  1.0000
  C   C653      1.0  0.35632  0.59593  0.55655  1.0000
  C   C654      1.0  0.37047  0.59571  0.53686  1.0000
  C   C655      1.0  0.36641  0.61107  0.51853  1.0000
  H   H1148     1.0  0.31961  0.63898  0.54040  1.0000
  H   H1149     1.0  0.32664  0.61161  0.57252  1.0000
  H   H1150     1.0  0.38485  0.58379  0.53592  1.0000
  H   H1151     1.0  0.10946  0.60728  0.52280  1.0000
  N   N36       1.0  0.10418  0.99824  0.59812  1.0000
  C   C656      1.0  0.16073  0.91860  0.71023  1.0000
  C   C657      1.0  0.22923  0.65304  0.70329  1.0000
  H   H1152     1.0  0.20570  0.58461  0.51062  1.0000
  H   H1153     1.0  0.27948  0.61431  0.67106  1.0000
  C   C658      1.0  0.03696  0.61816  0.62980  1.0000
  C   C659      1.0  0.01348  0.61390  0.62588  1.0000
  H   H1154     1.0  0.27915  0.60772  0.55221  1.0000
  C   C660      1.0  0.02826  0.62391  0.67044  1.0000
  C   C661      1.0  0.04427  0.62350  0.65213  1.0000
  H   H1155     1.0  0.12607  0.92358  0.74735  1.0000
  C   C662      1.0  0.03308  0.80737  0.61545  1.0000
  H   H1156     1.0  0.06233  0.62668  0.65543  1.0000
  C   C663      1.0  0.19636  0.62601  0.62351  1.0000
  C   C664      1.0  0.21944  0.63069  0.62922  1.0000
  C   C665      1.0  0.23685  0.61394  0.62589  1.0000
  C   C666      1.0  0.23127  0.59215  0.61731  1.0000
  C   C667      1.0  0.20823  0.58752  0.61144  1.0000
  C   C668      1.0  0.19087  0.60438  0.61444  1.0000
  H   H1157     1.0  0.22388  0.64742  0.63613  1.0000
  H   H1158     1.0  0.25462  0.61782  0.62981  1.0000
  H   H1159     1.0  0.20374  0.57070  0.60478  1.0000
  H   H1160     1.0  0.17315  0.60044  0.61027  1.0000
  H   H1161     1.0  0.29193  0.58891  0.51629  1.0000
  H   H1162     1.0  0.13642  0.77082  0.62468  1.0000
  C   C669      1.0  0.09823  0.77360  0.66240  1.0000
  C   C670      1.0  0.08863  0.78072  0.64150  1.0000
  C   C671      1.0  0.08547  0.76471  0.62347  1.0000
  C   C672      1.0  0.09203  0.74151  0.62606  1.0000
  C   C673      1.0  0.10143  0.73434  0.64703  1.0000
  C   C674      1.0  0.10445  0.75032  0.66510  1.0000
  H   H1163     1.0  0.08393  0.79860  0.63914  1.0000
  H   H1164     1.0  0.07828  0.77043  0.60727  1.0000
  H   H1165     1.0  0.10634  0.71649  0.64935  1.0000
  H   H1166     1.0  0.11173  0.74463  0.68129  1.0000
  C   C675      1.0  0.12218  0.93027  0.65343  1.0000
  C   C676      1.0  0.14055  0.94118  0.64213  1.0000
  C   C677      1.0  0.14790  0.96326  0.64909  1.0000
  C   C678      1.0  0.13664  0.97471  0.66714  1.0000
  C   C679      1.0  0.11800  0.96396  0.67806  1.0000
  C   C680      1.0  0.11087  0.94184  0.67134  1.0000
  H   H1167     1.0  0.14941  0.93232  0.62826  1.0000
  H   H1168     1.0  0.16262  0.97113  0.64092  1.0000
  S   S166      1.0  0.00778  0.85637  0.68399  1.0000
  H   H1169     1.0  0.09656  0.93373  0.68000  1.0000
  S   S167      1.0  0.14668  0.00113  0.67848  1.0000
  H   H1170     1.0  0.21251  0.64448  0.52925  1.0000
  C   C681      1.0  0.22201  0.67297  0.71903  1.0000
  C   C682      1.0  0.41410  0.53679  0.66388  1.0000
  H   H1171     1.0  0.04944  0.72063  0.69981  1.0000
  C   C683      1.0  0.24561  0.58040  0.67965  1.0000
  C   C684      1.0  0.28428  0.57700  0.74677  1.0000
  H   H1172     1.0  0.18109  0.78980  0.64693  1.0000
  H   H1173     1.0  0.15654  0.77851  0.66193  1.0000
  C   C685      1.0  0.28606  0.64822  0.68493  1.0000
  C   C686      1.0  0.21925  0.60109  0.54946  1.0000
  C   C687      1.0  0.14403  0.73405  0.55983  1.0000
  C   C688      1.0  0.23796  0.60268  0.69238  1.0000
  C   C689      1.0  0.22478  0.56619  0.67227  1.0000
  C   C690      1.0  0.04981  0.54835  0.58916  1.0000
  H   H1174     1.0  0.04293  0.55050  0.62524  1.0000
  H   H1175     1.0  0.07122  0.74059  0.70919  1.0000
  H   H1176     1.0  0.25824  0.60325  0.74888  1.0000
  H   H1177     1.0  0.10568  0.97206  0.62460  1.0000
  H   H1178     1.0  0.04955  0.56728  0.58633  1.0000
  C   C691      1.0  0.14649  0.95220  0.73280  1.0000
  C   C692      1.0  0.31327  0.55396  0.54196  1.0000
  C   C693      1.0  0.07132  0.97044  0.60973  1.0000
  C   C694      1.0  0.06688  0.94711  0.62099  1.0000
  H   H1179     1.0  0.19769  0.92264  0.74129  1.0000
  H   H1180     1.0  0.29124  0.56414  0.73433  1.0000
  C   C695      1.0  0.11930  0.60933  0.50712  1.0000
  H   H1181     1.0  0.10916  0.97270  0.69201  1.0000
  H   H1182     1.0  0.01845  0.78185  0.71855  1.0000
  H   H1183     1.0  0.01721  0.71173  0.55315  1.0000
  H   H1184     1.0  0.02246  0.80540  0.68416  1.0000
  H   H1185     1.0  0.25127  0.57926  0.73044  1.0000
  C   C696      1.0  0.41114  0.52147  0.73906  1.0000
  H   H1186     1.0  0.07544  0.93297  0.61117  1.0000
  H   H1187     1.0  0.37764  0.61096  0.50365  1.0000
  H   H1188     1.0  0.31026  0.53701  0.55019  1.0000
  C   C697      1.0  0.01842  0.69297  0.55655  1.0000
  H   H1189     1.0  0.35605  0.52231  0.58351  1.0000
  H   H1190     1.0  0.11706  0.93250  0.71943  1.0000
  H   H1191     1.0  0.36396  0.52306  0.74340  1.0000
  H   H1192     1.0  0.32435  0.53207  0.73193  1.0000
  H   H1193     1.0  0.06260  0.98375  0.62042  1.0000
  H   H1194     1.0  0.06309  0.97018  0.59249  1.0000
  C   C698      1.0  0.03624  0.68302  0.53979  1.0000
  H   H1195     1.0  0.07343  0.94700  0.63895  1.0000
  H   H1196     1.0  0.04807  0.94370  0.62146  1.0000
  H   H1197     1.0  0.17213  0.56932  0.52835  1.0000
  H   H1198     1.0  0.10062  0.98410  0.56366  1.0000
  H   H1199     1.0  0.20919  0.68402  0.71004  1.0000
  H   H1200     1.0  0.30499  0.56755  0.55272  1.0000
  H   H1201     1.0  0.04289  0.74188  0.72184  1.0000
  H   H1202     1.0  0.01364  0.57162  0.68994  1.0000
  C   C699      1.0  0.01953  0.75313  0.68029  1.0000
  C   C700      1.0  0.27459  0.60487  0.71471  1.0000
  H   H1203     1.0  0.01390  0.56642  0.64646  1.0000
  H   H1204     1.0  0.14922  0.90637  0.71923  1.0000
  H   H1205     1.0  0.21316  0.67957  0.55381  1.0000
  H   H1206     1.0  0.16158  0.61038  0.54129  1.0000
  H   H1207     1.0  0.03078  0.68647  0.52179  1.0000
  H   H1208     1.0  0.26251  0.58259  0.55953  1.0000
  H   H1209     1.0  0.22647  0.59775  0.70689  1.0000
  C   C701      1.0  0.18906  0.97768  0.72295  1.0000
  H   H1210     1.0  0.31357  0.54110  0.50744  1.0000
  H   H1211     1.0  0.28436  0.59261  0.70355  1.0000
  C   C702      1.0  0.15502  0.73710  0.60208  1.0000
  H   H1212     1.0  0.23643  0.66056  0.68734  1.0000
  C   C703      1.0  0.05253  0.73859  0.70561  1.0000
  H   H1213     1.0  0.16244  0.71970  0.59926  1.0000
  H   H1214     1.0  0.13594  0.99818  0.61761  1.0000
  C   C704      1.0  0.02449  0.78040  0.64886  1.0000
  H   H1215     1.0  0.42810  0.51288  0.73612  1.0000
  C   C705      1.0  0.37127  0.52578  0.72592  1.0000
  H   H1216     1.0  0.41682  0.55459  0.65748  1.0000
  H   H1217     1.0  0.19246  0.89752  0.71322  1.0000
  C   C706      1.0  0.17157  0.88346  0.68629  1.0000
  H   H1218     1.0  0.37489  0.54456  0.72512  1.0000
  C   C707      1.0  0.40561  0.53773  0.68878  1.0000
  H   H1219     1.0  0.14224  0.96532  0.71949  1.0000
  H   H1220     1.0  0.21524  0.55993  0.68758  1.0000
  H   H1221     1.0  0.14750  0.54983  0.55644  1.0000
  C   C708      1.0  0.19591  0.64739  0.56231  1.0000
  H   H1222     1.0  0.05331  0.69115  0.54260  1.0000
  C   C709      1.0  0.26206  0.60169  0.55826  1.0000
  H   H1223     1.0  0.14193  0.96540  0.59106  1.0000
  C   C710      1.0  0.02557  0.68849  0.58194  1.0000
  H   H1224     1.0  0.06042  0.67518  0.66032  1.0000
  H   H1225     1.0  0.01846  0.73782  0.66871  1.0000
  C   C711      1.0  0.30458  0.57818  0.50663  1.0000
  H   H1226     1.0  0.18605  0.87430  0.67763  1.0000
  C   C712      1.0  0.02075  0.70035  0.62233  1.0000
  H   H1227     1.0  0.04111  0.78735  0.65541  1.0000
  H   H1228     1.0  0.10204  0.96962  0.73637  1.0000
  H   H1229     1.0  0.38018  0.50571  0.59385  1.0000
  H   H1230     1.0  0.00971  0.74812  0.69585  1.0000
  H   H1231     1.0  0.41867  0.54730  0.69885  1.0000
  H   H1232     1.0  0.38928  0.54764  0.68888  1.0000
  C   C713      1.0  0.03503  0.54208  0.61000  1.0000
  H   H1233     1.0  0.15038  0.57341  0.57653  1.0000
  C   C714      1.0  0.39280  0.58924  0.72527  1.0000
  H   H1234     1.0  0.00897  0.74443  0.61027  1.0000
  C   C715      1.0  0.17299  0.57518  0.54654  1.0000
  H   H1235     1.0  0.04708  0.81609  0.62507  1.0000
  H   H1236     1.0  0.06795  0.54294  0.59221  1.0000
  H   H1237     1.0  0.18207  0.68027  0.55051  1.0000
  C   C716      1.0  0.18075  0.90418  0.69968  1.0000
  H   H1238     1.0  0.03982  0.69772  0.66648  1.0000
  H   H1239     1.0  0.19703  0.99437  0.69026  1.0000
  H   H1240     1.0  0.09046  0.00032  0.64576  1.0000
  C   C717      1.0  0.19655  0.67368  0.56119  1.0000
  H   H1241     1.0  0.21758  0.60457  0.56821  1.0000
  H   H1242     1.0  0.29886  0.64371  0.69834  1.0000
  H   H1243     1.0  0.02926  0.76490  0.63851  1.0000
  C   C718      1.0  0.16224  0.78715  0.64590  1.0000
  H   H1244     1.0  0.37164  0.50383  0.56394  1.0000
  H   H1245     1.0  0.03413  0.62752  0.68776  1.0000
  H   H1246     1.0  0.14622  0.70476  0.63421  1.0000
  H   H1247     1.0  0.13673  0.73405  0.60693  1.0000
  H   H1248     1.0  0.25665  0.63417  0.66704  1.0000
  H   H1249     1.0  0.17643  0.98711  0.60358  1.0000
  H   H1250     1.0  0.23715  0.68371  0.72356  1.0000
  H   H1251     1.0  0.33386  0.55344  0.71138  1.0000
  C   C719      1.0  0.16298  0.69922  0.66655  1.0000
  H   H1252     1.0  0.22661  0.61215  0.68012  1.0000
  C   C720      1.0  0.26512  0.59129  0.73558  1.0000
  H   H1253     1.0  0.01017  0.56920  0.60430  1.0000
  H   H1254     1.0  0.21338  0.64345  0.69863  1.0000
  H   H1255     1.0  0.14313  0.74356  0.54329  1.0000
  H   H1256     1.0  0.24411  0.62859  0.54077  1.0000
  H   H1257     1.0  0.17946  0.64278  0.57083  1.0000
  C   C721      1.0  0.29936  0.65484  0.66325  1.0000
  C   C722      1.0  0.15479  0.74934  0.57837  1.0000
  H   H1258     1.0  0.40112  0.52842  0.65266  1.0000
  C   C723      1.0  0.26929  0.62801  0.68002  1.0000
  C   C724      1.0  0.40211  0.51319  0.69861  1.0000
  N   N37       1.0  0.19861  0.61055  0.53673  1.0000
  H   H1259     1.0  0.28736  0.65935  0.64904  1.0000
  H   H1260     1.0  0.19476  0.68088  0.57885  1.0000
  H   H1261     1.0  0.28790  0.61668  0.72173  1.0000
  C   C725      1.0  0.03510  0.68064  0.63342  1.0000
  H   H1262     1.0  0.04040  0.79290  0.60518  1.0000
  H   H1263     1.0  0.13555  0.57765  0.54939  1.0000
  H   H1264     1.0  0.31071  0.64038  0.65769  1.0000
  H   H1265     1.0  0.27650  0.66376  0.69084  1.0000
  H   H1266     1.0  0.02350  0.66775  0.64131  1.0000
  H   H1267     1.0  0.21991  0.58200  0.54806  1.0000
  H   H1268     1.0  0.02524  0.82009  0.60348  1.0000
  N   N38       1.0  0.16710  0.74958  0.62145  1.0000
  H   H1269     1.0  0.06286  0.70249  0.64596  1.0000
  C   C726      1.0  0.15552  0.77288  0.62420  1.0000
  C   C727      1.0  0.19222  0.75354  0.61611  1.0000
  C   C728      1.0  0.20694  0.73183  0.61076  1.0000
  C   C729      1.0  0.15020  0.56871  0.55796  1.0000
  C   C730      1.0  0.23134  0.73840  0.60344  1.0000
  H   H1270     1.0  0.21045  0.64169  0.57334  1.0000
  C   C731      1.0  0.05048  0.68969  0.65272  1.0000
  H   H1271     1.0  0.12625  0.72904  0.56479  1.0000
  H   H1272     1.0  0.15918  0.78400  0.60908  1.0000
  H   H1273     1.0  0.19411  0.76581  0.60157  1.0000
  H   H1274     1.0  0.20085  0.76213  0.63088  1.0000
  H   H1275     1.0  0.19950  0.72146  0.59658  1.0000
  H   H1276     1.0  0.20860  0.72106  0.62640  1.0000
  H   H1277     1.0  0.17248  0.75360  0.57264  1.0000
  H   H1278     1.0  0.17858  0.74102  0.65602  1.0000
  C   C732      1.0  0.17715  0.60155  0.54835  1.0000
  H   H1279     1.0  0.14433  0.76540  0.57919  1.0000
  H   H1280     1.0  0.17972  0.70254  0.67518  1.0000
  H   H1281     1.0  0.24163  0.72253  0.60008  1.0000
  H   H1282     1.0  0.23091  0.74877  0.58739  1.0000
  H   H1283     1.0  0.24001  0.74842  0.61725  1.0000
  C   C733      1.0  0.00483  0.61923  0.66655  1.0000
  H   H1284     1.0  0.13178  0.80944  0.64424  1.0000
  H   H1285     1.0  0.18235  0.64280  0.52788  1.0000
  C   C734      1.0  0.30353  0.55393  0.51752  1.0000
  H   H1286     1.0  0.23070  0.55105  0.66204  1.0000
  C   C735      1.0  0.24676  0.63686  0.71553  1.0000
  H   H1287     1.0  0.31045  0.66994  0.66697  1.0000
  H   H1288     1.0  0.25643  0.56924  0.69076  1.0000
  C   C736      1.0  0.09754  0.97500  0.60753  1.0000
  C   C737      1.0  0.04524  0.75577  0.68710  1.0000
  C   C738      1.0  0.18311  0.95400  0.71187  1.0000
  H   H1289     1.0  0.14837  0.74183  0.65275  1.0000
  C   C739      1.0  0.01467  0.79865  0.63201  1.0000
  H   H1290     1.0  0.25901  0.60906  0.57569  1.0000
  H   H1291     1.0  0.31608  0.52974  0.70216  1.0000
  H   H1292     1.0  0.24742  0.60213  0.52445  1.0000
  H   H1293     1.0  0.17690  0.70191  0.63238  1.0000
  H   H1294     1.0  0.19990  0.94534  0.70825  1.0000
  C   C740      1.0  0.13003  0.00055  0.59958  1.0000
  H   H1295     1.0  0.17734  0.60555  0.56706  1.0000
  H   H1296     1.0  0.15034  0.92527  0.69554  1.0000
  H   H1297     1.0  0.33215  0.55691  0.54145  1.0000
  H   H1298     1.0  0.04173  0.69849  0.58458  1.0000
  C   C741      1.0  0.14420  0.98325  0.58469  1.0000
  H   H1299     1.0  0.17518  0.95764  0.69474  1.0000
  H   H1300     1.0  0.01566  0.53678  0.65406  1.0000
  H   H1301     1.0  0.15484  0.82039  0.66170  1.0000
  C   C742      1.0  0.16273  0.70981  0.64248  1.0000
  H   H1302     1.0  0.14872  0.70643  0.67720  1.0000
  H   H1303     1.0  0.18686  0.56542  0.55539  1.0000
  N   N39       1.0  0.39314  0.51189  0.72298  1.0000
  H   H1304     1.0  0.16307  0.87122  0.69819  1.0000
  H   H1305     1.0  0.22177  0.98221  0.70491  1.0000
  H   H1306     1.0  0.15461  0.71826  0.55708  1.0000
  H   H1307     1.0  0.25556  0.58471  0.66397  1.0000
  N   N40       1.0  0.16758  0.93841  0.72570  1.0000
  C   C743      1.0  0.19838  0.60236  0.51191  1.0000
  C   C744      1.0  0.35165  0.52036  0.70867  1.0000
  H   H1308     1.0  0.21295  0.57657  0.66137  1.0000
  C   C745      1.0  0.19750  0.63655  0.53785  1.0000
  C   C746      1.0  0.33022  0.53486  0.71396  1.0000
  C   C747      1.0  0.16447  0.73650  0.64383  1.0000
  C   C748      1.0  0.20512  0.99144  0.70735  1.0000
  C   C749      1.0  0.15081  0.81097  0.64551  1.0000
  H   H1309     1.0  0.16059  0.68030  0.66524  1.0000
  C   C750      1.0  0.24322  0.60956  0.54157  1.0000
  H   H1310     1.0  0.04628  0.67188  0.62051  1.0000
  H   H1311     1.0  0.15719  0.82122  0.63073  1.0000
  N   N41       1.0  0.25710  0.61810  0.70069  1.0000
  H   H1312     1.0  0.26057  0.64746  0.72354  1.0000
  C   C751      1.0  0.13307  0.62880  0.50425  1.0000
  H   H1313     1.0  0.04349  0.53952  0.57340  1.0000
  H   H1314     1.0  0.43066  0.52717  0.66264  1.0000
  H   H1315     1.0  0.05607  0.75251  0.67166  1.0000
  H   H1316     1.0  0.03106  0.67010  0.58337  1.0000
  C   C752      1.0  0.36524  0.50553  0.58190  1.0000
  H   H1317     1.0  0.41908  0.50432  0.69716  1.0000
  H   H1318     1.0  0.19081  0.91467  0.68735  1.0000
  H   H1319     1.0  0.21400  0.66636  0.73507  1.0000
  H   H1320     1.0  0.07672  0.00052  0.57306  1.0000
  H   H1321     1.0  0.04904  0.77340  0.69349  1.0000
  H   H1322     1.0  0.32155  0.58607  0.51065  1.0000
  H   H1323     1.0  0.10448  0.96096  0.59637  1.0000
  H   H1324     1.0  0.41416  0.54001  0.73537  1.0000
  H   H1325     1.0  0.15903  0.88906  0.67292  1.0000
  H   H1326     1.0  0.28531  0.54828  0.51857  1.0000
  C   C753      1.0  0.09589  0.99990  0.57355  1.0000
  C   C754      1.0  0.12370  0.93875  0.73624  1.0000
  H   H1327     1.0  0.19792  0.97550  0.73970  1.0000
  H   H1328     1.0  0.03305  0.71466  0.61909  1.0000
  H   H1329     1.0  0.17336  0.98834  0.72575  1.0000
  H   H1330     1.0  0.03621  0.52316  0.61227  1.0000
  H   H1331     1.0  0.33400  0.61569  0.74275  1.0000
  C   C755      1.0  0.00965  0.55017  0.60658  1.0000
  C   C756      1.0  0.38932  0.59616  0.74826  1.0000
  H   H1332     1.0  0.01570  0.86869  0.63587  1.0000
  H   H1333     1.0  0.03794  0.66407  0.54202  1.0000
  N   N42       1.0  0.00801  0.69421  0.60044  1.0000
  H   H1334     1.0  0.02129  0.73683  0.58300  1.0000
  H   H1335     1.0  0.08867  0.94424  0.74807  1.0000
  H   H1336     1.0  0.18028  0.60098  0.50551  1.0000
  N   N43       1.0  0.00896  0.77392  0.66875  1.0000
  H   H1337     1.0  0.17957  0.97601  0.57476  1.0000
  C   C757      1.0  0.16993  0.98855  0.58565  1.0000
  H   H1338     1.0  0.13901  0.98385  0.56634  1.0000
  C   C758      1.0  0.18087  0.93032  0.74654  1.0000
  H   H1339     1.0  0.35691  0.52418  0.69074  1.0000
  H   H1340     1.0  0.15006  0.96217  0.74882  1.0000
  C   C759      1.0  0.10504  0.95401  0.74699  1.0000
  H   H1341     1.0  0.00492  0.50858  0.62659  1.0000
  H   H1342     1.0  0.00843  0.70677  0.63567  1.0000
  C   C760      1.0  0.00488  0.73807  0.59276  1.0000
  C   C761      1.0  0.00673  0.79446  0.68479  1.0000
  H   H1343     1.0  0.00768  0.81357  0.64166  1.0000
  H   H1344     1.0  0.01163  0.82359  0.72334  1.0000
  H   H1345     1.0  0.29855  0.58827  0.75266  1.0000
  H   H1346     1.0  0.39058  0.50370  0.68664  1.0000
  H   H1347     1.0  0.00405  0.54298  0.58973  1.0000
  C   C762      1.0  0.00341  0.55047  0.64834  1.0000
  H   H1348     1.0  0.00384  0.65857  0.61052  1.0000
  Fe  Fe85      1.0  0.16257  0.89386  0.87247  1.0000
  S   S168      1.0  0.19553  0.91402  0.87109  1.0000
  S   S169      1.0  0.15123  0.87028  0.84311  1.0000
  Fe  Fe86      1.0  0.15451  0.90603  0.92359  1.0000
  S   S170      1.0  0.18632  0.92788  0.92525  1.0000
  S   S171      1.0  0.13121  0.90195  0.95505  1.0000
  Fe  Fe87      1.0  0.17512  0.94134  0.89052  1.0000
  S   S172      1.0  0.17703  0.97856  0.87763  1.0000
  Fe  Fe88      1.0  0.20377  0.89878  0.90586  1.0000
  S   S173      1.0  0.23432  0.87993  0.92240  1.0000
  S   S174      1.0  0.14189  0.92165  0.89012  1.0000
  S   S175      1.0  0.17214  0.87664  0.90585  1.0000
  Fe  Fe89      1.0  0.41333  0.83116  0.93069  1.0000
  S   S176      1.0  0.40526  0.80567  0.95868  1.0000
  S   S177      1.0  0.45167  0.83987  0.92820  1.0000
  Fe  Fe90      1.0  0.36245  0.83397  0.91652  1.0000
  S   S178      1.0  0.35176  0.80764  0.94255  1.0000
  S   S179      1.0  0.33721  0.85289  0.89288  1.0000
  Fe  Fe91      1.0  0.37433  0.82772  0.96708  1.0000
  H   H1349     1.0  0.08061  0.90518  0.93778  1.0000
  Fe  Fe92      1.0  0.38369  0.78790  0.93181  1.0000
  S   S180      1.0  0.39016  0.74887  0.93089  1.0000
  S   S181      1.0  0.38397  0.85477  0.94125  1.0000
  S   S182      1.0  0.39284  0.81271  0.90361  1.0000
  Fe  Fe93      1.0  0.41266  0.59244  0.85608  1.0000
  S   S183      1.0  0.43957  0.58519  0.82909  1.0000
  S   S184      1.0  0.40133  0.56657  0.88333  1.0000
  Fe  Fe94      1.0  0.40782  0.64300  0.84228  1.0000
  S   S185      1.0  0.43394  0.63906  0.81384  1.0000
  S   S186      1.0  0.38932  0.67765  0.84685  1.0000
  Fe  Fe95      1.0  0.41636  0.60559  0.80528  1.0000
  S   S187      1.0  0.41196  0.59159  0.76848  1.0000
  Fe  Fe96      1.0  0.45505  0.61919  0.83974  1.0000
  H   H1350     1.0  0.48326  0.75779  0.85123  1.0000
  S   S188      1.0  0.38857  0.61078  0.83182  1.0000
  S   S189      1.0  0.42987  0.62515  0.86854  1.0000
  H   H1351     1.0  0.10993  0.89780  0.99958  1.0000
  H   H1352     1.0  0.39781  0.80534  0.84661  1.0000
  C   C763      1.0  0.39028  0.72971  0.90702  1.0000
  C   C764      1.0  0.37923  0.73502  0.88631  1.0000
  C   C765      1.0  0.37927  0.71895  0.86802  1.0000
  C   C766      1.0  0.39052  0.69753  0.87012  1.0000
  C   C767      1.0  0.40183  0.69234  0.89072  1.0000
  C   C768      1.0  0.40151  0.70826  0.90914  1.0000
  H   H1353     1.0  0.37016  0.75125  0.88462  1.0000
  H   H1354     1.0  0.37033  0.72309  0.85220  1.0000
  H   H1355     1.0  0.41069  0.67602  0.89249  1.0000
  H   H1356     1.0  0.41015  0.70403  0.92509  1.0000
  C   C769      1.0  0.37898  0.53454  0.85558  1.0000
  C   C770      1.0  0.38773  0.53984  0.87740  1.0000
  H   H1357     1.0  0.45856  0.88882  0.91959  1.0000
  H   H1358     1.0  0.38076  0.54680  0.84170  1.0000
  H   H1359     1.0  0.45867  0.75781  0.83333  1.0000
  C   C771      1.0  0.36744  0.51353  0.85183  1.0000
  H   H1360     1.0  0.38165  0.78251  0.86010  1.0000
  C   C772      1.0  0.42587  0.52772  0.77976  1.0000
  C   C773      1.0  0.46373  0.77001  0.89092  1.0000
  C   C774      1.0  0.45824  0.90775  0.91701  1.0000
  C   C775      1.0  0.26212  0.87148  0.91242  1.0000
  C   C776      1.0  0.27473  0.85543  0.92549  1.0000
  C   C777      1.0  0.29763  0.84954  0.91971  1.0000
  C   C778      1.0  0.30813  0.85937  0.90045  1.0000
  C   C779      1.0  0.29532  0.87500  0.88699  1.0000
  C   C780      1.0  0.27247  0.88113  0.89298  1.0000
  H   H1361     1.0  0.26676  0.84758  0.94033  1.0000
  H   H1362     1.0  0.30713  0.83732  0.93010  1.0000
  H   H1363     1.0  0.30323  0.88262  0.87199  1.0000
  H   H1364     1.0  0.26301  0.89350  0.88273  1.0000
  H   H1365     1.0  0.21187  0.86708  0.97587  1.0000
  H   H1366     1.0  0.08232  0.98212  0.78685  1.0000
  H   H1367     1.0  0.17375  0.95591  0.82402  1.0000
  H   H1368     1.0  0.15759  0.81559  0.93927  1.0000
  C   C781      1.0  0.15102  0.81759  0.92141  1.0000
  C   C782      1.0  0.47116  0.79172  0.84361  1.0000
  C   C783      1.0  0.29076  0.83787  0.00060  1.0000
  C   C784      1.0  0.46950  0.84061  0.90337  1.0000
  C   C785      1.0  0.46064  0.84505  0.88142  1.0000
  C   C786      1.0  0.47570  0.84740  0.86251  1.0000
  H   H1369     1.0  0.24289  0.93493  0.97535  1.0000
  H   H1370     1.0  0.44225  0.84728  0.87915  1.0000
  H   H1371     1.0  0.46871  0.85121  0.84566  1.0000
  C   C787      1.0  0.10824  0.88568  0.77819  1.0000
  C   C788      1.0  0.10989  0.90225  0.79589  1.0000
  C   C789      1.0  0.12350  0.89815  0.81560  1.0000
  C   C790      1.0  0.13547  0.87730  0.81787  1.0000
  C   C791      1.0  0.13415  0.86092  0.80000  1.0000
  C   C792      1.0  0.12073  0.86511  0.78019  1.0000
  H   H1372     1.0  0.10027  0.91820  0.79449  1.0000
  H   H1373     1.0  0.12429  0.91084  0.82926  1.0000
  H   H1374     1.0  0.14334  0.84473  0.80162  1.0000
  H   H1375     1.0  0.16188  0.89795  0.75330  1.0000
  H   H1376     1.0  0.47562  0.68391  0.87740  1.0000
  C   C793      1.0  0.13518  0.88155  0.97753  1.0000
  C   C794      1.0  0.15052  0.86298  0.97538  1.0000
  C   C795      1.0  0.46012  0.69527  0.87742  1.0000
  H   H1377     1.0  0.16101  0.86125  0.96005  1.0000
  N   N44       1.0  0.09717  0.84911  0.89527  1.0000
  C   C796      1.0  0.12015  0.83688  0.89694  1.0000
  C   C797      1.0  0.09128  0.85361  0.87029  1.0000
  C   C798      1.0  0.09954  0.87215  0.90732  1.0000
  C   C799      1.0  0.07815  0.83612  0.90724  1.0000
  C   C800      1.0  0.07438  0.81078  0.89985  1.0000
  C   C801      1.0  0.12905  0.83225  0.92171  1.0000
  C   C802      1.0  0.07952  0.88970  0.90349  1.0000
  C   C803      1.0  0.09773  0.83466  0.85240  1.0000
  C   C804      1.0  0.08567  0.83890  0.82938  1.0000
  C   C805      1.0  0.05791  0.79866  0.91636  1.0000
  H   H1378     1.0  0.34750  0.92537  0.92516  1.0000
  C   C806      1.0  0.08167  0.91057  0.91946  1.0000
  H   H1379     1.0  0.13356  0.84706  0.88778  1.0000
  H   H1380     1.0  0.12001  0.82010  0.88781  1.0000
  H   H1381     1.0  0.07257  0.85763  0.86851  1.0000
  H   H1382     1.0  0.10054  0.86924  0.86409  1.0000
  H   H1383     1.0  0.11572  0.88078  0.90183  1.0000
  H   H1384     1.0  0.10126  0.86980  0.92628  1.0000
  H   H1385     1.0  0.08076  0.83651  0.92624  1.0000
  H   H1386     1.0  0.06129  0.84485  0.90458  1.0000
  H   H1387     1.0  0.09063  0.80068  0.89966  1.0000
  H   H1388     1.0  0.06626  0.81023  0.88257  1.0000
  H   H1389     1.0  0.13317  0.84871  0.93049  1.0000
  H   H1390     1.0  0.11612  0.82294  0.93213  1.0000
  H   H1391     1.0  0.06248  0.88193  0.90683  1.0000
  H   H1392     1.0  0.07968  0.89616  0.88551  1.0000
  H   H1393     1.0  0.11662  0.83484  0.84924  1.0000
  H   H1394     1.0  0.09336  0.81713  0.85811  1.0000
  H   H1395     1.0  0.06678  0.83654  0.83116  1.0000
  H   H1396     1.0  0.08905  0.85663  0.82315  1.0000
  H   H1397     1.0  0.09225  0.82652  0.81627  1.0000
  H   H1398     1.0  0.32222  0.86505  0.97699  1.0000
  H   H1399     1.0  0.05493  0.78073  0.91034  1.0000
  H   H1400     1.0  0.33977  0.89489  0.99591  1.0000
  H   H1401     1.0  0.39183  0.52768  0.91220  1.0000
  C   C807      1.0  0.32575  0.90805  0.99415  1.0000
  H   H1402     1.0  0.47519  0.78662  0.80654  1.0000
  H   H1403     1.0  0.19173  0.91868  0.79188  1.0000
  H   H1404     1.0  0.09831  0.91947  0.91666  1.0000
  C   C808      1.0  0.15191  0.84624  0.99287  1.0000
  N   N45       1.0  0.36370  0.63603  0.91975  1.0000
  C   C809      1.0  0.38754  0.62649  0.91520  1.0000
  C   C810      1.0  0.35276  0.64258  0.89708  1.0000
  C   C811      1.0  0.36654  0.65787  0.93376  1.0000
  C   C812      1.0  0.34859  0.61948  0.93292  1.0000
  C   C813      1.0  0.35288  0.59326  0.92876  1.0000
  C   C814      1.0  0.40277  0.62292  0.93692  1.0000
  C   C815      1.0  0.34459  0.67284  0.93741  1.0000
  C   C816      1.0  0.34785  0.62274  0.87997  1.0000
  C   C817      1.0  0.33817  0.63205  0.85732  1.0000
  S   S190      1.0  0.35639  0.83540  0.00154  1.0000
  C   C818      1.0  0.42298  0.60657  0.93223  1.0000
  C   C819      1.0  0.34880  0.69189  0.95516  1.0000
  H   H1405     1.0  0.39713  0.63830  0.90364  1.0000
  H   H1406     1.0  0.38689  0.61004  0.90549  1.0000
  H   H1407     1.0  0.33568  0.65085  0.89988  1.0000
  H   H1408     1.0  0.36359  0.65562  0.88812  1.0000
  H   H1409     1.0  0.37966  0.66916  0.92570  1.0000
  H   H1410     1.0  0.37331  0.65380  0.95122  1.0000
  H   H1411     1.0  0.35047  0.62210  0.95184  1.0000
  H   H1412     1.0  0.33009  0.62327  0.92935  1.0000
  H   H1413     1.0  0.36925  0.58770  0.93698  1.0000
  H   H1414     1.0  0.35428  0.58871  0.91030  1.0000
  H   H1415     1.0  0.41003  0.63973  0.94249  1.0000
  H   H1416     1.0  0.39264  0.61594  0.95149  1.0000
  H   H1417     1.0  0.32994  0.66220  0.94337  1.0000
  H   H1418     1.0  0.33971  0.68161  0.92113  1.0000
  H   H1419     1.0  0.36365  0.61269  0.87598  1.0000
  H   H1420     1.0  0.33457  0.61111  0.88711  1.0000
  H   H1421     1.0  0.50047  0.83441  0.92292  1.0000
  H   H1422     1.0  0.33495  0.61753  0.84525  1.0000
  H   H1423     1.0  0.32166  0.64138  0.86031  1.0000
  H   H1424     1.0  0.46517  0.78915  0.89080  1.0000
  H   H1425     1.0  0.48804  0.61731  0.89000  1.0000
  C   C820      1.0  0.40521  0.52059  0.76511  1.0000
  H   H1426     1.0  0.43401  0.61331  0.91820  1.0000
  H   H1427     1.0  0.43367  0.60484  0.94799  1.0000
  H   H1428     1.0  0.41664  0.58921  0.92733  1.0000
  H   H1429     1.0  0.33306  0.70274  0.95697  1.0000
  H   H1430     1.0  0.35303  0.68444  0.97225  1.0000
  H   H1431     1.0  0.36316  0.70317  0.94953  1.0000
  N   N46       1.0  0.30696  0.89921  0.97830  1.0000
  C   C821      1.0  0.28434  0.91123  0.98337  1.0000
  N   N47       1.0  0.45111  0.76181  0.86970  1.0000
  C   C822      1.0  0.31358  0.90513  0.95385  1.0000
  C   C823      1.0  0.30510  0.87336  0.97986  1.0000
  C   C824      1.0  0.33359  0.57878  0.93909  1.0000
  C   C825      1.0  0.26347  0.90409  0.96833  1.0000
  C   C826      1.0  0.33721  0.89558  0.94547  1.0000
  H   H1432     1.0  0.23733  0.91109  0.99462  1.0000
  H   H1433     1.0  0.30641  0.82817  0.99512  1.0000
  H   H1434     1.0  0.36508  0.61125  0.77203  1.0000
  H   H1435     1.0  0.47779  0.72057  0.85771  1.0000
  C   C827      1.0  0.34431  0.90668  0.92273  1.0000
  H   H1436     1.0  0.39095  0.53284  0.76910  1.0000
  H   H1437     1.0  0.45964  0.91644  0.93402  1.0000
  C   C828      1.0  0.38515  0.52373  0.89526  1.0000
  H   H1438     1.0  0.13488  0.99070  0.78599  1.0000
  H   H1439     1.0  0.31351  0.92420  0.95155  1.0000
  H   H1440     1.0  0.30078  0.89830  0.94135  1.0000
  H   H1441     1.0  0.29420  0.86667  0.96573  1.0000
  C   C829      1.0  0.07690  0.00040  0.78829  1.0000
  H   H1442     1.0  0.33749  0.56020  0.93634  1.0000
  H   H1443     1.0  0.22670  0.91044  0.96550  1.0000
  H   H1444     1.0  0.26607  0.90927  0.95015  1.0000
  C   C830      1.0  0.49347  0.83795  0.90603  1.0000
  H   H1445     1.0  0.33602  0.87671  0.94253  1.0000
  H   H1446     1.0  0.35123  0.89871  0.95802  1.0000
  H   H1447     1.0  0.43710  0.73054  0.85494  1.0000
  C   C831      1.0  0.47786  0.91505  0.90110  1.0000
  H   H1448     1.0  0.06747  0.92298  0.91601  1.0000
  H   H1449     1.0  0.11017  0.95911  0.76464  1.0000
  C   C832      1.0  0.13796  0.99802  0.89799  1.0000
  H   H1450     1.0  0.48794  0.81256  0.81770  1.0000
  H   H1451     1.0  0.38335  0.78408  0.82921  1.0000
  C   C833      1.0  0.15987  0.96067  0.81170  1.0000
  H   H1452     1.0  0.23549  0.84694  0.97430  1.0000
  H   H1453     1.0  0.13582  0.98182  0.90688  1.0000
  C   C834      1.0  0.48488  0.79404  0.82127  1.0000
  H   H1454     1.0  0.36038  0.89840  0.91627  1.0000
  H   H1455     1.0  0.33070  0.90432  0.90950  1.0000
  C   C835      1.0  0.14765  0.98252  0.82018  1.0000
  H   H1456     1.0  0.45514  0.80202  0.84171  1.0000
  H   H1457     1.0  0.27898  0.90857  0.00145  1.0000
  H   H1458     1.0  0.31690  0.58279  0.93059  1.0000
  H   H1459     1.0  0.09163  0.99081  0.83132  1.0000
  H   H1460     1.0  0.15419  0.92193  0.77185  1.0000
  H   H1461     1.0  0.42059  0.52912  0.79809  1.0000
  H   H1462     1.0  0.26063  0.88524  0.96899  1.0000
  H   H1463     1.0  0.44140  0.91246  0.90918  1.0000
  H   H1464     1.0  0.33418  0.92349  0.98657  1.0000
  H   H1465     1.0  0.04764  0.99483  0.76569  1.0000
  H   H1466     1.0  0.48440  0.76471  0.93438  1.0000
  C   C836      1.0  0.49969  0.84489  0.86520  1.0000
  C   C837      1.0  0.21965  0.85159  0.98405  1.0000
  H   H1467     1.0  0.44840  0.68936  0.86347  1.0000
  C   C838      1.0  0.46610  0.76611  0.84895  1.0000
  H   H1468     1.0  0.46884  0.79184  0.93337  1.0000
  H   H1469     1.0  0.27686  0.83491  0.98780  1.0000
  H   H1470     1.0  0.45134  0.69349  0.89430  1.0000
  H   H1471     1.0  0.14761  0.94607  0.81065  1.0000
  H   H1472     1.0  0.16335  0.83160  0.99070  1.0000
  H   H1473     1.0  0.47818  0.72543  0.88843  1.0000
  H   H1474     1.0  0.43234  0.51754  0.83804  1.0000
  H   H1475     1.0  0.45832  0.76871  0.95094  1.0000
  H   H1476     1.0  0.19969  0.89469  0.77335  1.0000
  H   H1477     1.0  0.14748  0.80021  0.91423  1.0000
  C   C839      1.0  0.16857  0.91315  0.76271  1.0000
  C   C840      1.0  0.18502  0.90423  0.78126  1.0000
  C   C841      1.0  0.46728  0.72026  0.87364  1.0000
  H   H1478     1.0  0.45108  0.74490  0.91656  1.0000
  H   H1479     1.0  0.48184  0.76367  0.89098  1.0000
  C   C842      1.0  0.46701  0.77283  0.93442  1.0000
  H   H1480     1.0  0.14105  0.97884  0.83770  1.0000
  H   H1481     1.0  0.16776  0.96353  0.79454  1.0000
  H   H1482     1.0  0.20736  0.83705  0.98269  1.0000
  C   C843      1.0  0.42854  0.77478  0.86818  1.0000
  H   H1483     1.0  0.28645  0.93021  0.98152  1.0000
  H   H1484     1.0  0.35060  0.64396  0.84911  1.0000
  C   C844      1.0  0.45257  0.76380  0.91436  1.0000
  C   C845      1.0  0.41469  0.77164  0.84551  1.0000
  H   H1485     1.0  0.33207  0.58202  0.95790  1.0000
  C   C846      1.0  0.12771  0.98945  0.80372  1.0000
  C   C847      1.0  0.39309  0.78684  0.84544  1.0000
  H   H1486     1.0  0.11588  0.97445  0.80324  1.0000
  C   C848      1.0  0.15654  0.00084  0.88292  1.0000
  H   H1487     1.0  0.43122  0.79358  0.87101  1.0000
  H   H1488     1.0  0.41684  0.76945  0.88237  1.0000
  H   H1489     1.0  0.43360  0.73277  0.88488  1.0000
  C   C849      1.0  0.24131  0.91591  0.97658  1.0000
  H   H1490     1.0  0.11963  0.85221  0.76674  1.0000
  H   H1491     1.0  0.36035  0.50982  0.83501  1.0000
  H   H1492     1.0  0.43515  0.77165  0.91590  1.0000
  C   C850      1.0  0.44603  0.73637  0.87086  1.0000
  H   H1493     1.0  0.40906  0.75352  0.84346  1.0000
  H   H1494     1.0  0.42498  0.77644  0.83020  1.0000
  H   H1495     1.0  0.50101  0.88853  0.91088  1.0000
  H   H1496     1.0  0.49262  0.89449  0.83818  1.0000
  H   H1497     1.0  0.47499  0.90636  0.88427  1.0000
  H   H1498     1.0  0.16464  0.82591  0.91093  1.0000
  H   H1499     1.0  0.06539  0.79794  0.93396  1.0000
  H   H1500     1.0  0.04103  0.80780  0.91705  1.0000
  H   H1501     1.0  0.43235  0.54485  0.77434  1.0000
  H   H1502     1.0  0.47645  0.93395  0.89897  1.0000
  H   H1503     1.0  0.17575  0.89225  0.79284  1.0000
  H   H1504     1.0  0.16080  0.99625  0.82150  1.0000
  H   H1505     1.0  0.49750  0.91957  0.82069  1.0000
  H   H1506     1.0  0.18552  0.94520  0.75764  1.0000
  H   H1507     1.0  0.49847  0.69806  0.82569  1.0000
  S   S191      1.0  0.49368  0.62714  0.84070  1.0000
  H   H1508     1.0  0.06527  0.00211  0.80338  1.0000
  C   C851      1.0  0.12188  0.88354  0.99774  1.0000
  H   H1509     1.0  0.48165  0.79934  0.85762  1.0000
  H   H1510     1.0  0.27735  0.56767  0.76191  1.0000
  H   H1511     1.0  0.49479  0.93001  0.86159  1.0000
  C   C852      1.0  0.36798  0.60573  0.75445  1.0000
  H   H1512     1.0  0.44002  0.51485  0.77822  1.0000
  H   H1513     1.0  0.50220  0.91296  0.92948  1.0000
  H   H1514     1.0  0.50029  0.59654  0.97743  1.0000
  H   H1515     1.0  0.50254  0.56581  0.97311  1.0000
  C   C853      1.0  0.29594  0.86358  0.00278  1.0000
  C   C854      1.0  0.50153  0.90767  0.91100  1.0000
  S   S192      1.0  0.08982  0.89131  0.75443  1.0000
  H   H1516     1.0  0.50188  0.78528  0.82280  1.0000
  Fe  Fe97      1.0  0.54974  0.35376  0.18575  1.0000
  S   S193      1.0  0.57561  0.35405  0.15682  1.0000
  H   H1517     1.0  0.71112  0.04660  0.08332  1.0000
  Fe  Fe98      1.0  0.58535  0.37183  0.22148  1.0000
  S   S194      1.0  0.61347  0.37304  0.19493  1.0000
  H   H1518     1.0  0.72902  0.09119  0.02217  1.0000
  Fe  Fe99      1.0  0.58691  0.38836  0.17150  1.0000
  S   S195      1.0  0.59227  0.41963  0.14853  1.0000
  Fe  Fe100     1.0  0.60004  0.33858  0.18261  1.0000
  S   S196      1.0  0.62592  0.30972  0.17497  1.0000
  S   S197      1.0  0.55916  0.38915  0.19847  1.0000
  S   S198      1.0  0.57375  0.33625  0.21106  1.0000
  Fe  Fe101     1.0  0.84892  0.02873  0.15423  1.0000
  S   S199      1.0  0.87511  0.05532  0.14404  1.0000
  H   H1519     1.0  0.62654  0.49878  0.19638  1.0000
  Fe  Fe102     1.0  0.80819  0.06088  0.13954  1.0000
  S   S200      1.0  0.83184  0.08960  0.12951  1.0000
  S   S201      1.0  0.76945  0.06146  0.13225  1.0000
  Fe  Fe103     1.0  0.85310  0.06186  0.11262  1.0000
  S   S202      1.0  0.86570  0.06328  0.07532  1.0000
  Fe  Fe104     1.0  0.85156  0.08052  0.16188  1.0000
  S   S203      1.0  0.86548  0.10732  0.18680  1.0000
  S   S204      1.0  0.82868  0.03306  0.12136  1.0000
  S   S205      1.0  0.82607  0.05403  0.17332  1.0000
  Fe  Fe105     1.0  0.64008  0.15001  0.07015  1.0000
  S   S206      1.0  0.64731  0.12311  0.09695  1.0000
  S   S207      1.0  0.64749  0.14705  0.03146  1.0000
  Fe  Fe106     1.0  0.62745  0.18720  0.10714  1.0000
  S   S208      1.0  0.63437  0.16271  0.13629  1.0000
  S   S209      1.0  0.60907  0.22213  0.11022  1.0000
  Fe  Fe107     1.0  0.66583  0.15125  0.11597  1.0000
  S   S210      1.0  0.70251  0.14926  0.13027  1.0000
  Fe  Fe108     1.0  0.61516  0.13680  0.11479  1.0000
  S   S211      1.0  0.58783  0.11290  0.12972  1.0000
  S   S212      1.0  0.66010  0.17781  0.08831  1.0000
  S   S213      1.0  0.60673  0.16160  0.08658  1.0000
  C   C855      1.0  0.55945  0.12138  0.13775  1.0000
  C   C856      1.0  0.54585  0.10632  0.15089  1.0000
  C   C857      1.0  0.52338  0.11266  0.15794  1.0000
  C   C858      1.0  0.52755  0.14878  0.13792  1.0000
  C   C859      1.0  0.55007  0.14256  0.13107  1.0000
  H   H1520     1.0  0.55288  0.08981  0.15600  1.0000
  H   H1521     1.0  0.78208  0.13614  0.10775  1.0000
  H   H1522     1.0  0.56019  0.15413  0.12064  1.0000
  C   C860      1.0  0.75109  0.08607  0.13221  1.0000
  C   C861      1.0  0.72801  0.08362  0.12522  1.0000
  C   C862      1.0  0.71298  0.10277  0.12432  1.0000
  C   C863      1.0  0.72077  0.12460  0.13082  1.0000
  C   C864      1.0  0.74378  0.12703  0.13805  1.0000
  C   C865      1.0  0.75891  0.10790  0.13867  1.0000
  H   H1523     1.0  0.72160  0.06674  0.12080  1.0000
  H   H1524     1.0  0.69526  0.10058  0.11900  1.0000
  H   H1525     1.0  0.74992  0.14382  0.14328  1.0000
  H   H1526     1.0  0.77653  0.11001  0.14434  1.0000
  C   C866      1.0  0.87945  0.07376  0.21770  1.0000
  C   C867      1.0  0.87937  0.09714  0.21196  1.0000
  C   C868      1.0  0.89024  0.11289  0.22674  1.0000
  H   H1527     1.0  0.87144  0.06139  0.20628  1.0000
  H   H1528     1.0  0.89099  0.13080  0.22183  1.0000
  C   C869      1.0  0.85978  0.12521  0.02633  1.0000
  C   C870      1.0  0.86011  0.10269  0.01773  1.0000
  C   C871      1.0  0.86128  0.08387  0.03299  1.0000
  C   C872      1.0  0.86189  0.08735  0.05696  1.0000
  C   C873      1.0  0.86104  0.10988  0.06557  1.0000
  C   C874      1.0  0.86003  0.12868  0.05030  1.0000
  H   H1529     1.0  0.60259  0.11212  0.05328  1.0000
  H   H1530     1.0  0.86186  0.06650  0.02617  1.0000
  H   H1531     1.0  0.86183  0.11282  0.08396  1.0000
  H   H1532     1.0  0.85991  0.14607  0.05708  1.0000
  C   C875      1.0  0.62075  0.28521  0.15734  1.0000
  C   C876      1.0  0.60101  0.28346  0.14369  1.0000
  C   C877      1.0  0.59808  0.26431  0.12901  1.0000
  C   C878      1.0  0.61437  0.24623  0.12844  1.0000
  C   C879      1.0  0.63382  0.24767  0.14256  1.0000
  C   C880      1.0  0.63711  0.26721  0.15671  1.0000
  H   H1533     1.0  0.58818  0.29706  0.14415  1.0000
  H   H1534     1.0  0.58297  0.26340  0.11816  1.0000
  H   H1535     1.0  0.64649  0.23391  0.14235  1.0000
  H   H1536     1.0  0.65242  0.26836  0.16727  1.0000
  H   H1537     1.0  0.82367  0.15246  0.07861  1.0000
  C   C881      1.0  0.62585  0.48076  0.14400  1.0000
  C   C882      1.0  0.60971  0.46289  0.14150  1.0000
  C   C883      1.0  0.61242  0.44198  0.15337  1.0000
  C   C884      1.0  0.63143  0.43913  0.16792  1.0000
  C   C885      1.0  0.64776  0.45690  0.17017  1.0000
  C   C886      1.0  0.58595  0.17433  0.19163  1.0000
  H   H1538     1.0  0.59509  0.46524  0.13018  1.0000
  H   H1539     1.0  0.63365  0.42321  0.17729  1.0000
  H   H1540     1.0  0.79902  0.04639  0.05642  1.0000
  H   H1541     1.0  0.90433  0.15336  0.03558  1.0000
  H   H1542     1.0  0.57091  0.48111  0.22483  1.0000
  C   C887      1.0  0.94087  0.07375  0.02829  1.0000
  C   C888      1.0  0.91890  0.15629  0.02354  1.0000
  C   C889      1.0  0.57696  0.17548  0.03137  1.0000
  H   H1543     1.0  0.78107  0.15927  0.08777  1.0000
  H   H1544     1.0  0.71623  0.13114  0.04832  1.0000
  H   H1545     1.0  0.71016  0.12714  0.07863  1.0000
  H   H1546     1.0  0.60362  0.18086  0.19494  1.0000
  H   H1547     1.0  0.70730  0.15522  0.06590  1.0000
  H   H1548     1.0  0.93462  0.16049  0.03357  1.0000
  H   H1549     1.0  0.58844  0.21652  0.20594  1.0000
  H   H1550     1.0  0.81068  0.18293  0.10611  1.0000
  H   H1551     1.0  0.80328  0.08642  0.04471  1.0000
  N   N48       1.0  0.65045  0.37342  0.11655  1.0000
  C   C890      1.0  0.63641  0.35168  0.11862  1.0000
  C   C891      1.0  0.65728  0.38205  0.14019  1.0000
  C   C892      1.0  0.63512  0.39153  0.10566  1.0000
  C   C893      1.0  0.67128  0.37024  0.10126  1.0000
  C   C894      1.0  0.68808  0.35037  0.10740  1.0000
  C   C895      1.0  0.62777  0.34111  0.09561  1.0000
  C   C896      1.0  0.64484  0.41644  0.10501  1.0000
  C   C897      1.0  0.66381  0.36373  0.15853  1.0000
  C   C898      1.0  0.67489  0.37489  0.17965  1.0000
  C   C899      1.0  0.70537  0.34608  0.08795  1.0000
  C   C900      1.0  0.61533  0.31840  0.09972  1.0000
  C   C901      1.0  0.62828  0.43273  0.09254  1.0000
  H   H1552     1.0  0.62106  0.35500  0.12975  1.0000
  H   H1553     1.0  0.64604  0.33785  0.12767  1.0000
  H   H1554     1.0  0.67176  0.39450  0.13881  1.0000
  H   H1555     1.0  0.64271  0.39192  0.14813  1.0000
  H   H1556     1.0  0.61820  0.39240  0.11481  1.0000
  H   H1557     1.0  0.63106  0.38692  0.08752  1.0000
  H   H1558     1.0  0.66585  0.36800  0.08300  1.0000
  H   H1559     1.0  0.68195  0.38607  0.10128  1.0000
  H   H1560     1.0  0.67905  0.33392  0.11051  1.0000
  H   H1561     1.0  0.69825  0.35514  0.12285  1.0000
  H   H1562     1.0  0.61533  0.35281  0.08699  1.0000
  H   H1563     1.0  0.64234  0.33748  0.08375  1.0000
  H   H1564     1.0  0.66154  0.41711  0.09580  1.0000
  H   H1565     1.0  0.64741  0.42333  0.12266  1.0000
  H   H1566     1.0  0.64805  0.35471  0.16433  1.0000
  H   H1567     1.0  0.67575  0.35038  0.15198  1.0000
  H   H1568     1.0  0.67787  0.36161  0.19307  1.0000
  H   H1569     1.0  0.69170  0.38266  0.17501  1.0000
  H   H1570     1.0  0.66343  0.38847  0.18698  1.0000
  H   H1571     1.0  0.71534  0.36194  0.08428  1.0000
  H   H1572     1.0  0.71765  0.33225  0.09307  1.0000
  H   H1573     1.0  0.69635  0.34043  0.07204  1.0000
  H   H1574     1.0  0.60925  0.31118  0.08307  1.0000
  H   H1575     1.0  0.62714  0.30563  0.10779  1.0000
  H   H1576     1.0  0.60013  0.32124  0.11103  1.0000
  H   H1577     1.0  0.62672  0.42781  0.07411  1.0000
  H   H1578     1.0  0.61093  0.43236  0.10062  1.0000
  H   H1579     1.0  0.63487  0.45064  0.09359  1.0000
  C   C902      1.0  0.57505  0.18776  0.17125  1.0000
  H   H1580     1.0  0.59677  0.25260  0.22733  1.0000
  H   H1581     1.0  0.72789  0.02125  0.07563  1.0000
  C   C903      1.0  0.81523  0.14724  0.09489  1.0000
  H   H1582     1.0  0.91095  0.11005  0.03232  1.0000
  H   H1583     1.0  0.57525  0.43820  0.22358  1.0000
  C   C904      1.0  0.52846  0.18834  0.19026  1.0000
  H   H1584     1.0  0.50978  0.42381  0.03607  1.0000
  H   H1585     1.0  0.59113  0.49694  0.17845  1.0000
  H   H1586     1.0  0.51333  0.10114  0.16851  1.0000
  C   C905      1.0  0.81855  0.16665  0.11243  1.0000
  C   C906      1.0  0.61246  0.07480  0.08001  1.0000
  H   H1587     1.0  0.60989  0.08299  0.09710  1.0000
  H   H1588     1.0  0.83726  0.16954  0.11518  1.0000
  H   H1589     1.0  0.54610  0.14102  0.03767  1.0000
  H   H1590     1.0  0.67845  0.02766  0.01638  1.0000
  H   H1591     1.0  0.80009  0.16866  0.21770  1.0000
  H   H1592     1.0  0.52034  0.16511  0.13260  1.0000
  H   H1593     1.0  0.98479  0.07496  0.00938  1.0000
  H   H1594     1.0  0.51302  0.09995  0.10693  1.0000
  H   H1595     1.0  0.58506  0.11329  0.07784  1.0000
  S   S214      1.0  0.51290  0.33978  0.18385  1.0000
  H   H1596     1.0  0.55755  0.22715  0.10738  1.0000
  H   H1597     1.0  0.59515  0.06969  0.04817  1.0000
  C   C907      1.0  0.59620  0.26115  0.21026  1.0000
  H   H1598     1.0  0.81702  0.06081  0.07707  1.0000
  H   H1599     1.0  0.87819  0.15215  0.25241  1.0000
  H   H1600     1.0  0.70011  0.04681  0.04211  1.0000
  C   C908      1.0  0.57778  0.25027  0.19495  1.0000
  H   H1601     1.0  0.51325  0.36209  0.13842  1.0000
  C   C909      1.0  0.92034  0.06591  0.04344  1.0000
  C   C910      1.0  0.83497  0.16077  0.22947  1.0000
  H   H1602     1.0  0.95470  0.07991  0.04010  1.0000
  C   C911      1.0  0.64300  0.12539  0.01022  1.0000
  H   H1603     1.0  0.54453  0.08097  0.05319  1.0000
  C   C912      1.0  0.54427  0.20971  0.19293  1.0000
  C   C913      1.0  0.63582  0.10308  0.01564  1.0000
  H   H1604     1.0  0.89013  0.04818  0.24233  1.0000
  N   N49       1.0  0.56617  0.11037  0.04568  1.0000
  N   N50       1.0  0.93574  0.09205  0.01053  1.0000
  H   H1605     1.0  0.57083  0.08136  0.02253  1.0000
  H   H1606     1.0  0.59103  0.18457  0.02221  1.0000
  H   H1607     1.0  0.54894  0.19467  0.13329  1.0000
  H   H1608     1.0  0.78738  0.05481  0.08402  1.0000
  H   H1609     1.0  0.94018  0.11797  0.03703  1.0000
  H   H1610     1.0  0.55259  0.09782  0.09239  1.0000
  H   H1611     1.0  0.53878  0.12438  0.08421  1.0000
  C   C914      1.0  0.90028  0.10552  0.24759  1.0000
  H   H1612     1.0  0.50684  0.39875  0.01790  1.0000
  C   C915      1.0  0.92755  0.11332  0.02333  1.0000
  H   H1613     1.0  0.59218  0.27972  0.21292  1.0000
  C   C916      1.0  0.59145  0.07866  0.06465  1.0000
  H   H1614     1.0  0.61343  0.25982  0.20200  1.0000
  H   H1615     1.0  0.56099  0.25180  0.20399  1.0000
  H   H1616     1.0  0.94786  0.05788  0.02020  1.0000
  C   C917      1.0  0.58787  0.14857  0.18638  1.0000
  H   H1617     1.0  0.57047  0.14093  0.18431  1.0000
  H   H1618     1.0  0.59792  0.14558  0.17036  1.0000
  H   H1619     1.0  0.59677  0.13964  0.20076  1.0000
  H   H1620     1.0  0.82435  0.13198  0.10186  1.0000
  N   N51       1.0  0.78342  0.12544  0.07197  1.0000
  C   C918      1.0  0.75761  0.12202  0.07225  1.0000
  C   C919      1.0  0.79493  0.10275  0.07767  1.0000
  C   C920      1.0  0.78925  0.14221  0.09107  1.0000
  C   C921      1.0  0.79226  0.13491  0.04940  1.0000
  C   C922      1.0  0.77940  0.12764  0.02707  1.0000
  C   C923      1.0  0.74273  0.14432  0.07144  1.0000
  C   C924      1.0  0.79211  0.08307  0.05989  1.0000
  C   C925      1.0  0.79933  0.05989  0.07000  1.0000
  H   H1621     1.0  0.61981  0.46414  0.21211  1.0000
  C   C926      1.0  0.71761  0.13902  0.06568  1.0000
  H   H1622     1.0  0.75240  0.11267  0.08814  1.0000
  H   H1623     1.0  0.75198  0.11075  0.05796  1.0000
  H   H1624     1.0  0.81386  0.10474  0.07931  1.0000
  H   H1625     1.0  0.78884  0.09655  0.09481  1.0000
  H   H1626     1.0  0.79182  0.15412  0.04956  1.0000
  H   H1627     1.0  0.81082  0.13033  0.04723  1.0000
  H   H1628     1.0  0.76228  0.13623  0.02624  1.0000
  H   H1629     1.0  0.77656  0.10887  0.02600  1.0000
  H   H1630     1.0  0.74280  0.15292  0.08859  1.0000
  H   H1631     1.0  0.74944  0.15664  0.05854  1.0000
  H   H1632     1.0  0.77415  0.08127  0.05410  1.0000
  H   H1633     1.0  0.56189  0.17656  0.16326  1.0000
  H   H1634     1.0  0.66250  0.45451  0.18134  1.0000
  H   H1635     1.0  0.81066  0.16198  0.12921  1.0000
  H   H1636     1.0  0.58868  0.18950  0.15778  1.0000
  S   S215      1.0  0.66586  0.49980  0.16190  1.0000
  C   C927      1.0  0.64508  0.47778  0.15821  1.0000
  H   H1637     1.0  0.57573  0.17652  0.20765  1.0000
  H   H1638     1.0  0.52516  0.21090  0.14587  1.0000
  N   N52       1.0  0.56507  0.21110  0.17727  1.0000
  C   C928      1.0  0.51421  0.13409  0.15171  1.0000
  C   C929      1.0  0.57038  0.10049  0.02197  1.0000
  H   H1639     1.0  0.53725  0.17263  0.19679  1.0000
  C   C930      1.0  0.58189  0.14958  0.03119  1.0000
  H   H1640     1.0  0.59983  0.22467  0.17871  1.0000
  H   H1641     1.0  0.85268  0.16537  0.22402  1.0000
  H   H1642     1.0  0.71985  0.02512  0.03257  1.0000
  H   H1643     1.0  0.53386  0.24351  0.11964  1.0000
  H   H1644     1.0  0.91271  0.04135  0.07043  1.0000
  C   C931      1.0  0.54263  0.21199  0.13830  1.0000
  H   H1645     1.0  0.57542  0.22709  0.14572  1.0000
  C   C932      1.0  0.55929  0.22378  0.15534  1.0000
  H   H1646     1.0  0.73427  0.07042  0.05681  1.0000
  C   C933      1.0  0.54052  0.22588  0.11604  1.0000
  H   H1647     1.0  0.94159  0.05244  0.07139  1.0000
  H   H1648     1.0  0.52854  0.21707  0.10403  1.0000
  C   C934      1.0  0.58981  0.48424  0.22456  1.0000
  H   H1649     1.0  0.56042  0.17929  0.02251  1.0000
  H   H1650     1.0  0.57657  0.07022  0.07304  1.0000
  C   C935      1.0  0.73457  0.05146  0.05438  1.0000
  H   H1651     1.0  0.63365  0.09824  0.03340  1.0000
  C   C936      1.0  0.72822  0.04032  0.07729  1.0000
  H   H1652     1.0  0.74133  0.04487  0.09045  1.0000
  H   H1653     1.0  0.75236  0.04565  0.05028  1.0000
  C   C937      1.0  0.51606  0.09580  0.08847  1.0000
  H   H1654     1.0  0.67218  0.05729  0.00963  1.0000
  H   H1655     1.0  0.61519  0.05605  0.08268  1.0000
  H   H1656     1.0  0.54967  0.20985  0.21135  1.0000
  H   H1657     1.0  0.55152  0.24092  0.15916  1.0000
  H   H1658     1.0  0.83265  0.14202  0.22651  1.0000
  H   H1659     1.0  0.90604  0.05927  0.03268  1.0000
  C   C938      1.0  0.71776  0.04411  0.03500  1.0000
  C   C939      1.0  0.50614  0.19137  0.20397  1.0000
  C   C940      1.0  0.58373  0.22473  0.18929  1.0000
  C   C941      1.0  0.92765  0.04654  0.05970  1.0000
  H   H1660     1.0  0.52919  0.10611  0.04531  1.0000
  H   H1661     1.0  0.59909  0.14684  0.03887  1.0000
  C   C942      1.0  0.56324  0.13623  0.04486  1.0000
  H   H1662     1.0  0.91377  0.08021  0.05438  1.0000
  H   H1663     1.0  0.53332  0.22538  0.19092  1.0000
  H   H1664     1.0  0.59461  0.46223  0.19403  1.0000
  H   H1665     1.0  0.50532  0.39601  0.04895  1.0000
  C   C943      1.0  0.79292  0.13459  0.00560  1.0000
  H   H1666     1.0  0.57697  0.26065  0.17898  1.0000
  H   H1667     1.0  0.93364  0.03122  0.04980  1.0000
  C   C944      1.0  0.60073  0.46320  0.21207  1.0000
  C   C945      1.0  0.59422  0.44064  0.22376  1.0000
  H   H1668     1.0  0.60223  0.42594  0.21435  1.0000
  H   H1669     1.0  0.57616  0.18221  0.04929  1.0000
  H   H1670     1.0  0.62818  0.08192  0.07186  1.0000
  H   H1671     1.0  0.62357  0.49670  0.13467  1.0000
  H   H1672     1.0  0.50993  0.19440  0.22248  1.0000
  C   C946      1.0  0.88998  0.06632  0.23823  1.0000
  H   H1673     1.0  0.56329  0.14355  0.06260  1.0000
  H   H1674     1.0  0.82025  0.19227  0.21507  1.0000
  C   C947      1.0  0.53930  0.10554  0.08102  1.0000
  C   C948      1.0  0.81816  0.17332  0.21353  1.0000
  H   H1675     1.0  0.51588  0.07677  0.08639  1.0000
  H   H1676     1.0  0.63269  0.49178  0.24086  1.0000
  H   H1677     1.0  0.59522  0.48378  0.24294  1.0000
  H   H1678     1.0  0.58769  0.10555  0.01557  1.0000
  H   H1679     1.0  0.70045  0.08357  0.02909  1.0000
  H   H1680     1.0  0.82167  0.16819  0.19540  1.0000
  C   C949      1.0  0.54441  0.10004  0.05531  1.0000
  C   C950      1.0  0.58666  0.10474  0.06071  1.0000
  H   H1681     1.0  0.75678  0.06274  0.01691  1.0000
  H   H1682     1.0  0.58279  0.14408  0.01291  1.0000
  H   H1683     1.0  0.52372  0.18494  0.17218  1.0000
  S   S216      1.0  0.85866  0.14946  0.00791  1.0000
  H   H1684     1.0  0.53547  0.09836  0.00742  1.0000
  H   H1685     1.0  0.66548  0.49251  0.21404  1.0000
  C   C951      1.0  0.71390  0.08150  0.01550  1.0000
  H   H1686     1.0  0.69393  0.12528  0.01347  1.0000
  N   N53       1.0  0.72027  0.05638  0.01219  1.0000
  H   H1687     1.0  0.60055  0.44031  0.24181  1.0000
  H   H1688     1.0  0.96715  0.11198  0.00665  1.0000
  H   H1689     1.0  0.52322  0.26720  0.18125  1.0000
  H   H1690     1.0  0.91445  0.17128  0.01253  1.0000
  H   H1691     1.0  0.51137  0.28765  0.20142  1.0000
  C   C952      1.0  0.92303  0.13504  0.00842  1.0000
  C   C953      1.0  0.55219  0.10660  0.00336  1.0000
  H   H1692     1.0  0.80971  0.12528  0.00489  1.0000
  H   H1693     1.0  0.79621  0.15343  0.00558  1.0000
  C   C954      1.0  0.50719  0.27265  0.19023  1.0000
  C   C955      1.0  0.74510  0.05380  0.00467  1.0000
  H   H1694     1.0  0.75018  0.03523  0.00491  1.0000
  H   H1695     1.0  0.56463  0.50257  0.19234  1.0000
  H   H1696     1.0  0.90033  0.08333  0.00340  1.0000
  Fe  Fe109     1.0  0.69704  0.40358  0.40572  1.0000
  S   S217      1.0  0.67131  0.37496  0.40809  1.0000
  S   S218      1.0  0.73499  0.40151  0.41608  1.0000
  Fe  Fe110     1.0  0.66016  0.43876  0.38923  1.0000
  S   S219      1.0  0.63191  0.41249  0.39071  1.0000
  S   S220      1.0  0.65682  0.47478  0.37381  1.0000
  Fe  Fe111     1.0  0.64815  0.40160  0.42431  1.0000
  S   S221      1.0  0.62543  0.39639  0.45568  1.0000
  Fe  Fe112     1.0  0.65739  0.38830  0.37423  1.0000
  S   S222      1.0  0.64987  0.36307  0.34506  1.0000
  S   S223      1.0  0.67461  0.42971  0.42403  1.0000
  S   S224      1.0  0.68492  0.41497  0.37070  1.0000
  Fe  Fe113     1.0  0.89153  0.32488  0.41874  1.0000
  S   S225      1.0  0.89857  0.30065  0.44810  1.0000
  S   S226      1.0  0.91789  0.34742  0.40050  1.0000
  Fe  Fe114     1.0  0.84017  0.31330  0.41676  1.0000
  S   S227      1.0  0.84402  0.28749  0.44518  1.0000
  S   S228      1.0  0.80416  0.31703  0.40111  1.0000
  Fe  Fe115     1.0  0.86531  0.31428  0.46327  1.0000
  H   H1697     1.0  0.57545  0.43040  0.37539  1.0000
  Fe  Fe116     1.0  0.87663  0.27582  0.42788  1.0000
  S   S229      1.0  0.88827  0.23824  0.42769  1.0000
  S   S230      1.0  0.85984  0.34073  0.43551  1.0000
  S   S231      1.0  0.87128  0.29929  0.39772  1.0000
  Fe  Fe117     1.0  0.90631  0.13074  0.34642  1.0000
  S   S232      1.0  0.93391  0.12735  0.31941  1.0000
  S   S233      1.0  0.88727  0.16526  0.34550  1.0000
  Fe  Fe118     1.0  0.91446  0.08102  0.36284  1.0000
  S   S234      1.0  0.94333  0.07525  0.33765  1.0000
  S   S235      1.0  0.90528  0.05182  0.38723  1.0000
  Fe  Fe119     1.0  0.95512  0.11083  0.34750  1.0000
  H   H1698     1.0  0.73023  0.32587  0.31594  1.0000
  Fe  Fe120     1.0  0.91939  0.09230  0.31224  1.0000
  S   S236      1.0  0.91244  0.07196  0.27942  1.0000
  S   S237      1.0  0.92796  0.11564  0.37476  1.0000
  S   S238      1.0  0.89013  0.09664  0.33722  1.0000
  H   H1699     1.0  0.67697  0.30036  0.42355  1.0000
  C   C956      1.0  0.59761  0.33027  0.39990  1.0000
  H   H1700     1.0  0.93383  0.20394  0.45467  1.0000
  H   H1701     1.0  0.77237  0.31622  0.49381  1.0000
  C   C957      1.0  0.96895  0.13586  0.41729  1.0000
  H   H1702     1.0  0.81515  0.38911  0.49705  1.0000
  C   C958      1.0  0.75640  0.34786  0.34503  1.0000
  C   C959      1.0  0.88710  0.21840  0.40449  1.0000
  C   C960      1.0  0.88064  0.22488  0.38221  1.0000
  C   C961      1.0  0.88071  0.20840  0.36428  1.0000
  C   C962      1.0  0.88756  0.18548  0.36841  1.0000
  C   C963      1.0  0.89403  0.17908  0.39065  1.0000
  C   C964      1.0  0.89361  0.19545  0.40858  1.0000
  H   H1703     1.0  0.87544  0.24248  0.37889  1.0000
  H   H1704     1.0  0.87535  0.21342  0.34718  1.0000
  H   H1705     1.0  0.89883  0.16140  0.39416  1.0000
  H   H1706     1.0  0.89793  0.19026  0.42588  1.0000
  H   H1707     1.0  0.70970  0.34506  0.26959  1.0000
  C   C965      1.0  0.88781  0.02806  0.37924  1.0000
  C   C966      1.0  0.87752  0.02649  0.35749  1.0000
  H   H1708     1.0  0.93921  0.10197  0.43492  1.0000
  H   H1709     1.0  0.88001  0.04013  0.34511  1.0000
  C   C967      1.0  0.75387  0.37759  0.41271  1.0000
  C   C968      1.0  0.77773  0.38146  0.41161  1.0000
  C   C969      1.0  0.79335  0.36300  0.40871  1.0000
  C   C970      1.0  0.78527  0.34041  0.40704  1.0000
  C   C971      1.0  0.76141  0.33648  0.40850  1.0000
  C   C972      1.0  0.74580  0.35496  0.41158  1.0000
  H   H1710     1.0  0.78416  0.39890  0.41258  1.0000
  H   H1711     1.0  0.81162  0.36629  0.40711  1.0000
  H   H1712     1.0  0.75501  0.31905  0.40723  1.0000
  H   H1713     1.0  0.72756  0.35173  0.41312  1.0000
  C   C973      1.0  0.63260  0.37688  0.47790  1.0000
  C   C974      1.0  0.65113  0.36154  0.47572  1.0000
  H   H1714     1.0  0.60042  0.24210  0.40317  1.0000
  H   H1715     1.0  0.66169  0.36185  0.46039  1.0000
  H   H1716     1.0  0.85880  0.08057  0.30052  1.0000
  C   C975      1.0  0.63390  0.37091  0.32014  1.0000
  C   C976      1.0  0.63203  0.35515  0.30177  1.0000
  C   C977      1.0  0.61895  0.36058  0.28198  1.0000
  C   C978      1.0  0.60737  0.38175  0.28054  1.0000
  C   C979      1.0  0.60938  0.39752  0.29890  1.0000
  C   C980      1.0  0.62267  0.39222  0.31852  1.0000
  H   H1717     1.0  0.64059  0.33859  0.30287  1.0000
  H   H1718     1.0  0.60441  0.49455  0.28596  1.0000
  H   H1719     1.0  0.60056  0.41393  0.29794  1.0000
  H   H1720     1.0  0.62404  0.40452  0.33248  1.0000
  C   C981      1.0  0.77722  0.35364  0.32937  1.0000
  C   C982      1.0  0.67106  0.30934  0.43942  1.0000
  H   H1721     1.0  0.93583  0.21600  0.30342  1.0000
  H   H1722     1.0  0.61656  0.47684  0.40449  1.0000
  H   H1723     1.0  0.80276  0.35441  0.35696  1.0000
  H   H1724     1.0  0.69001  0.30395  0.38173  1.0000
  C   C983      1.0  0.96009  0.35311  0.37966  1.0000
  C   C984      1.0  0.94698  0.33964  0.39486  1.0000
  C   C985      1.0  0.95723  0.32033  0.40500  1.0000
  C   C986      1.0  0.98017  0.31436  0.39960  1.0000
  H   H1725     1.0  0.95234  0.36817  0.37184  1.0000
  H   H1726     1.0  0.94741  0.30999  0.41692  1.0000
  C   C987      1.0  0.64486  0.30789  0.44164  1.0000
  N   N54       1.0  0.94453  0.26769  0.35310  1.0000
  C   C988      1.0  0.96297  0.27964  0.33922  1.0000
  C   C989      1.0  0.92484  0.28425  0.35819  1.0000
  C   C990      1.0  0.95533  0.26053  0.37565  1.0000
  C   C991      1.0  0.93589  0.24616  0.34142  1.0000
  C   C992      1.0  0.92469  0.24918  0.31750  1.0000
  H   H1727     1.0  0.75028  0.43309  0.36088  1.0000
  C   C993      1.0  0.93885  0.25099  0.39434  1.0000
  C   C994      1.0  0.91957  0.22575  0.30653  1.0000
  H   H1728     1.0  0.89224  0.01118  0.41197  1.0000
  C   C995      1.0  0.95191  0.24642  0.41675  1.0000
  H   H1729     1.0  0.96852  0.29560  0.34847  1.0000
  H   H1730     1.0  0.95625  0.28565  0.32242  1.0000
  H   H1731     1.0  0.90880  0.27455  0.36220  1.0000
  H   H1732     1.0  0.92853  0.29457  0.37400  1.0000
  H   H1733     1.0  0.96457  0.27532  0.38334  1.0000
  H   H1734     1.0  0.96854  0.24685  0.37286  1.0000
  H   H1735     1.0  0.94996  0.23319  0.33985  1.0000
  H   H1736     1.0  0.92253  0.23776  0.35222  1.0000
  H   H1737     1.0  0.93605  0.25867  0.30553  1.0000
  H   H1738     1.0  0.90798  0.25844  0.31929  1.0000
  C   C996      1.0  0.74347  0.39732  0.35268  1.0000
  S   S239      1.0  0.85390  0.31692  0.50085  1.0000
  H   H1739     1.0  0.93126  0.23442  0.38871  1.0000
  H   H1740     1.0  0.92463  0.26323  0.39835  1.0000
  H   H1741     1.0  0.71593  0.38893  0.32956  1.0000
  H   H1742     1.0  0.90820  0.21539  0.31785  1.0000
  H   H1743     1.0  0.91072  0.22826  0.28977  1.0000
  C   C997      1.0  0.97850  0.17267  0.39907  1.0000
  C   C998      1.0  0.73368  0.38232  0.33283  1.0000
  H   H1744     1.0  0.82567  0.12620  0.27079  1.0000
  H   H1745     1.0  0.93986  0.23940  0.42979  1.0000
  H   H1746     1.0  0.96599  0.23368  0.41392  1.0000
  H   H1747     1.0  0.95921  0.26269  0.42367  1.0000
  C   C999      1.0  0.79977  0.34539  0.34031  1.0000
  H   H1748     1.0  0.60109  0.29162  0.44430  1.0000
  H   H1749     1.0  0.75348  0.41330  0.46230  1.0000
  H   H1750     1.0  0.77549  0.34494  0.31241  1.0000
  H   H1751     1.0  0.59680  0.28268  0.39174  1.0000
  H   H1752     1.0  0.96033  0.08876  0.41601  1.0000
  N   N55       1.0  0.73323  0.35667  0.33705  1.0000
  H   H1753     1.0  0.89700  0.32408  0.36102  1.0000
  C   C1000     1.0  0.74416  0.42274  0.34598  1.0000
  C   C1001     1.0  0.59684  0.29771  0.42662  1.0000
  H   H1754     1.0  0.62312  0.27753  0.40724  1.0000
  C   C1002     1.0  0.91916  0.30259  0.33951  1.0000
  H   H1755     1.0  0.64000  0.31540  0.45852  1.0000
  H   H1756     1.0  0.93258  0.16937  0.42943  1.0000
  S   S240      1.0  0.99130  0.12578  0.35144  1.0000
  H   H1757     1.0  0.59706  0.46746  0.32921  1.0000
  C   C1003     1.0  0.95543  0.18793  0.36529  1.0000
  H   H1758     1.0  0.94221  0.03143  0.30099  1.0000
  N   N56       1.0  0.84692  0.15672  0.27239  1.0000
  C   C1004     1.0  0.60414  0.27886  0.40897  1.0000
  H   H1759     1.0  0.93282  0.31597  0.33937  1.0000
  H   H1760     1.0  0.72671  0.42906  0.34115  1.0000
  H   H1761     1.0  0.99387  0.25696  0.47570  1.0000
  H   H1762     1.0  0.95917  0.02220  0.33536  1.0000
  H   H1763     1.0  0.70139  0.31845  0.28353  1.0000
  C   C1005     1.0  0.94037  0.01371  0.29391  1.0000
  H   H1764     1.0  0.83028  0.08917  0.29169  1.0000
  H   H1765     1.0  0.83051  0.36363  0.49016  1.0000
  C   C1006     1.0  0.63484  0.49566  0.37845  1.0000
  C   C1007     1.0  0.79633  0.33826  0.47378  1.0000
  H   H1766     1.0  0.95008  0.13730  0.41488  1.0000
  H   H1767     1.0  0.00274  0.27590  0.49893  1.0000
  H   H1768     1.0  0.85537  0.00655  0.33525  1.0000
  H   H1769     1.0  0.79860  0.28971  0.47294  1.0000
  H   H1770     1.0  0.54040  0.49268  0.34632  1.0000
  H   H1771     1.0  0.91472  0.18249  0.46598  1.0000
  H   H1772     1.0  0.57769  0.29833  0.42607  1.0000
  H   H1773     1.0  0.57362  0.36198  0.37227  1.0000
  C   C1008     1.0  0.83043  0.16720  0.25515  1.0000
  H   H1774     1.0  0.91815  0.29506  0.32203  1.0000
  H   H1775     1.0  0.81695  0.18724  0.33187  1.0000
  H   H1776     1.0  0.63877  0.31311  0.40505  1.0000
  C   C1009     1.0  0.84087  0.16621  0.29587  1.0000
  H   H1777     1.0  0.97049  0.12506  0.45371  1.0000
  H   H1778     1.0  0.76017  0.35410  0.36277  1.0000
  H   H1779     1.0  0.96653  0.20342  0.36494  1.0000
  C   C1010     1.0  0.85600  0.11642  0.29010  1.0000
  C   C1011     1.0  0.81627  0.16099  0.30481  1.0000
  C   C1012     1.0  0.61910  0.37643  0.49800  1.0000
  C   C1013     1.0  0.88931  0.16601  0.28512  1.0000
  C   C1014     1.0  0.91324  0.17099  0.27537  1.0000
  H   H1780     1.0  0.78195  0.40684  0.49296  1.0000
  C   C1015     1.0  0.81363  0.16849  0.32996  1.0000
  H   H1781     1.0  0.97530  0.12823  0.40084  1.0000
  H   H1782     1.0  0.84302  0.18529  0.29604  1.0000
  H   H1783     1.0  0.85301  0.15972  0.30913  1.0000
  C   C1016     1.0  0.88434  0.01016  0.39512  1.0000
  H   H1784     1.0  0.60485  0.32924  0.45907  1.0000
  H   H1785     1.0  0.78784  0.30033  0.44569  1.0000
  C   C1017     1.0  0.72706  0.34477  0.31475  1.0000
  C   C1018     1.0  0.78350  0.29753  0.46408  1.0000
  H   H1786     1.0  0.55584  0.45313  0.34463  1.0000
  H   H1787     1.0  0.85113  0.12226  0.30764  1.0000
  H   H1788     1.0  0.87496  0.11708  0.28824  1.0000
  C   C1019     1.0  0.56865  0.35868  0.46452  1.0000
  C   C1020     1.0  0.87108  0.16396  0.26569  1.0000
  C   C1021     1.0  0.74757  0.40837  0.47980  1.0000
  H   H1789     1.0  0.84285  0.02917  0.29372  1.0000
  H   H1790     1.0  0.88481  0.18060  0.29676  1.0000
  H   H1791     1.0  0.89045  0.15014  0.29551  1.0000
  H   H1792     1.0  0.72072  0.36011  0.37197  1.0000
  C   C1022     1.0  0.98302  0.34700  0.37413  1.0000
  H   H1793     1.0  0.53882  0.44402  0.27996  1.0000
  H   H1794     1.0  0.87076  0.18130  0.25748  1.0000
  H   H1795     1.0  0.69880  0.35984  0.35125  1.0000
  H   H1796     1.0  0.88225  0.35873  0.50177  1.0000
  C   C1023     1.0  0.94612  0.01230  0.34525  1.0000
  H   H1797     1.0  0.79583  0.16493  0.33597  1.0000
  H   H1798     1.0  0.82589  0.15883  0.34111  1.0000
  N   N57       1.0  0.57034  0.49330  0.32383  1.0000
  H   H1799     1.0  0.81444  0.34915  0.32866  1.0000
  H   H1800     1.0  0.56526  0.43261  0.26840  1.0000
  H   H1801     1.0  0.84009  0.41306  0.47208  1.0000
  H   H1802     1.0  0.76895  0.28524  0.46497  1.0000
  H   H1803     1.0  0.73189  0.39757  0.47818  1.0000
  C   C1024     1.0  0.55808  0.48031  0.30485  1.0000
  C   C1025     1.0  0.57008  0.45836  0.29510  1.0000
  H   H1804     1.0  0.98682  0.18975  0.40106  1.0000
  C   C1026     1.0  0.96675  0.03058  0.37941  1.0000
  H   H1805     1.0  0.93785  0.19274  0.35936  1.0000
  H   H1806     1.0  0.90857  0.11770  0.25891  1.0000
  H   H1807     1.0  0.70723  0.31593  0.34539  1.0000
  H   H1808     1.0  0.97760  0.16836  0.45752  1.0000
  H   H1809     1.0  0.92575  0.17264  0.28975  1.0000
  H   H1810     1.0  0.55591  0.46113  0.26038  1.0000
  H   H1811     1.0  0.63947  0.33859  0.42166  1.0000
  H   H1812     1.0  0.54084  0.47443  0.31089  1.0000
  H   H1813     1.0  0.57084  0.44466  0.30836  1.0000
  H   H1814     1.0  0.72758  0.31814  0.36866  1.0000
  C   C1027     1.0  0.59530  0.25522  0.41622  1.0000
  H   H1815     1.0  0.73862  0.35066  0.30068  1.0000
  H   H1816     1.0  0.73241  0.39586  0.36807  1.0000
  H   H1817     1.0  0.97152  0.19130  0.43847  1.0000
  C   C1028     1.0  0.77670  0.32023  0.47568  1.0000
  C   C1029     1.0  0.58555  0.44145  0.36357  1.0000
  H   H1818     1.0  0.94278  0.18615  0.47874  1.0000
  H   H1819     1.0  0.57857  0.32828  0.39886  1.0000
  H   H1820     1.0  0.67675  0.32757  0.43896  1.0000
  H   H1821     1.0  0.59216  0.43058  0.34920  1.0000
  H   H1822     1.0  0.58789  0.46167  0.28935  1.0000
  C   C1030     1.0  0.94282  0.16852  0.44541  1.0000
  H   H1823     1.0  0.67592  0.32970  0.37168  1.0000
  H   H1824     1.0  0.96250  0.17476  0.35320  1.0000
  H   H1825     1.0  0.75615  0.42537  0.33132  1.0000
  C   C1031     1.0  0.84895  0.09115  0.28801  1.0000
  H   H1826     1.0  0.93099  0.02413  0.34723  1.0000
  H   H1827     1.0  0.99378  0.28384  0.30219  1.0000
  C   C1032     1.0  0.81915  0.38393  0.46095  1.0000
  H   H1828     1.0  0.67929  0.30089  0.45448  1.0000
  C   C1033     1.0  0.84132  0.39802  0.46025  1.0000
  H   H1829     1.0  0.76093  0.32669  0.46695  1.0000
  C   C1034     1.0  0.84426  0.13088  0.27108  1.0000
  H   H1830     1.0  0.79738  0.34262  0.45522  1.0000
  H   H1831     1.0  0.77264  0.37479  0.46158  1.0000
  H   H1832     1.0  0.68002  0.34017  0.27715  1.0000
  H   H1833     1.0  0.82101  0.37002  0.44806  1.0000
  H   H1834     1.0  0.80477  0.39545  0.45570  1.0000
  H   H1835     1.0  0.87331  0.02379  0.29825  1.0000
  H   H1836     1.0  0.57619  0.25538  0.41755  1.0000
  C   C1035     1.0  0.58435  0.47775  0.33924  1.0000
  H   H1837     1.0  0.85637  0.38719  0.46527  1.0000
  S   S241      1.0  0.58957  0.38919  0.25675  1.0000
  H   H1838     1.0  0.99140  0.11123  0.43528  1.0000
  H   H1839     1.0  0.61750  0.34826  0.26804  1.0000
  C   C1036     1.0  0.57032  0.46087  0.35437  1.0000
  H   H1840     1.0  0.55433  0.49201  0.29014  1.0000
  H   H1841     1.0  0.94560  0.19129  0.40071  1.0000
  H   H1842     1.0  0.60458  0.31972  0.38541  1.0000
  H   H1843     1.0  0.77878  0.37242  0.32645  1.0000
  C   C1037     1.0  0.71182  0.32588  0.36103  1.0000
  C   C1038     1.0  0.69815  0.33731  0.28267  1.0000
  H   H1844     1.0  0.91058  0.02261  0.27303  1.0000
  C   C1039     1.0  0.93307  0.18640  0.46225  1.0000
  H   H1845     1.0  0.84424  0.40441  0.44249  1.0000
  H   H1846     1.0  0.81245  0.14232  0.30385  1.0000
  C   C1040     1.0  0.92820  0.01552  0.27067  1.0000
  H   H1847     1.0  0.89287  0.32774  0.33061  1.0000
  C   C1041     1.0  0.81502  0.37401  0.48532  1.0000
  H   H1848     1.0  0.60472  0.38826  0.49979  1.0000
  C   C1042     1.0  0.77212  0.37212  0.48056  1.0000
  H   H1849     1.0  0.59497  0.48830  0.35115  1.0000
  C   C1043     1.0  0.89629  0.31483  0.34428  1.0000
  H   H1850     1.0  0.68936  0.34069  0.31826  1.0000
  H   H1851     1.0  0.95385  0.04475  0.37999  1.0000
  C   C1044     1.0  0.55664  0.44856  0.27471  1.0000
  H   H1852     1.0  0.98840  0.16344  0.38533  1.0000
  C   C1045     1.0  0.97333  0.11764  0.43629  1.0000
  C   C1046     1.0  0.70192  0.34850  0.30623  1.0000
  C   C1047     1.0  0.69238  0.32262  0.37843  1.0000
  C   C1048     1.0  0.61697  0.49238  0.39428  1.0000
  C   C1049     1.0  0.96887  0.17247  0.44092  1.0000
  C   C1050     1.0  0.99560  0.27523  0.48119  1.0000
  C   C1051     1.0  0.95761  0.09680  0.43322  1.0000
  N   N58       1.0  0.79358  0.35969  0.48846  1.0000
  C   C1052     1.0  0.63263  0.32073  0.42160  1.0000
  N   N59       1.0  0.60663  0.32136  0.42258  1.0000
  C   C1053     1.0  0.59950  0.33682  0.44232  1.0000
  H   H1853     1.0  0.64034  0.28936  0.44185  1.0000
  H   H1854     1.0  0.60034  0.44873  0.37323  1.0000
  C   C1054     1.0  0.95414  0.17813  0.38964  1.0000
  C   C1055     1.0  0.60365  0.35560  0.39406  1.0000
  C   C1056     1.0  0.57335  0.34216  0.44446  1.0000
  H   H1855     1.0  0.75666  0.36128  0.48342  1.0000
  H   H1856     1.0  0.69660  0.33122  0.39496  1.0000
  C   C1057     1.0  0.59271  0.36277  0.37120  1.0000
  H   H1857     1.0  0.74352  0.38633  0.31689  1.0000
  H   H1858     1.0  0.60873  0.35348  0.44142  1.0000
  H   H1859     1.0  0.94007  0.15125  0.45305  1.0000
  C   C1058     1.0  0.98506  0.26544  0.33376  1.0000
  H   H1860     1.0  0.96156  0.08375  0.44660  1.0000
  H   H1861     1.0  0.62257  0.35762  0.39235  1.0000
  H   H1862     1.0  0.59737  0.36778  0.40745  1.0000
  H   H1863     1.0  0.56652  0.35040  0.42866  1.0000
  H   H1864     1.0  0.56347  0.32621  0.44776  1.0000
  H   H1865     1.0  0.88187  0.30233  0.34450  1.0000
  H   H1866     1.0  0.98084  0.24946  0.32416  1.0000
  H   H1867     1.0  0.98776  0.29928  0.40739  1.0000
  N   N60       1.0  0.97976  0.15916  0.42122  1.0000
  H   H1868     1.0  0.61913  0.49289  0.31345  1.0000
  H   H1869     1.0  0.59881  0.35142  0.35696  1.0000
  H   H1870     1.0  0.59767  0.38072  0.36701  1.0000
  H   H1871     1.0  0.76124  0.39218  0.35751  1.0000
  H   H1872     1.0  0.91913  0.15675  0.26395  1.0000
  H   H1873     1.0  0.94319  0.16265  0.38867  1.0000
  H   H1874     1.0  0.56308  0.47027  0.36948  1.0000
  H   H1875     1.0  0.80314  0.17055  0.29468  1.0000
  C   C1059     1.0  0.85927  0.00816  0.26700  1.0000
  H   H1876     1.0  0.74303  0.42437  0.48935  1.0000
  H   H1877     1.0  0.86411  0.04386  0.27666  1.0000
  H   H1878     1.0  0.60279  0.25015  0.43308  1.0000
  C   C1060     1.0  0.71567  0.35176  0.35554  1.0000
  H   H1879     1.0  0.81293  0.32946  0.47786  1.0000
  H   H1880     1.0  0.87629  0.00746  0.25842  1.0000
  H   H1881     1.0  0.79935  0.32652  0.34348  1.0000
  H   H1882     1.0  0.69768  0.36707  0.30459  1.0000
  H   H1883     1.0  0.75628  0.32875  0.34646  1.0000
  C   C1061     1.0  0.65602  0.34580  0.49348  1.0000
  H   H1884     1.0  0.97814  0.28321  0.48142  1.0000
  H   H1885     1.0  0.91311  0.18734  0.26550  1.0000
  H   H1886     1.0  0.91077  0.00857  0.31603  1.0000
  C   C1062     1.0  0.95603  0.00851  0.36985  1.0000
  H   H1887     1.0  0.97301  0.02756  0.39722  1.0000
  H   H1888     1.0  0.85265  0.08449  0.27042  1.0000
  H   H1889     1.0  0.54984  0.36192  0.46609  1.0000
  H   H1890     1.0  0.57732  0.37544  0.46157  1.0000
  C   C1063     1.0  0.85987  0.02732  0.28511  1.0000
  C   C1064     1.0  0.99306  0.32736  0.38384  1.0000
  H   H1891     1.0  0.67037  0.33395  0.49166  1.0000
  H   H1892     1.0  0.57496  0.35124  0.48098  1.0000
  C   C1065     1.0  0.76674  0.39542  0.49246  1.0000
  H   H1893     1.0  0.95778  0.00659  0.29052  1.0000
  H   H1894     1.0  0.99445  0.26086  0.34972  1.0000
  H   H1895     1.0  0.98156  0.03602  0.36863  1.0000
  H   H1896     1.0  0.99268  0.35716  0.36192  1.0000
  C   C1066     1.0  0.86358  0.00743  0.35193  1.0000
  H   H1897     1.0  0.99702  0.08885  0.38555  1.0000
  H   H1898     1.0  0.65441  0.42124  0.49327  1.0000
  H   H1899     1.0  0.68477  0.42667  0.49034  1.0000
  H   H1900     1.0  0.93784  0.02742  0.25927  1.0000
  C   C1067     1.0  0.00175  0.27936  0.31899  1.0000
  H   H1901     1.0  0.85122  0.12414  0.25450  1.0000
  H   H1902     1.0  0.83054  0.18636  0.25667  1.0000
  H   H1903     1.0  0.81241  0.16184  0.25875  1.0000
  H   H1904     1.0  0.00279  0.28751  0.44732  1.0000
  C   C1068     1.0  0.67066  0.42401  0.50299  1.0000
  C   C1069     1.0  0.90003  0.08219  0.25349  1.0000
  H   H1905     1.0  0.84630  0.01313  0.25384  1.0000
  H   H1906     1.0  0.94208  0.00327  0.38183  1.0000
  Fe  Fe121     1.0  0.58748  0.10063  0.72109  1.0000
  S   S242      1.0  0.61789  0.10066  0.69709  1.0000
  H   H1907     1.0  0.52796  0.17908  0.67055  1.0000
  Fe  Fe122     1.0  0.55362  0.11673  0.68264  1.0000
  S   S243      1.0  0.58162  0.11737  0.65583  1.0000
  H   H1908     1.0  0.52080  0.06420  0.71253  1.0000
  Fe  Fe123     1.0  0.59410  0.08371  0.67162  1.0000
  S   S244      1.0  0.59935  0.04918  0.65316  1.0000
  Fe  Fe124     1.0  0.60297  0.13424  0.68349  1.0000
  S   S245      1.0  0.62318  0.16773  0.68137  1.0000
  S   S246      1.0  0.56430  0.08216  0.69627  1.0000
  S   S247      1.0  0.57444  0.13512  0.70961  1.0000
  Fe  Fe125     1.0  0.59285  0.33200  0.60527  1.0000
  S   S248      1.0  0.59847  0.30428  0.57866  1.0000
  S   S249      1.0  0.55823  0.35067  0.60815  1.0000
  Fe  Fe126     1.0  0.64303  0.32994  0.62086  1.0000
  S   S250      1.0  0.65199  0.30121  0.59633  1.0000
  S   S251      1.0  0.66780  0.34951  0.64417  1.0000
  Fe  Fe127     1.0  0.63188  0.32182  0.57028  1.0000
  S   S252      1.0  0.64981  0.32551  0.53549  1.0000
  Fe  Fe128     1.0  0.61796  0.28566  0.60669  1.0000
  S   S253      1.0  0.60858  0.24745  0.60714  1.0000
  S   S254      1.0  0.62469  0.35125  0.59431  1.0000
  S   S255      1.0  0.61049  0.31273  0.63374  1.0000
  Fe  Fe129     1.0  0.80103  0.38944  0.62657  1.0000
  S   S256      1.0  0.83249  0.36697  0.63056  1.0000
  S   S257      1.0  0.77046  0.37000  0.61126  1.0000
  Fe  Fe130     1.0  0.82891  0.43307  0.63948  1.0000
  S   S258      1.0  0.86189  0.41324  0.64391  1.0000
  S   S259      1.0  0.82601  0.47123  0.64840  1.0000
  Fe  Fe131     1.0  0.85102  0.39469  0.61131  1.0000
  S   S260      1.0  0.87457  0.39004  0.58033  1.0000
  Fe  Fe132     1.0  0.84000  0.38754  0.66271  1.0000
  S   S261      1.0  0.84352  0.37150  0.69834  1.0000
  S   S262      1.0  0.81938  0.41638  0.60574  1.0000
  S   S263      1.0  0.80725  0.40824  0.65984  1.0000
  C   C1070     1.0  0.86009  0.33761  0.52246  1.0000
  C   C1071     1.0  0.84997  0.33498  0.54429  1.0000
  C   C1072     1.0  0.85387  0.35116  0.56198  1.0000
  C   C1073     1.0  0.86831  0.36996  0.55813  1.0000
  C   C1074     1.0  0.87856  0.37253  0.53632  1.0000
  C   C1075     1.0  0.87431  0.35655  0.51847  1.0000
  H   H1909     1.0  0.83903  0.32032  0.54755  1.0000
  H   H1910     1.0  0.84603  0.34888  0.57871  1.0000
  H   H1911     1.0  0.88987  0.38694  0.53325  1.0000
  H   H1912     1.0  0.84742  0.35500  0.74455  1.0000
  C   C1076     1.0  0.88826  0.38154  0.71240  1.0000
  C   C1077     1.0  0.86691  0.37203  0.71803  1.0000
  C   C1078     1.0  0.86381  0.36253  0.74005  1.0000
  H   H1913     1.0  0.89098  0.38860  0.69541  1.0000
  H   H1914     1.0  0.79221  0.38644  0.53053  1.0000
  C   C1079     1.0  0.63150  0.03533  0.74854  1.0000
  H   H1915     1.0  0.65445  0.06702  0.72130  1.0000
  C   C1080     1.0  0.51669  0.41504  0.67569  1.0000
  H   H1916     1.0  0.54903  0.18020  0.71458  1.0000
  H   H1917     1.0  0.87257  0.46670  0.62969  1.0000
  C   C1081     1.0  0.69637  0.35520  0.63503  1.0000
  C   C1082     1.0  0.70931  0.37232  0.64626  1.0000
  C   C1083     1.0  0.73210  0.37714  0.63933  1.0000
  C   C1084     1.0  0.74223  0.36453  0.62139  1.0000
  C   C1085     1.0  0.72936  0.34730  0.61036  1.0000
  C   C1086     1.0  0.70650  0.34278  0.61697  1.0000
  H   H1918     1.0  0.70161  0.38200  0.66026  1.0000
  H   H1919     1.0  0.74175  0.39061  0.64781  1.0000
  H   H1920     1.0  0.73717  0.33725  0.59669  1.0000
  H   H1921     1.0  0.69683  0.32941  0.60834  1.0000
  H   H1922     1.0  0.86819  0.44806  0.67854  1.0000
  C   C1087     1.0  0.51577  0.35763  0.62785  1.0000
  C   C1088     1.0  0.53712  0.34621  0.62972  1.0000
  C   C1089     1.0  0.54148  0.33269  0.64914  1.0000
  C   C1090     1.0  0.52508  0.33162  0.66701  1.0000
  C   C1091     1.0  0.54811  0.23029  0.64996  1.0000
  H   H1923     1.0  0.71251  0.40798  0.51895  1.0000
  H   H1924     1.0  0.55782  0.32376  0.65075  1.0000
  N   N61       1.0  0.85445  0.45446  0.72725  1.0000
  C   C1092     1.0  0.69830  0.01008  0.71662  1.0000
  H   H1925     1.0  0.68127  0.00771  0.57524  1.0000
  C   C1093     1.0  0.51764  0.10525  0.74377  1.0000
  S   S264      1.0  0.51748  0.13231  0.67966  1.0000
  H   H1926     1.0  0.55999  0.15387  0.60990  1.0000
  H   H1927     1.0  0.87743  0.49912  0.71651  1.0000
  C   C1094     1.0  0.62228  0.02926  0.65751  1.0000
  C   C1095     1.0  0.67598  0.02357  0.72096  1.0000
  C   C1096     1.0  0.64490  0.03649  0.66142  1.0000
  H   H1928     1.0  0.67490  0.10329  0.71220  1.0000
  H   H1929     1.0  0.64852  0.05469  0.66307  1.0000
  C   C1097     1.0  0.61820  0.18999  0.66100  1.0000
  C   C1098     1.0  0.60748  0.18563  0.63989  1.0000
  C   C1099     1.0  0.60503  0.20342  0.62358  1.0000
  C   C1100     1.0  0.61275  0.22585  0.62833  1.0000
  C   C1101     1.0  0.62315  0.23035  0.64959  1.0000
  C   C1102     1.0  0.62605  0.21243  0.66574  1.0000
  H   H1930     1.0  0.60167  0.16841  0.63588  1.0000
  H   H1931     1.0  0.59720  0.19973  0.60708  1.0000
  H   H1932     1.0  0.62925  0.24751  0.65346  1.0000
  H   H1933     1.0  0.63453  0.21594  0.68195  1.0000
  C   C1103     1.0  0.57586  0.38363  0.67358  1.0000
  C   C1104     1.0  0.58985  0.39710  0.65535  1.0000
  C   C1105     1.0  0.55774  0.36154  0.71380  1.0000
  H   H1934     1.0  0.81162  0.47769  0.73103  1.0000
  C   C1106     1.0  0.60987  0.38247  0.64624  1.0000
  H   H1935     1.0  0.56868  0.36820  0.66473  1.0000
  H   H1936     1.0  0.58849  0.37666  0.68610  1.0000
  H   H1937     1.0  0.61918  0.39198  0.63257  1.0000
  H   H1938     1.0  0.57886  0.40156  0.64034  1.0000
  H   H1939     1.0  0.59722  0.41308  0.66271  1.0000
  H   H1940     1.0  0.56283  0.34827  0.70087  1.0000
  H   H1941     1.0  0.71724  0.36730  0.51971  1.0000
  C   C1107     1.0  0.62411  0.36081  0.51585  1.0000
  H   H1942     1.0  0.66852  0.43973  0.51375  1.0000
  C   C1108     1.0  0.52958  0.17192  0.62299  1.0000
  H   H1943     1.0  0.62228  0.37835  0.66022  1.0000
  N   N62       1.0  0.79877  0.31622  0.67205  1.0000
  C   C1109     1.0  0.82455  0.31413  0.67539  1.0000
  C   C1110     1.0  0.79288  0.31912  0.64675  1.0000
  C   C1111     1.0  0.79093  0.33780  0.68453  1.0000
  C   C1112     1.0  0.78605  0.29606  0.68214  1.0000
  C   C1113     1.0  0.79306  0.27195  0.67301  1.0000
  C   C1114     1.0  0.83307  0.31017  0.70044  1.0000
  C   C1115     1.0  0.76489  0.34385  0.68252  1.0000
  C   C1116     1.0  0.80883  0.30711  0.62878  1.0000
  C   C1117     1.0  0.79926  0.30966  0.60439  1.0000
  C   C1118     1.0  0.78135  0.25296  0.68685  1.0000
  C   C1119     1.0  0.85934  0.30804  0.70126  1.0000
  C   C1120     1.0  0.75970  0.36747  0.69309  1.0000
  H   H1944     1.0  0.83315  0.32991  0.66875  1.0000
  H   H1945     1.0  0.83187  0.29972  0.66512  1.0000
  H   H1946     1.0  0.77485  0.31355  0.64330  1.0000
  H   H1947     1.0  0.79311  0.33767  0.64193  1.0000
  H   H1948     1.0  0.80091  0.35292  0.67825  1.0000
  H   H1949     1.0  0.79447  0.33667  0.70327  1.0000
  H   H1950     1.0  0.78755  0.29616  0.70126  1.0000
  H   H1951     1.0  0.76725  0.29766  0.67867  1.0000
  H   H1952     1.0  0.81191  0.26897  0.67410  1.0000
  H   H1953     1.0  0.78737  0.26997  0.65488  1.0000
  H   H1954     1.0  0.82827  0.32467  0.71195  1.0000
  H   H1955     1.0  0.82587  0.29406  0.70763  1.0000
  H   H1956     1.0  0.75432  0.33109  0.69193  1.0000
  H   H1957     1.0  0.75911  0.34419  0.66435  1.0000
  H   H1958     1.0  0.82614  0.31520  0.62890  1.0000
  H   H1959     1.0  0.81109  0.28853  0.63230  1.0000
  H   H1960     1.0  0.78194  0.30173  0.60302  1.0000
  H   H1961     1.0  0.79800  0.32816  0.59972  1.0000
  H   H1962     1.0  0.81101  0.30103  0.59191  1.0000
  H   H1963     1.0  0.78626  0.23584  0.67969  1.0000
  H   H1964     1.0  0.78684  0.25365  0.70518  1.0000
  H   H1965     1.0  0.76229  0.25475  0.68591  1.0000
  H   H1966     1.0  0.60661  0.43339  0.73893  1.0000
  H   H1967     1.0  0.52967  0.24854  0.62189  1.0000
  H   H1968     1.0  0.86750  0.32383  0.69430  1.0000
  H   H1969     1.0  0.74090  0.37108  0.69207  1.0000
  H   H1970     1.0  0.76500  0.36798  0.71147  1.0000
  H   H1971     1.0  0.76891  0.38115  0.68353  1.0000
  H   H1972     1.0  0.51951  0.43045  0.68664  1.0000
  C   C1121     1.0  0.60036  0.02192  0.72067  1.0000
  H   H1973     1.0  0.69902  0.00440  0.69837  1.0000
  H   H1974     1.0  0.53209  0.30634  0.59344  1.0000
  H   H1975     1.0  0.84257  0.42013  0.73582  1.0000
  H   H1976     1.0  0.67582  0.03847  0.70909  1.0000
  H   H1977     1.0  0.71355  0.02106  0.72002  1.0000
  H   H1978     1.0  0.86507  0.30594  0.71939  1.0000
  C   C1122     1.0  0.62869  0.02345  0.58130  1.0000
  H   H1979     1.0  0.66073  0.40053  0.52959  1.0000
  H   H1980     1.0  0.53960  0.20531  0.61184  1.0000
  H   H1981     1.0  0.79828  0.48175  0.69093  1.0000
  H   H1982     1.0  0.59924  0.40418  0.70911  1.0000
  C   C1123     1.0  0.67571  0.40300  0.51801  1.0000
  C   C1124     1.0  0.67436  0.03130  0.74638  1.0000
  H   H1983     1.0  0.68057  0.02608  0.66427  1.0000
  H   H1984     1.0  0.51017  0.43622  0.64534  1.0000
  H   H1985     1.0  0.73224  0.34689  0.55647  1.0000
  H   H1986     1.0  0.80426  0.44751  0.73075  1.0000
  C   C1125     1.0  0.85037  0.48950  0.64896  1.0000
  H   H1987     1.0  0.60150  0.44682  0.71147  1.0000
  H   H1988     1.0  0.69102  0.03944  0.75113  1.0000
  H   H1989     1.0  0.66973  0.37858  0.55921  1.0000
  H   H1990     1.0  0.53831  0.36177  0.74600  1.0000
  H   H1991     1.0  0.80173  0.33604  0.51624  1.0000
  C   C1126     1.0  0.53996  0.40466  0.66710  1.0000
  H   H1992     1.0  0.69116  0.37042  0.57896  1.0000
  H   H1993     1.0  0.55041  0.21898  0.69655  1.0000
  H   H1994     1.0  0.56047  0.19150  0.62945  1.0000
  C   C1127     1.0  0.68627  0.38446  0.56693  1.0000
  H   H1995     1.0  0.60900  0.03982  0.55376  1.0000
  N   N63       1.0  0.70451  0.38729  0.54864  1.0000
  C   C1128     1.0  0.52258  0.13087  0.74717  1.0000
  H   H1996     1.0  0.79222  0.45124  0.68937  1.0000
  H   H1997     1.0  0.57177  0.43078  0.68534  1.0000
  C   C1129     1.0  0.67514  0.10719  0.73095  1.0000
  H   H1998     1.0  0.51364  0.33029  0.58543  1.0000
  H   H1999     1.0  0.54576  0.27928  0.64644  1.0000
  C   C1130     1.0  0.53328  0.19108  0.71336  1.0000
  H   H2000     1.0  0.86532  0.29286  0.69115  1.0000
  H   H2001     1.0  0.57921  0.44704  0.73336  1.0000
  H   H2002     1.0  0.50519  0.23209  0.65561  1.0000
  H   H2003     1.0  0.77505  0.35954  0.55892  1.0000
  H   H2004     1.0  0.51178  0.17513  0.61671  1.0000
  H   H2005     1.0  0.95567  0.48331  0.61790  1.0000
  H   H2006     1.0  0.52889  0.32172  0.68231  1.0000
  H   H2007     1.0  0.65840  0.41676  0.60977  1.0000
  H   H2008     1.0  0.55677  0.18822  0.66976  1.0000
  C   C1131     1.0  0.66081  0.40173  0.59812  1.0000
  H   H2009     1.0  0.98160  0.13329  0.71500  1.0000
  C   C1132     1.0  0.79398  0.36017  0.55632  1.0000
  H   H2010     1.0  0.64488  0.39954  0.58775  1.0000
  H   H2011     1.0  0.72424  0.30780  0.54238  1.0000
  C   C1133     1.0  0.90487  0.44892  0.68215  1.0000
  H   H2012     1.0  0.53132  0.09796  0.73253  1.0000
  H   H2013     1.0  0.63963  0.07995  0.74459  1.0000
  C   C1134     1.0  0.71803  0.32290  0.53241  1.0000
  H   H2014     1.0  0.55100  0.42670  0.70705  1.0000
  C   C1135     1.0  0.79334  0.46637  0.70109  1.0000
  H   H2015     1.0  0.52986  0.37191  0.69269  1.0000
  H   H2016     1.0  0.91831  0.45701  0.69307  1.0000
  C   C1136     1.0  0.53863  0.19479  0.67002  1.0000
  H   H2017     1.0  0.69421  0.01312  0.61637  1.0000
  H   H2018     1.0  0.52730  0.34228  0.72426  1.0000
  C   C1137     1.0  0.54220  0.15829  0.60422  1.0000
  H   H2019     1.0  0.61365  0.36066  0.53129  1.0000
  H   H2020     1.0  0.53131  0.20088  0.72972  1.0000
  H   H2021     1.0  0.70122  0.31836  0.52447  1.0000
  C   C1138     1.0  0.88082  0.45572  0.69062  1.0000
  H   H2022     1.0  0.76217  0.43781  0.57838  1.0000
  H   H2023     1.0  0.95254  0.47667  0.64797  1.0000
  C   C1139     1.0  0.69837  0.40615  0.53179  1.0000
  C   C1140     1.0  0.79982  0.36904  0.53231  1.0000
  H   H2024     1.0  0.68884  0.35992  0.52865  1.0000
  H   H2025     1.0  0.51223  0.36809  0.61286  1.0000
  H   H2026     1.0  0.53575  0.39003  0.65544  1.0000
  C   C1141     1.0  0.54383  0.38112  0.70191  1.0000
  H   H2027     1.0  0.83326  0.43891  0.70090  1.0000
  H   H2028     1.0  0.61361  0.05616  0.72255  1.0000
  C   C1142     1.0  0.61797  0.00555  0.65508  1.0000
  H   H2029     1.0  0.52250  0.13994  0.73038  1.0000
  H   H2030     1.0  0.69038  0.11806  0.73470  1.0000
  C   C1143     1.0  0.59338  0.43672  0.72550  1.0000
  H   H2031     1.0  0.87914  0.47459  0.68931  1.0000
  C   C1144     1.0  0.54320  0.34951  0.73208  1.0000
  C   C1145     1.0  0.64256  0.34538  0.51361  1.0000
  H   H2032     1.0  0.63910  0.04801  0.55492  1.0000
  C   C1146     1.0  0.56537  0.41784  0.69788  1.0000
  H   H2033     1.0  0.54796  0.41796  0.65596  1.0000
  H   H2034     1.0  0.57471  0.26854  0.64139  1.0000
  H   H2035     1.0  0.75247  0.41429  0.59585  1.0000
  C   C1147     1.0  0.65527  0.06957  0.74021  1.0000
  H   H2036     1.0  0.98005  0.47222  0.63407  1.0000
  C   C1148     1.0  0.75636  0.41962  0.57792  1.0000
  C   C1149     1.0  0.73482  0.41752  0.56295  1.0000
  N   N64       1.0  0.55666  0.39674  0.68550  1.0000
  C   C1150     1.0  0.68152  0.40570  0.58242  1.0000
  H   H2037     1.0  0.69660  0.40885  0.59374  1.0000
  H   H2038     1.0  0.55822  0.28038  0.61799  1.0000
  C   C1151     1.0  0.55709  0.27004  0.63401  1.0000
  C   C1152     1.0  0.50858  0.21555  0.64641  1.0000
  H   H2039     1.0  0.80132  0.34267  0.55895  1.0000
  H   H2040     1.0  0.57361  0.36789  0.72216  1.0000
  H   H2041     1.0  0.66358  0.38619  0.60888  1.0000
  H   H2042     1.0  0.72102  0.42788  0.57119  1.0000
  H   H2043     1.0  0.52900  0.16075  0.63836  1.0000
  H   H2044     1.0  0.71714  0.00598  0.59657  1.0000
  H   H2045     1.0  0.80151  0.37184  0.56950  1.0000
  H   H2046     1.0  0.55822  0.23864  0.61450  1.0000
  H   H2047     1.0  0.52456  0.31091  0.56374  1.0000
  H   H2048     1.0  0.65937  0.11719  0.73551  1.0000
  C   C1153     1.0  0.81090  0.46194  0.72020  1.0000
  H   H2049     1.0  0.67773  0.42133  0.57221  1.0000
  C   C1154     1.0  0.90620  0.38179  0.72880  1.0000
  C   C1155     1.0  0.79143  0.35211  0.51333  1.0000
  H   H2050     1.0  0.72925  0.38304  0.57638  1.0000
  H   H2051     1.0  0.64302  0.02863  0.59282  1.0000
  C   C1156     1.0  0.71522  0.34363  0.54851  1.0000
  H   H2052     1.0  0.56658  0.22579  0.65322  1.0000
  H   H2053     1.0  0.90574  0.49357  0.62987  1.0000
  C   C1157     1.0  0.53527  0.20779  0.69320  1.0000
  H   H2054     1.0  0.57703  0.40435  0.73107  1.0000
  H   H2055     1.0  0.73880  0.42540  0.54600  1.0000
  H   H2056     1.0  0.53287  0.14198  0.60076  1.0000
  H   H2057     1.0  0.77064  0.40876  0.57104  1.0000
  H   H2058     1.0  0.77325  0.34758  0.51737  1.0000
  C   C1158     1.0  0.85793  0.47697  0.73997  1.0000
  N   N65       1.0  0.53368  0.20869  0.64864  1.0000
  H   H2059     1.0  0.58700  0.02475  0.73411  1.0000
  H   H2060     1.0  0.74190  0.38446  0.54867  1.0000
  C   C1159     1.0  0.62050  0.03836  0.72429  1.0000
  C   C1160     1.0  0.58429  0.41383  0.71622  1.0000
  C   C1161     1.0  0.66304  0.02021  0.66205  1.0000
  H   H2061     1.0  0.83860  0.46835  0.69636  1.0000
  C   C1162     1.0  0.72782  0.39192  0.55946  1.0000
  C   C1163     1.0  0.54745  0.24618  0.62848  1.0000
  H   H2062     1.0  0.60331  0.36614  0.63876  1.0000
  H   H2063     1.0  0.54262  0.24115  0.66483  1.0000
  C   C1164     1.0  0.62366  0.04378  0.56538  1.0000
  H   H2064     1.0  0.81885  0.37079  0.53146  1.0000
  H   H2065     1.0  0.61900  0.05917  0.57589  1.0000
  C   C1165     1.0  0.87639  0.44671  0.71535  1.0000
  H   H2066     1.0  0.61302  0.02079  0.59189  1.0000
  H   H2067     1.0  0.90708  0.42988  0.68243  1.0000
  H   H2068     1.0  0.73073  0.32661  0.51861  1.0000
  C   C1166     1.0  0.84818  0.43625  0.74474  1.0000
  H   H2069     1.0  0.60644  0.00374  0.72110  1.0000
  C   C1167     1.0  0.83493  0.45574  0.71012  1.0000
  C   C1168     1.0  0.96458  0.48358  0.63483  1.0000
  H   H2070     1.0  0.89171  0.45083  0.72613  1.0000
  H   H2071     1.0  0.87650  0.42760  0.71338  1.0000
  H   H2072     1.0  0.90723  0.45488  0.66415  1.0000
  C   C1169     1.0  0.70610  0.36499  0.53518  1.0000
  C   C1170     1.0  0.86043  0.49903  0.72520  1.0000
  H   H2073     1.0  0.92267  0.38917  0.72432  1.0000
  H   H2074     1.0  0.70293  0.33859  0.56223  1.0000
  H   H2075     1.0  0.69270  0.07596  0.74022  1.0000
  C   C1171     1.0  0.67648  0.08499  0.74499  1.0000
  H   H2076     1.0  0.69704  0.42315  0.54043  1.0000
  H   H2077     1.0  0.53486  0.39144  0.71546  1.0000
  H   H2078     1.0  0.84656  0.50076  0.71222  1.0000
  H   H2079     1.0  0.54303  0.16835  0.58801  1.0000
  C   C1172     1.0  0.87113  0.48318  0.63837  1.0000
  H   H2080     1.0  0.51963  0.21886  0.69295  1.0000
  H   H2081     1.0  0.64936  0.00638  0.55562  1.0000
  H   H2082     1.0  0.51077  0.09647  0.64437  1.0000
  H   H2083     1.0  0.77606  0.46957  0.70872  1.0000
  C   C1173     1.0  0.54172  0.19513  0.62787  1.0000
  C   C1174     1.0  0.51806  0.31202  0.58170  1.0000
  H   H2084     1.0  0.63287  0.03557  0.71010  1.0000
  C   C1175     1.0  0.50411  0.34382  0.66554  1.0000
  C   C1176     1.0  0.51521  0.04571  0.67138  1.0000
  H   H2085     1.0  0.50838  0.03421  0.65770  1.0000
  H   H2086     1.0  0.59244  0.02521  0.70356  1.0000
  H   H2087     1.0  0.67718  0.38803  0.50624  1.0000
  H   H2088     1.0  0.50924  0.08674  0.69577  1.0000
  H   H2089     1.0  0.52361  0.06065  0.66300  1.0000
  H   H2090     1.0  0.52836  0.03604  0.68141  1.0000
  H   H2091     1.0  0.66154  0.01187  0.71671  1.0000
  C   C1177     1.0  0.90304  0.37244  0.75092  1.0000
  C   C1178     1.0  0.88992  0.49844  0.63854  1.0000
  H   H2092     1.0  0.51802  0.17980  0.71115  1.0000
  H   H2093     1.0  0.76060  0.39232  0.51026  1.0000
  H   H2094     1.0  0.50434  0.21894  0.62802  1.0000
  H   H2095     1.0  0.55325  0.33513  0.73978  1.0000
  H   H2096     1.0  0.97520  0.15579  0.73583  1.0000
  C   C1179     1.0  0.97382  0.13705  0.73211  1.0000
  H   H2097     1.0  0.51016  0.06182  0.75110  1.0000
  H   H2098     1.0  0.87372  0.47615  0.75075  1.0000
  N   N66       1.0  0.65445  0.04689  0.75285  1.0000
  H   H2099     1.0  0.63277  0.01657  0.75235  1.0000
  H   H2100     1.0  0.95525  0.13252  0.73147  1.0000
  C   C1180     1.0  0.98580  0.12300  0.75087  1.0000
  C   C1181     1.0  0.50428  0.07106  0.70552  1.0000
  H   H2101     1.0  0.98297  0.10447  0.74691  1.0000
  H   H2102     1.0  0.50664  0.40233  0.68574  1.0000
  H   H2103     1.0  0.84363  0.47996  0.75244  1.0000
  H   H2104     1.0  0.88159  0.41983  0.75276  1.0000
  Fe  Fe133     1.0  0.67092  0.03484  0.88577  1.0000
  S   S265      1.0  0.63855  0.05642  0.88509  1.0000
  C   C1182     1.0  0.99676  0.41210  0.86804  1.0000
  Fe  Fe134     1.0  0.70041  0.07469  0.90615  1.0000
  S   S266      1.0  0.67000  0.09888  0.90567  1.0000
  S   S267      1.0  0.73110  0.08777  0.92718  1.0000
  Fe  Fe135     1.0  0.64996  0.06947  0.92017  1.0000
  S   S268      1.0  0.62785  0.07268  0.95266  1.0000
  Fe  Fe136     1.0  0.66158  0.08397  0.87075  1.0000
  S   S269      1.0  0.65495  0.10747  0.84000  1.0000
  S   S270      1.0  0.68051  0.04552  0.92183  1.0000
  S   S271      1.0  0.69374  0.06206  0.87001  1.0000
  Fe  Fe137     1.0  0.85695  0.13934  0.92045  1.0000
  S   S272      1.0  0.84847  0.16956  0.94354  1.0000
  S   S273      1.0  0.83079  0.12225  0.89661  1.0000
  Fe  Fe138     1.0  0.90764  0.13774  0.93490  1.0000
  S   S274      1.0  0.90181  0.16695  0.95951  1.0000
  S   S275      1.0  0.94468  0.12409  0.93624  1.0000
  Fe  Fe139     1.0  0.86902  0.14969  0.96991  1.0000
  H   H2105     1.0  0.64650  0.03066  0.98869  1.0000
  Fe  Fe140     1.0  0.88223  0.18438  0.93107  1.0000
  S   S276      1.0  0.89545  0.22140  0.92796  1.0000
  S   S277      1.0  0.87603  0.11888  0.94745  1.0000
  S   S278      1.0  0.88937  0.15559  0.90588  1.0000
  Fe  Fe141     1.0  0.95543  0.34382  0.84869  1.0000
  S   S279      1.0  0.92630  0.34767  0.87394  1.0000
  S   S280      1.0  0.98702  0.32494  0.86315  1.0000
  Fe  Fe142     1.0  0.92446  0.36111  0.80839  1.0000
  S   S281      1.0  0.89343  0.36533  0.83125  1.0000
  S   S282      1.0  0.92603  0.37353  0.77108  1.0000
  Fe  Fe143     1.0  0.91823  0.38139  0.85635  1.0000
  S   S283      1.0  0.91632  0.41526  0.87646  1.0000
  Fe  Fe144     1.0  0.90457  0.33107  0.84670  1.0000
  S   S284      1.0  0.88091  0.30032  0.85266  1.0000
  S   S285      1.0  0.94900  0.37860  0.83294  1.0000
  S   S286      1.0  0.93388  0.32587  0.82188  1.0000
  C   C1183     1.0  0.95354  0.40817  0.93074  1.0000
  H   H2106     1.0  0.83681  0.48802  0.82526  1.0000
  H   H2107     1.0  0.74046  0.05643  0.96694  1.0000
  H   H2108     1.0  0.95217  0.23455  0.90911  1.0000
  H   H2109     1.0  0.93193  0.39486  0.95880  1.0000
  C   C1184     1.0  0.85890  0.47052  0.87550  1.0000
  C   C1185     1.0  0.87893  0.47359  0.88852  1.0000
  C   C1186     1.0  0.89640  0.45662  0.88836  1.0000
  C   C1187     1.0  0.89411  0.43639  0.87517  1.0000
  C   C1188     1.0  0.87432  0.43352  0.86171  1.0000
  C   C1189     1.0  0.85678  0.45048  0.86196  1.0000
  H   H2110     1.0  0.78841  0.19201  0.89902  1.0000
  H   H2111     1.0  0.91161  0.45902  0.89883  1.0000
  H   H2112     1.0  0.87233  0.41803  0.85149  1.0000
  H   H2113     1.0  0.84135  0.44791  0.85184  1.0000
  C   C1190     1.0  0.89186  0.24243  0.90602  1.0000
  C   C1191     1.0  0.90534  0.26251  0.90687  1.0000
  C   C1192     1.0  0.90269  0.28004  0.89030  1.0000
  C   C1193     1.0  0.88620  0.27788  0.87285  1.0000
  C   C1194     1.0  0.87295  0.25765  0.87181  1.0000
  C   C1195     1.0  0.87589  0.23991  0.88816  1.0000
  H   H2114     1.0  0.91769  0.26468  0.92064  1.0000
  H   H2115     1.0  0.91294  0.29550  0.89136  1.0000
  H   H2116     1.0  0.86015  0.25581  0.85840  1.0000
  H   H2117     1.0  0.86540  0.22459  0.88727  1.0000
  C   C1196     1.0  0.96475  0.12524  0.91317  1.0000
  C   C1197     1.0  0.95767  0.12813  0.89035  1.0000
  C   C1198     1.0  0.97410  0.12835  0.87244  1.0000
  H   H2118     1.0  0.67096  0.01598  0.97597  1.0000
  C   C1199     1.0  0.98843  0.12277  0.91786  1.0000
  H   H2119     1.0  0.93951  0.12998  0.88647  1.0000
  H   H2120     1.0  0.92523  0.43126  0.97896  1.0000
  C   C1200     1.0  0.75910  0.09631  0.91847  1.0000
  C   C1201     1.0  0.76767  0.09177  0.89641  1.0000
  C   C1202     1.0  0.78972  0.09966  0.89005  1.0000
  C   C1203     1.0  0.80358  0.11182  0.90577  1.0000
  C   C1204     1.0  0.79517  0.11595  0.92801  1.0000
  C   C1205     1.0  0.77303  0.10827  0.93428  1.0000
  H   H2121     1.0  0.75728  0.08229  0.88419  1.0000
  H   H2122     1.0  0.79611  0.09630  0.87285  1.0000
  H   H2123     1.0  0.80562  0.12531  0.94026  1.0000
  H   H2124     1.0  0.76658  0.11185  0.95139  1.0000
  C   C1206     1.0  0.63501  0.10173  0.81755  1.0000
  C   C1207     1.0  0.63620  0.11458  0.79708  1.0000
  C   C1208     1.0  0.62111  0.11010  0.77858  1.0000
  C   C1209     1.0  0.60459  0.09275  0.78042  1.0000
  C   C1210     1.0  0.60311  0.08018  0.80103  1.0000
  C   C1211     1.0  0.61825  0.08460  0.81949  1.0000
  H   H2125     1.0  0.64897  0.12798  0.79547  1.0000
  C   C1212     1.0  0.71184  0.14682  0.89815  1.0000
  H   H2126     1.0  0.59034  0.06678  0.80266  1.0000
  H   H2127     1.0  0.61698  0.07474  0.83521  1.0000
  C   C1213     1.0  0.63516  0.09265  0.97468  1.0000
  C   C1214     1.0  0.92110  0.06258  0.98019  1.0000
  C   C1215     1.0  0.64339  0.11459  0.96938  1.0000
  C   C1216     1.0  0.97072  0.34381  0.92459  1.0000
  H   H2128     1.0  0.64621  0.11925  0.95159  1.0000
  C   C1217     1.0  0.91692  0.08495  0.99412  1.0000
  H   H2129     1.0  0.75617  0.14406  0.90531  1.0000
  H   H2130     1.0  0.94031  0.32310  0.91693  1.0000
  N   N67       1.0  0.72985  0.15552  0.88156  1.0000
  H   H2131     1.0  0.92118  0.19400  0.89563  1.0000
  H   H2132     1.0  0.88669  0.46366  0.80770  1.0000
  H   H2133     1.0  0.99454  0.42226  0.90349  1.0000
  C   C1218     1.0  0.71955  0.11172  0.83110  1.0000
  H   H2134     1.0  0.69508  0.14426  0.88923  1.0000
  H   H2135     1.0  0.80894  0.17562  0.88221  1.0000
  H   H2136     1.0  0.78014  0.14699  0.87212  1.0000
  H   H2137     1.0  0.94959  0.32201  0.94666  1.0000
  H   H2138     1.0  0.70477  0.05312  0.97816  1.0000
  H   H2139     1.0  0.56255  0.07893  0.97981  1.0000
  C   C1219     1.0  0.95554  0.32273  0.92849  1.0000
  H   H2140     1.0  0.69642  0.13332  0.94110  1.0000
  C   C1220     1.0  0.75155  0.06351  0.98075  1.0000
  H   H2141     1.0  0.87909  0.35543  0.77333  1.0000
  H   H2142     1.0  0.72184  0.16617  0.92949  1.0000
  H   H2143     1.0  0.79751  0.16364  0.90832  1.0000
  C   C1221     1.0  0.98323  0.41395  0.89054  1.0000
  H   H2144     1.0  0.69514  0.21781  0.87032  1.0000
  C   C1222     1.0  0.72715  0.20053  0.88010  1.0000
  H   H2145     1.0  0.92069  0.17299  0.85836  1.0000
  H   H2146     1.0  0.00075  0.42961  0.86160  1.0000
  H   H2147     1.0  0.62511  0.07002  0.00220  1.0000
  H   H2148     1.0  0.87499  0.44439  0.77051  1.0000
  H   H2149     1.0  0.98570  0.34212  0.93634  1.0000
  H   H2150     1.0  0.63009  0.03235  0.79670  1.0000
  C   C1223     1.0  0.65665  0.05193  0.77835  1.0000
  H   H2151     1.0  0.95295  0.36535  0.94821  1.0000
  C   C1224     1.0  0.91532  0.48404  0.82106  1.0000
  H   H2152     1.0  0.86619  0.49303  0.79528  1.0000
  H   H2153     1.0  0.98450  0.08768  0.95800  1.0000
  C   C1225     1.0  0.70496  0.04422  0.99504  1.0000
  H   H2154     1.0  0.83324  0.44201  0.75538  1.0000
  C   C1226     1.0  0.85829  0.41333  0.78065  1.0000
  C   C1227     1.0  0.88175  0.36274  0.75643  1.0000
  H   H2155     1.0  0.91175  0.47675  0.83841  1.0000
  H   H2156     1.0  0.61819  0.04244  0.76054  1.0000
  H   H2157     1.0  0.94283  0.50286  0.78675  1.0000
  H   H2158     1.0  0.71401  0.09101  0.97824  1.0000
  H   H2159     1.0  0.96557  0.30682  0.92464  1.0000
  H   H2160     1.0  0.92879  0.19928  0.84364  1.0000
  C   C1228     1.0  0.93219  0.43154  0.96114  1.0000
  H   H2161     1.0  0.57644  0.10621  0.97454  1.0000
  H   H2162     1.0  0.96181  0.42511  0.92762  1.0000
  H   H2163     1.0  0.89486  0.06963  0.95421  1.0000
  H   H2164     1.0  0.91757  0.43413  0.94901  1.0000
  H   H2165     1.0  0.99512  0.40907  0.94305  1.0000
  C   C1229     1.0  0.92003  0.19212  0.85901  1.0000
  C   C1230     1.0  0.95677  0.19325  0.88275  1.0000
  H   H2166     1.0  0.00294  0.06241  0.80951  1.0000
  C   C1231     1.0  0.99158  0.39070  0.93875  1.0000
  H   H2167     1.0  0.64622  0.06730  0.78308  1.0000
  H   H2168     1.0  0.87714  0.49595  0.83950  1.0000
  C   C1232     1.0  0.77648  0.05747  0.97452  1.0000
  H   H2169     1.0  0.92672  0.49907  0.86488  1.0000
  H   H2170     1.0  0.71200  0.02671  0.99113  1.0000
  H   H2171     1.0  0.96796  0.23563  0.86712  1.0000
  C   C1233     1.0  0.66459  0.03274  0.98283  1.0000
  H   H2172     1.0  0.90740  0.47200  0.78584  1.0000
  H   H2173     1.0  0.87279  0.40690  0.79140  1.0000
  C   C1234     1.0  0.70427  0.09459  0.99421  1.0000
  H   H2174     1.0  0.84948  0.39822  0.77295  1.0000
  H   H2175     1.0  0.72957  0.09674  0.83766  1.0000
  H   H2176     1.0  0.93807  0.40780  0.91936  1.0000
  C   C1235     1.0  0.75213  0.15932  0.89443  1.0000
  H   H2177     1.0  0.76962  0.17511  0.86451  1.0000
  S   S287      1.0  0.83625  0.49129  0.87557  1.0000
  H   H2178     1.0  0.96799  0.19083  0.98434  1.0000
  C   C1236     1.0  0.70623  0.16221  0.91927  1.0000
  H   H2179     1.0  0.74582  0.20418  0.87833  1.0000
  H   H2180     1.0  0.67256  0.14742  0.92671  1.0000
  C   C1237     1.0  0.79325  0.17441  0.89311  1.0000
  H   H2181     1.0  0.93599  0.44439  0.80293  1.0000
  H   H2182     1.0  0.72853  0.17745  0.85130  1.0000
  C   C1238     1.0  0.73410  0.13664  0.86402  1.0000
  H   H2183     1.0  0.72296  0.20129  0.89865  1.0000
  H   H2184     1.0  0.68626  0.16109  0.95093  1.0000
  C   C1239     1.0  0.90522  0.46637  0.80392  1.0000
  H   H2185     1.0  0.90994  0.43041  0.79392  1.0000
  H   H2186     1.0  0.70385  0.10513  0.82242  1.0000
  H   H2187     1.0  0.92963  0.22005  0.88115  1.0000
  N   N68       1.0  0.97007  0.20218  0.90322  1.0000
  C   C1240     1.0  0.64917  0.03238  0.79497  1.0000
  H   H2188     1.0  0.90292  0.03976  0.95680  1.0000
  C   C1241     1.0  0.95744  0.36642  0.92966  1.0000
  C   C1242     1.0  0.72137  0.17680  0.86911  1.0000
  H   H2189     1.0  0.70233  0.17596  0.86666  1.0000
  H   H2190     1.0  0.69711  0.12948  0.98301  1.0000
  H   H2191     1.0  0.71710  0.12956  0.90473  1.0000
  H   H2192     1.0  0.67832  0.03343  0.81874  1.0000
  C   C1243     1.0  0.93123  0.20101  0.88110  1.0000
  H   H2193     1.0  0.71827  0.22044  0.84951  1.0000
  N   N69       1.0  0.96982  0.38865  0.92453  1.0000
  H   H2194     1.0  0.71896  0.23682  0.87594  1.0000
  H   H2195     1.0  0.94123  0.19731  0.97003  1.0000
  C   C1244     1.0  0.77368  0.16364  0.87922  1.0000
  C   C1245     1.0  0.97371  0.26708  0.88524  1.0000
  C   C1246     1.0  0.97437  0.39017  0.89895  1.0000
  C   C1247     1.0  0.97760  0.24115  0.88264  1.0000
  C   C1248     1.0  0.91722  0.44294  0.80640  1.0000
  H   H2196     1.0  0.91387  0.09864  0.98107  1.0000
  H   H2197     1.0  0.98662  0.40293  0.85473  1.0000
  H   H2198     1.0  0.99997  0.19062  0.81036  1.0000
  H   H2199     1.0  0.94423  0.44627  0.95965  1.0000
  H   H2200     1.0  0.91469  0.43596  0.82403  1.0000
  H   H2201     1.0  0.70220  0.14209  0.84383  1.0000
  H   H2202     1.0  0.94104  0.20110  0.92690  1.0000
  H   H2203     1.0  0.96738  0.06252  0.98714  1.0000
  H   H2204     1.0  0.99415  0.12084  0.93545  1.0000
  H   H2205     1.0  0.95829  0.38652  0.88912  1.0000
  C   C1249     1.0  0.63137  0.08698  0.99792  1.0000
  H   H2206     1.0  0.74656  0.14243  0.85069  1.0000
  C   C1250     1.0  0.71403  0.22003  0.86817  1.0000
  H   H2207     1.0  0.95702  0.17411  0.88279  1.0000
  H   H2208     1.0  0.73001  0.12113  0.81821  1.0000
  H   H2209     1.0  0.69777  0.17841  0.91365  1.0000
  C   C1251     1.0  0.71260  0.12767  0.85096  1.0000
  H   H2210     1.0  0.74226  0.12147  0.87241  1.0000
  H   H2211     1.0  0.67472  0.05663  0.78277  1.0000
  H   H2212     1.0  0.65511  0.05303  0.82598  1.0000
  H   H2213     1.0  0.95499  0.16939  0.96603  1.0000
  C   C1252     1.0  0.95802  0.18816  0.96825  1.0000
  H   H2214     1.0  0.96840  0.13053  0.85484  1.0000
  H   H2215     1.0  0.70155  0.11747  0.86269  1.0000
  H   H2216     1.0  0.77900  0.03849  0.97391  1.0000
  C   C1253     1.0  0.68935  0.15021  0.93544  1.0000
  H   H2217     1.0  0.75059  0.17379  0.90685  1.0000
  C   C1254     1.0  0.96976  0.22818  0.90446  1.0000
  C   C1255     1.0  0.65929  0.03565  0.81906  1.0000
  H   H2218     1.0  0.94077  0.36592  0.92009  1.0000
  H   H2219     1.0  0.65455  0.01519  0.78869  1.0000
  C   C1256     1.0  0.95845  0.19326  0.92474  1.0000
  H   H2220     1.0  0.97374  0.21637  0.95088  1.0000
  H   H2221     1.0  0.00146  0.10220  0.97983  1.0000
  C   C1257     1.0  0.64698  0.13092  0.98701  1.0000
  H   H2222     1.0  0.98104  0.23436  0.91863  1.0000
  H   H2223     1.0  0.84598  0.42276  0.79196  1.0000
  H   H2224     1.0  0.96504  0.19818  0.86630  1.0000
  H   H2225     1.0  0.65197  0.02263  0.83092  1.0000
  H   H2226     1.0  0.95554  0.17433  0.92327  1.0000
  C   C1258     1.0  0.99774  0.12553  0.87710  1.0000
  H   H2227     1.0  0.90165  0.19765  0.85863  1.0000
  S   S288      1.0  0.58614  0.08539  0.75721  1.0000
  H   H2228     1.0  0.88075  0.48877  0.89917  1.0000
  C   C1259     1.0  0.70453  0.12062  0.99820  1.0000
  H   H2229     1.0  0.78298  0.13013  0.98988  1.0000
  H   H2230     1.0  0.95898  0.40679  0.96840  1.0000
  H   H2231     1.0  0.66477  0.04565  0.96886  1.0000
  C   C1260     1.0  0.99452  0.19281  0.90291  1.0000
  H   H2232     1.0  0.93507  0.06529  0.96743  1.0000
  C   C1261     1.0  0.97539  0.07871  0.99313  1.0000
  H   H2233     1.0  0.50954  0.13891  0.75873  1.0000
  H   H2234     1.0  0.98861  0.18921  0.94782  1.0000
  H   H2235     1.0  0.78059  0.06445  0.95722  1.0000
  H   H2236     1.0  0.65274  0.14804  0.98260  1.0000
  H   H2237     1.0  0.88480  0.05292  0.97847  1.0000
  H   H2238     1.0  0.90738  0.13252  0.99776  1.0000
  H   H2239     1.0  0.80640  0.50222  0.98915  1.0000
  H   H2240     1.0  0.72243  0.12681  0.00067  1.0000
  H   H2241     1.0  0.97952  0.27588  0.86934  1.0000
  H   H2242     1.0  0.98919  0.38213  0.95572  1.0000
  H   H2243     1.0  0.99987  0.09345  0.78115  1.0000
  H   H2244     1.0  0.68615  0.08949  0.99092  1.0000
  C   C1262     1.0  0.94463  0.40880  0.95594  1.0000
  H   H2245     1.0  0.96826  0.42563  0.88756  1.0000
  C   C1263     1.0  0.97142  0.19768  0.94777  1.0000
  H   H2246     1.0  0.67729  0.09011  0.76341  1.0000
  H   H2247     1.0  0.54671  0.10220  0.96657  1.0000
  C   C1264     1.0  0.55998  0.09792  0.97967  1.0000
  H   H2248     1.0  0.75030  0.08258  0.98092  1.0000
  C   C1265     1.0  0.89955  0.05588  0.96664  1.0000
  H   H2249     1.0  0.62232  0.12002  0.76289  1.0000
  H   H2250     1.0  0.98657  0.37662  0.89308  1.0000
  H   H2251     1.0  0.78861  0.06511  0.98718  1.0000
  C   C1266     1.0  0.86753  0.42919  0.76185  1.0000
  H   H2252     1.0  0.95510  0.27107  0.88771  1.0000
  C   C1267     1.0  0.99307  0.08571  0.97500  1.0000
  H   H2253     1.0  0.92556  0.04789  0.99150  1.0000
  H   H2254     1.0  0.97667  0.34318  0.90658  1.0000
  H   H2255     1.0  0.85955  0.09978  0.99932  1.0000
  C   C1268     1.0  0.67956  0.04098  0.00275  1.0000
  C   C1269     1.0  0.95742  0.09823  0.99743  1.0000
  H   H2256     1.0  0.95286  0.10586  0.98047  1.0000
  H   H2257     1.0  0.99248  0.16394  0.82423  1.0000
  H   H2258     1.0  0.98364  0.27403  0.90003  1.0000
  H   H2259     1.0  0.93443  0.48377  0.81939  1.0000
  H   H2260     1.0  0.67389  0.01522  0.75665  1.0000
  H   H2261     1.0  0.99206  0.16059  0.78147  1.0000
  H   H2262     1.0  0.51896  0.09711  0.76099  1.0000
  H   H2263     1.0  0.97731  0.12684  0.76759  1.0000
  H   H2264     1.0  0.50694  0.02362  0.77092  1.0000
  H   H2265     1.0  0.99781  0.17468  0.86984  1.0000
  H   H2266     1.0  0.99628  0.23850  0.87985  1.0000
  H   H2267     1.0  0.53989  0.13297  0.75506  1.0000
  H   H2268     1.0  0.99507  0.17538  0.91099  1.0000
  H   H2269     1.0  0.00175  0.12610  0.80335  1.0000
  H   H2270     1.0  0.93762  0.13895  0.99676  1.0000
  H   H2271     1.0  0.54928  0.12542  0.00198  1.0000
  Fe  Fe145     1.0  0.89496  0.63499  0.12299  1.0000
  S   S289      1.0  0.90399  0.66132  0.09673  1.0000
  S   S290      1.0  0.92112  0.61904  0.14753  1.0000
  Fe  Fe146     1.0  0.84356  0.63554  0.10917  1.0000
  S   S291      1.0  0.84943  0.66305  0.08249  1.0000
  S   S292      1.0  0.81150  0.61287  0.10719  1.0000
  Fe  Fe147     1.0  0.88058  0.64233  0.07249  1.0000
  S   S293      1.0  0.89092  0.63842  0.03490  1.0000
  Fe  Fe148     1.0  0.87228  0.68000  0.10905  1.0000
  S   S294      1.0  0.87842  0.71874  0.11039  1.0000
  S   S295      1.0  0.87417  0.61424  0.09784  1.0000
  S   S296      1.0  0.86395  0.65421  0.13682  1.0000
  Fe  Fe149     1.0  0.95106  0.83950  0.18830  1.0000
  S   S297      1.0  0.92002  0.83593  0.16556  1.0000
  S   S298      1.0  0.98294  0.82281  0.17197  1.0000
  Fe  Fe150     1.0  0.92103  0.85830  0.22839  1.0000
  S   S299      1.0  0.88829  0.85542  0.20804  1.0000
  C   C1270     1.0  0.58797  0.60318  0.24726  1.0000
  Fe  Fe151     1.0  0.90249  0.82105  0.19623  1.0000
  S   S300      1.0  0.88136  0.78820  0.19552  1.0000
  Fe  Fe152     1.0  0.90889  0.87063  0.17908  1.0000
  S   S301      1.0  0.89529  0.89597  0.15241  1.0000
  S   S302      1.0  0.93390  0.82277  0.21879  1.0000
  S   S303      1.0  0.94119  0.87540  0.19976  1.0000
  Fe  Fe153     1.0  0.68498  0.58403  0.14629  1.0000
  S   S304      1.0  0.65329  0.60064  0.13124  1.0000
  S   S305      1.0  0.71348  0.60887  0.15659  1.0000
  Fe  Fe154     1.0  0.66154  0.53633  0.14822  1.0000
  S   S306      1.0  0.62860  0.54996  0.13326  1.0000
  H   H2272     1.0  0.78304  0.56383  0.06071  1.0000
  Fe  Fe155     1.0  0.65152  0.56931  0.10859  1.0000
  S   S307      1.0  0.64577  0.56777  0.06975  1.0000
  Fe  Fe156     1.0  0.63369  0.57989  0.15749  1.0000
  S   S308      1.0  0.60494  0.59528  0.17952  1.0000
  S   S309      1.0  0.68451  0.55366  0.12213  1.0000
  S   S310      1.0  0.66535  0.56528  0.17382  1.0000
  C   C1271     1.0  0.64616  0.59134  0.05052  1.0000
  C   C1272     1.0  0.64523  0.61413  0.05834  1.0000
  C   C1273     1.0  0.64485  0.63239  0.04243  1.0000
  C   C1274     1.0  0.64536  0.62806  0.01859  1.0000
  H   H2273     1.0  0.99340  0.93283  0.20087  1.0000
  C   C1275     1.0  0.64677  0.58702  0.02667  1.0000
  H   H2274     1.0  0.64446  0.61766  0.07664  1.0000
  H   H2275     1.0  0.64394  0.64998  0.04861  1.0000
  C   C1276     1.0  0.96193  0.86086  0.12299  1.0000
  H   H2276     1.0  0.64744  0.56942  0.02048  1.0000
  C   C1277     1.0  0.58834  0.60485  0.22302  1.0000
  C   C1278     1.0  0.60472  0.59256  0.20991  1.0000
  C   C1279     1.0  0.62063  0.57845  0.22126  1.0000
  H   H2277     1.0  0.57594  0.61582  0.21439  1.0000
  H   H2278     1.0  0.63323  0.56882  0.21147  1.0000
  C   C1280     1.0  0.88673  0.92470  0.15885  1.0000
  C   C1281     1.0  0.87611  0.93812  0.14169  1.0000
  C   C1282     1.0  0.86852  0.96081  0.14642  1.0000
  C   C1283     1.0  0.87143  0.97024  0.16843  1.0000
  C   C1284     1.0  0.88243  0.95692  0.18543  1.0000
  C   C1285     1.0  0.89015  0.93433  0.18066  1.0000
  H   H2279     1.0  0.87350  0.93088  0.12470  1.0000
  H   H2280     1.0  0.86004  0.97085  0.13320  1.0000
  H   H2281     1.0  0.88508  0.96421  0.20235  1.0000
  H   H2282     1.0  0.89857  0.92428  0.19389  1.0000
  H   H2283     1.0  0.56894  0.61323  0.07365  1.0000
  H   H2284     1.0  0.91881  0.91810  0.23538  1.0000
  C   C1286     1.0  0.87279  0.59535  0.02512  1.0000
  H   H2285     1.0  0.88790  0.56529  0.10190  1.0000
  H   H2286     1.0  0.86934  0.59378  0.04333  1.0000
  C   C1287     1.0  0.87995  0.73713  0.13472  1.0000
  C   C1288     1.0  0.89018  0.75886  0.13220  1.0000
  C   C1289     1.0  0.89118  0.77443  0.15080  1.0000
  C   C1290     1.0  0.88154  0.76860  0.17204  1.0000
  C   C1291     1.0  0.87138  0.74682  0.17462  1.0000
  C   C1292     1.0  0.87074  0.73105  0.15610  1.0000
  H   H2287     1.0  0.89735  0.76368  0.11571  1.0000
  H   H2288     1.0  0.89933  0.79095  0.14863  1.0000
  H   H2289     1.0  0.86383  0.74217  0.19099  1.0000
  H   H2290     1.0  0.86256  0.71449  0.15814  1.0000
  C   C1293     1.0  0.78465  0.61209  0.12175  1.0000
  C   C1294     1.0  0.77773  0.62918  0.13737  1.0000
  C   C1295     1.0  0.75590  0.62792  0.14801  1.0000
  C   C1296     1.0  0.74081  0.60968  0.14302  1.0000
  C   C1297     1.0  0.74772  0.59266  0.12736  1.0000
  C   C1298     1.0  0.76954  0.59385  0.11685  1.0000
  H   H2291     1.0  0.78917  0.64331  0.14126  1.0000
  H   H2292     1.0  0.75068  0.64115  0.16012  1.0000
  H   H2293     1.0  0.73638  0.57841  0.12360  1.0000
  H   H2294     1.0  0.77481  0.58042  0.10499  1.0000
  C   C1299     1.0  0.98700  0.63474  0.12874  1.0000
  C   C1300     1.0  0.96271  0.63447  0.12964  1.0000
  C   C1301     1.0  0.95150  0.62173  0.14667  1.0000
  C   C1302     1.0  0.96479  0.61024  0.16334  1.0000
  H   H2295     1.0  0.62371  0.52813  0.20316  1.0000
  H   H2296     1.0  0.95268  0.64370  0.11694  1.0000
  H   H2297     1.0  0.95625  0.60045  0.17665  1.0000
  H   H2298     1.0  0.93600  0.61771  0.08733  1.0000
  H   H2299     1.0  0.98666  0.90264  0.19884  1.0000
  H   H2300     1.0  0.57128  0.64598  0.03074  1.0000
  H   H2301     1.0  0.73752  0.66842  0.20202  1.0000
  H   H2302     1.0  0.72259  0.55471  0.08304  1.0000
  H   H2303     1.0  0.91676  0.96499  0.12328  1.0000
  H   H2304     1.0  0.81912  0.59195  0.03419  1.0000
  C   C1303     1.0  0.72659  0.66504  0.21735  1.0000
  C   C1304     1.0  0.76431  0.82695  0.14685  1.0000
  C   C1305     1.0  0.94250  0.61113  0.07046  1.0000
  H   H2305     1.0  0.99904  0.60164  0.17545  1.0000
  H   H2306     1.0  0.63321  0.52271  0.24348  1.0000
  H   H2307     1.0  0.58143  0.52008  0.14421  1.0000
  C   C1306     1.0  0.58590  0.59968  0.04288  1.0000
  H   H2308     1.0  0.70074  0.64086  0.24614  1.0000
  H   H2309     1.0  0.59617  0.61553  0.04061  1.0000
  C   C1307     1.0  0.79622  0.57752  0.05905  1.0000
  H   H2310     1.0  0.80000  0.81307  0.19006  1.0000
  C   C1308     1.0  0.83914  0.83552  0.13647  1.0000
  H   H2311     1.0  0.57093  0.54915  0.14783  1.0000
  H   H2312     1.0  0.71289  0.63427  0.20249  1.0000
  H   H2313     1.0  0.97542  0.57858  0.04594  1.0000
  C   C1309     1.0  0.86581  0.83353  0.13620  1.0000
  C   C1310     1.0  0.83875  0.86571  0.16576  1.0000
  C   C1311     1.0  0.58636  0.52598  0.23026  1.0000
  C   C1312     1.0  0.95124  0.64958  0.05074  1.0000
  H   H2314     1.0  0.88952  0.97296  0.24889  1.0000
  C   C1313     1.0  0.87437  0.82151  0.11431  1.0000
  C   C1314     1.0  0.99052  0.77637  0.22806  1.0000
  H   H2315     1.0  0.97320  0.68643  0.18850  1.0000
  H   H2316     1.0  0.97186  0.63385  0.07709  1.0000
  H   H2317     1.0  0.81053  0.83790  0.20477  1.0000
  H   H2318     1.0  0.83410  0.84769  0.12250  1.0000
  H   H2319     1.0  0.83263  0.81829  0.13116  1.0000
  H   H2320     1.0  0.83572  0.80728  0.16891  1.0000
  H   H2321     1.0  0.85071  0.82804  0.18508  1.0000
  C   C1315     1.0  0.55355  0.54704  0.25020  1.0000
  H   H2322     1.0  0.79987  0.86122  0.14356  1.0000
  H   H2323     1.0  0.81058  0.87969  0.18754  1.0000
  H   H2324     1.0  0.85916  0.89917  0.19421  1.0000
  H   H2325     1.0  0.87208  0.82357  0.15121  1.0000
  H   H2326     1.0  0.87374  0.85089  0.13658  1.0000
  H   H2327     1.0  0.83678  0.91240  0.17693  1.0000
  H   H2328     1.0  0.81472  0.56140  0.03164  1.0000
  C   C1316     1.0  0.80288  0.84609  0.15500  1.0000
  H   H2329     1.0  0.87944  0.93263  0.23247  1.0000
  H   H2330     1.0  0.84102  0.81379  0.22359  1.0000
  H   H2331     1.0  0.54983  0.64904  0.00863  1.0000
  C   C1317     1.0  0.79042  0.82529  0.14374  1.0000
  C   C1318     1.0  0.70603  0.65029  0.21028  1.0000
  C   C1319     1.0  0.81227  0.98168  0.21485  1.0000
  H   H2332     1.0  0.79399  0.82494  0.12493  1.0000
  H   H2333     1.0  0.86901  0.83132  0.09880  1.0000
  H   H2334     1.0  0.89348  0.82041  0.11458  1.0000
  H   H2335     1.0  0.86750  0.80371  0.11320  1.0000
  N   N70       1.0  0.97214  0.90425  0.12719  1.0000
  C   C1320     1.0  0.96412  0.92746  0.11843  1.0000
  C   C1321     1.0  0.95563  0.88641  0.11796  1.0000
  C   C1322     1.0  0.97166  0.90308  0.15312  1.0000
  C   C1323     1.0  0.56422  0.59952  0.02722  1.0000
  C   C1324     1.0  0.93963  0.93541  0.12605  1.0000
  H   H2336     1.0  0.93754  0.55484  0.08791  1.0000
  C   C1325     1.0  0.63596  0.50803  0.23149  1.0000
  H   H2337     1.0  0.72600  0.61843  0.02632  1.0000
  C   C1326     1.0  0.67944  0.60424  0.23430  1.0000
  H   H2338     1.0  0.59950  0.54014  0.17753  1.0000
  H   H2339     1.0  0.96531  0.66150  0.04588  1.0000
  H   H2340     1.0  0.79118  0.53704  0.00822  1.0000
  H   H2341     1.0  0.93810  0.88900  0.12531  1.0000
  H   H2342     1.0  0.95363  0.90433  0.15955  1.0000
  C   C1327     1.0  0.78659  0.58264  0.01669  1.0000
  H   H2343     1.0  0.81035  0.57381  0.07144  1.0000
  H   H2344     1.0  0.96310  0.77244  0.18094  1.0000
  H   H2345     1.0  0.92618  0.92406  0.11867  1.0000
  H   H2346     1.0  0.93790  0.93554  0.14507  1.0000
  H   H2347     1.0  0.75970  0.82621  0.16541  1.0000
  H   H2348     1.0  0.92433  0.73946  0.16643  1.0000
  C   C1328     1.0  0.58268  0.50881  0.19103  1.0000
  C   C1329     1.0  0.98134  0.56221  0.09461  1.0000
  H   H2349     1.0  0.59519  0.52454  0.24716  1.0000
  C   C1330     1.0  0.58199  0.53295  0.17956  1.0000
  C   C1331     1.0  0.98232  0.92000  0.19203  1.0000
  C   C1332     1.0  0.99963  0.68988  0.16245  1.0000
  H   H2350     1.0  0.94809  0.84604  0.09136  1.0000
  C   C1333     1.0  0.82951  0.87720  0.18808  1.0000
  H   H2351     1.0  0.92874  0.69767  0.11689  1.0000
  C   C1334     1.0  0.94572  0.84452  0.11027  1.0000
  H   H2352     1.0  0.63114  0.64930  0.20335  1.0000
  H   H2353     1.0  0.99984  0.75704  0.19815  1.0000
  H   H2354     1.0  0.92737  0.61271  0.05892  1.0000
  N   N71       1.0  0.71756  0.62401  0.06227  1.0000
  C   C1335     1.0  0.70308  0.64076  0.07611  1.0000
  C   C1336     1.0  0.71183  0.62599  0.03691  1.0000
  C   C1337     1.0  0.71139  0.59994  0.07000  1.0000
  C   C1338     1.0  0.74302  0.62726  0.06647  1.0000
  C   C1339     1.0  0.75304  0.65132  0.06127  1.0000
  C   C1340     1.0  0.70625  0.63988  0.10260  1.0000
  C   C1341     1.0  0.72118  0.57977  0.05515  1.0000
  C   C1342     1.0  0.77786  0.65319  0.06991  1.0000
  C   C1343     1.0  0.69148  0.65818  0.11463  1.0000
  C   C1344     1.0  0.71497  0.55648  0.06558  1.0000
  H   H2355     1.0  0.68451  0.63780  0.07247  1.0000
  H   H2356     1.0  0.70619  0.65881  0.07091  1.0000
  C   C1345     1.0  0.69999  0.59421  0.22046  1.0000
  C   C1346     1.0  0.94249  0.74510  0.16538  1.0000
  H   H2357     1.0  0.69229  0.59789  0.07055  1.0000
  H   H2358     1.0  0.71749  0.59684  0.08788  1.0000
  H   H2359     1.0  0.74748  0.62274  0.08453  1.0000
  H   H2360     1.0  0.75322  0.61509  0.05576  1.0000
  H   H2361     1.0  0.74301  0.66530  0.06968  1.0000
  H   H2362     1.0  0.75349  0.65411  0.04239  1.0000
  H   H2363     1.0  0.70083  0.62297  0.10947  1.0000
  H   H2364     1.0  0.72444  0.64303  0.10746  1.0000
  H   H2365     1.0  0.74021  0.58041  0.05401  1.0000
  H   H2366     1.0  0.71399  0.58015  0.03745  1.0000
  H   H2367     1.0  0.78509  0.67018  0.06509  1.0000
  H   H2368     1.0  0.77844  0.65174  0.08898  1.0000
  H   H2369     1.0  0.78893  0.63947  0.06225  1.0000
  H   H2370     1.0  0.67290  0.65513  0.11124  1.0000
  H   H2371     1.0  0.69446  0.65724  0.13350  1.0000
  H   H2372     1.0  0.69620  0.67570  0.10869  1.0000
  H   H2373     1.0  0.95512  0.55657  0.05069  1.0000
  H   H2374     1.0  0.80953  0.95793  0.24289  1.0000
  C   C1347     1.0  0.70608  0.65037  0.02745  1.0000
  N   N72       1.0  0.95659  0.70278  0.15925  1.0000
  C   C1348     1.0  0.93290  0.69264  0.16264  1.0000
  C   C1349     1.0  0.96161  0.70524  0.13378  1.0000
  C   C1350     1.0  0.97398  0.68608  0.16934  1.0000
  C   C1351     1.0  0.95934  0.72545  0.17181  1.0000
  C   C1352     1.0  0.92563  0.68791  0.18786  1.0000
  H   H2375     1.0  0.81231  0.80367  0.22943  1.0000
  C   C1353     1.0  0.94118  0.71202  0.11784  1.0000
  C   C1354     1.0  0.90167  0.67716  0.18877  1.0000
  H   H2376     1.0  0.68851  0.65561  0.03313  1.0000
  H   H2377     1.0  0.93164  0.67602  0.15295  1.0000
  H   H2378     1.0  0.91924  0.70386  0.15524  1.0000
  H   H2379     1.0  0.97583  0.71775  0.13101  1.0000
  H   H2380     1.0  0.96781  0.68846  0.12659  1.0000
  H   H2381     1.0  0.96971  0.66803  0.16439  1.0000
  H   H2382     1.0  0.00263  0.68394  0.14448  1.0000
  H   H2383     1.0  0.95817  0.72281  0.19075  1.0000
  H   H2384     1.0  0.97683  0.73251  0.16893  1.0000
  H   H2385     1.0  0.93763  0.67563  0.19631  1.0000
  H   H2386     1.0  0.92502  0.70417  0.19796  1.0000
  H   H2387     1.0  0.85763  0.86394  0.16844  1.0000
  H   H2388     1.0  0.94944  0.60168  0.02316  1.0000
  H   H2389     1.0  0.93159  0.72732  0.12398  1.0000
  H   H2390     1.0  0.75593  0.81226  0.13792  1.0000
  H   H2391     1.0  0.90154  0.66042  0.17938  1.0000
  H   H2392     1.0  0.89672  0.67397  0.20695  1.0000
  H   H2393     1.0  0.88864  0.68886  0.18099  1.0000
  H   H2394     1.0  0.94167  0.64482  0.03487  1.0000
  C   C1355     1.0  0.70438  0.56900  0.22671  1.0000
  H   H2395     1.0  0.72182  0.54236  0.05454  1.0000
  C   C1356     1.0  0.82544  0.80595  0.21573  1.0000
  H   H2396     1.0  0.54971  0.52647  0.21969  1.0000
  H   H2397     1.0  0.96449  0.92750  0.09923  1.0000
  H   H2398     1.0  0.93417  0.72088  0.08232  1.0000
  H   H2399     1.0  0.94678  0.97230  0.12525  1.0000
  H   H2400     1.0  0.83008  0.78870  0.20868  1.0000
  H   H2401     1.0  0.97603  0.94136  0.12371  1.0000
  C   C1357     1.0  0.80597  0.57817  0.03465  1.0000
  H   H2402     1.0  0.85530  0.98150  0.22984  1.0000
  C   C1358     1.0  0.95686  0.57565  0.04979  1.0000
  H   H2403     1.0  0.93519  0.96070  0.09864  1.0000
  H   H2404     1.0  0.92742  0.58057  0.10151  1.0000
  H   H2405     1.0  0.59535  0.59759  0.07892  1.0000
  C   C1359     1.0  0.89108  0.55658  0.08512  1.0000
  H   H2406     1.0  0.83428  0.86665  0.20324  1.0000
  N   N73       1.0  0.95033  0.58637  0.07270  1.0000
  C   C1360     1.0  0.57940  0.59804  0.06831  1.0000
  H   H2407     1.0  0.55641  0.58222  0.02945  1.0000
  H   H2408     1.0  0.73728  0.65591  0.23034  1.0000
  H   H2409     1.0  0.68230  0.66278  0.23579  1.0000
  H   H2410     1.0  0.83668  0.87827  0.15139  1.0000
  H   H2411     1.0  0.98160  0.79028  0.21833  1.0000
  C   C1361     1.0  0.90889  0.56968  0.07091  1.0000
  C   C1362     1.0  0.86827  0.57679  0.01014  1.0000
  H   H2412     1.0  0.86178  0.56081  0.01707  1.0000
  H   H2413     1.0  0.98272  0.93877  0.16048  1.0000
  H   H2414     1.0  0.94957  0.82647  0.11539  1.0000
  H   H2415     1.0  0.68904  0.55839  0.22267  1.0000
  C   C1363     1.0  0.81971  0.97351  0.23873  1.0000
  H   H2416     1.0  0.89708  0.53868  0.08838  1.0000
  C   C1364     1.0  0.57913  0.67085  0.00494  1.0000
  H   H2417     1.0  0.69597  0.55460  0.06676  1.0000
  N   N74       1.0  0.67105  0.62800  0.22768  1.0000
  H   H2418     1.0  0.52574  0.57741  0.00659  1.0000
  H   H2419     1.0  0.79647  0.80867  0.15103  1.0000
  C   C1365     1.0  0.94933  0.71673  0.09329  1.0000
  H   H2420     1.0  0.72066  0.68182  0.22455  1.0000
  H   H2421     1.0  0.90140  0.58657  0.06628  1.0000
  H   H2422     1.0  0.96667  0.59478  0.10513  1.0000
  C   C1366     1.0  0.94345  0.58428  0.02817  1.0000
  C   C1367     1.0  0.84585  0.96770  0.23918  1.0000
  C   C1368     1.0  0.57118  0.53168  0.15560  1.0000
  H   H2423     1.0  0.92466  0.58566  0.03103  1.0000
  C   C1369     1.0  0.98656  0.92094  0.16608  1.0000
  H   H2424     1.0  0.82079  0.99823  0.21056  1.0000
  H   H2425     1.0  0.98541  0.59623  0.08096  1.0000
  H   H2426     1.0  0.79372  0.85052  0.17119  1.0000
  H   H2427     1.0  0.78851  0.59443  0.06375  1.0000
  H   H2428     1.0  0.94632  0.75145  0.14782  1.0000
  C   C1370     1.0  0.98905  0.61089  0.16272  1.0000
  H   H2429     1.0  0.55320  0.52532  0.15664  1.0000
  C   C1371     1.0  0.84026  0.90091  0.19182  1.0000
  H   H2430     1.0  0.96974  0.55280  0.10647  1.0000
  C   C1372     1.0  0.56020  0.52601  0.23564  1.0000
  C   C1373     1.0  0.66208  0.62730  0.20327  1.0000
  C   C1374     1.0  0.94524  0.76573  0.18163  1.0000
  C   C1375     1.0  0.93439  0.95984  0.11773  1.0000
  H   H2431     1.0  0.66551  0.52365  0.21443  1.0000
  H   H2432     1.0  0.71595  0.60380  0.22464  1.0000
  C   C1376     1.0  0.64863  0.64915  0.19550  1.0000
  H   H2433     1.0  0.97744  0.76354  0.23335  1.0000
  H   H2434     1.0  0.93344  0.77986  0.17633  1.0000
  N   N75       1.0  0.82837  0.84280  0.15911  1.0000
  H   H2435     1.0  0.95377  0.88831  0.09894  1.0000
  C   C1377     1.0  0.64542  0.64975  0.16943  1.0000
  H   H2436     1.0  0.65024  0.61244  0.20093  1.0000
  H   H2437     1.0  0.67610  0.62399  0.19069  1.0000
  H   H2438     1.0  0.77838  0.59930  0.02161  1.0000
  H   H2439     1.0  0.91189  0.55938  0.05504  1.0000
  H   H2440     1.0  0.92748  0.84845  0.11468  1.0000
  H   H2441     1.0  0.63574  0.62321  0.23893  1.0000
  C   C1378     1.0  0.66136  0.50802  0.22458  1.0000
  C   C1379     1.0  0.93162  0.57270  0.08440  1.0000
  H   H2442     1.0  0.69666  0.65968  0.19652  1.0000
  C   C1380     1.0  0.83365  0.82463  0.17703  1.0000
  H   H2443     1.0  0.55655  0.56314  0.24037  1.0000
  H   H2444     1.0  0.65758  0.66511  0.20092  1.0000
  C   C1381     1.0  0.88227  0.61567  0.01652  1.0000
  H   H2445     1.0  0.96023  0.85732  0.14165  1.0000
  H   H2446     1.0  0.69690  0.59486  0.20171  1.0000
  C   C1382     1.0  0.96139  0.62813  0.06212  1.0000
  N   N76       1.0  0.59475  0.50743  0.21403  1.0000
  H   H2447     1.0  0.94086  0.76091  0.19959  1.0000
  H   H2448     1.0  0.69620  0.61563  0.03277  1.0000
  H   H2449     1.0  0.71916  0.56224  0.21649  1.0000
  H   H2450     1.0  0.75758  0.84325  0.13938  1.0000
  H   H2451     1.0  0.94033  0.55088  0.01118  1.0000
  H   H2452     1.0  0.63655  0.66598  0.16444  1.0000
  H   H2453     1.0  0.66232  0.64887  0.16049  1.0000
  H   H2454     1.0  0.63456  0.63508  0.16381  1.0000
  H   H2455     1.0  0.96126  0.73162  0.09299  1.0000
  H   H2456     1.0  0.59104  0.54324  0.22365  1.0000
  H   H2457     1.0  0.66498  0.59180  0.23314  1.0000
  C   C1383     1.0  0.97104  0.58617  0.08853  1.0000
  H   H2458     1.0  0.95809  0.70129  0.08595  1.0000
  H   H2459     1.0  0.57156  0.54532  0.18989  1.0000
  C   C1384     1.0  0.81581  0.82141  0.19674  1.0000
  C   C1385     1.0  0.88863  0.93578  0.24887  1.0000
  H   H2460     1.0  0.59711  0.58463  0.03883  1.0000
  H   H2461     1.0  0.83292  0.90905  0.20755  1.0000
  C   C1386     1.0  0.64641  0.60529  0.01076  1.0000
  H   H2462     1.0  0.98422  0.55159  0.07893  1.0000
  C   C1387     1.0  0.00027  0.62282  0.14517  1.0000
  H   H2463     1.0  0.71811  0.66374  0.03355  1.0000
  H   H2464     1.0  0.87453  0.55586  0.07554  1.0000
  H   H2465     1.0  0.56959  0.58202  0.07165  1.0000
  H   H2466     1.0  0.93943  0.65878  0.06267  1.0000
  H   H2467     1.0  0.81684  0.96868  0.20148  1.0000
  H   H2468     1.0  0.97786  0.88594  0.15907  1.0000
  H   H2469     1.0  0.84795  0.95216  0.22814  1.0000
  C   C1388     1.0  0.68982  0.64568  0.23111  1.0000
  H   H2470     1.0  0.99558  0.64412  0.11518  1.0000
  H   H2471     1.0  0.55120  0.61185  0.03424  1.0000
  H   H2472     1.0  0.97977  0.85641  0.11767  1.0000
  H   H2473     1.0  0.97329  0.61986  0.04960  1.0000
  H   H2474     1.0  0.96403  0.92418  0.19604  1.0000
  H   H2475     1.0  0.77296  0.56950  0.01934  1.0000
  C   C1389     1.0  0.62015  0.57662  0.24540  1.0000
  C   C1390     1.0  0.91447  0.93479  0.24379  1.0000
  H   H2476     1.0  0.59811  0.67058  0.00746  1.0000
  C   C1391     1.0  0.99600  0.89848  0.11808  1.0000
  H   H2477     1.0  0.64519  0.65214  0.24019  1.0000
  C   C1392     1.0  0.65091  0.63406  0.24320  1.0000
  C   C1393     1.0  0.62023  0.51068  0.21005  1.0000
  H   H2478     1.0  0.67236  0.50775  0.24023  1.0000
  H   H2479     1.0  0.57176  0.68494  0.01569  1.0000
  C   C1394     1.0  0.56860  0.64787  0.01193  1.0000
  H   H2480     1.0  0.55551  0.51040  0.24555  1.0000
  C   C1395     1.0  0.94720  0.56831  0.00752  1.0000
  H   H2481     1.0  0.81505  0.98723  0.25123  1.0000
  H   H2482     1.0  0.79333  0.98453  0.21452  1.0000
  H   H2483     1.0  0.99486  0.88981  0.10094  1.0000
  H   H2484     1.0  0.68529  0.60394  0.25251  1.0000
  S   S311      1.0  0.86065  0.99791  0.17617  1.0000
  H   H2485     1.0  0.99838  0.78388  0.24381  1.0000
  H   H2486     1.0  0.91951  0.94885  0.23191  1.0000
  H   H2487     1.0  0.00217  0.57487  0.12325  1.0000
  H   H2488     1.0  0.70857  0.56732  0.24530  1.0000
  H   H2489     1.0  0.96581  0.56700  0.00319  1.0000
  H   H2490     1.0  0.59837  0.62684  0.00337  1.0000
  Fe  Fe157     1.0  0.57497  0.58317  0.36616  1.0000
  S   S312      1.0  0.55394  0.58445  0.33380  1.0000
  S   S313      1.0  0.57719  0.54997  0.38688  1.0000
  Fe  Fe158     1.0  0.58995  0.63379  0.36144  1.0000
  S   S314      1.0  0.57105  0.63809  0.32788  1.0000
  S   S315      1.0  0.61485  0.65981  0.37708  1.0000
  Fe  Fe159     1.0  0.54225  0.61940  0.34641  1.0000
  H   H2491     1.0  0.82584  0.94744  0.27645  1.0000
  Fe  Fe160     1.0  0.58424  0.60262  0.31818  1.0000
  S   S316      1.0  0.60471  0.58603  0.28881  1.0000
  S   S317      1.0  0.56079  0.61673  0.38027  1.0000
  S   S318      1.0  0.60556  0.59994  0.35036  1.0000
  Fe  Fe161     1.0  0.79721  0.90036  0.39864  1.0000
  S   S319      1.0  0.82280  0.87233  0.40645  1.0000
  S   S320      1.0  0.76009  0.89894  0.41190  1.0000
  Fe  Fe162     1.0  0.83553  0.93336  0.38093  1.0000
  S   S321      1.0  0.86361  0.90763  0.38861  1.0000
  S   S322      1.0  0.84245  0.96590  0.35983  1.0000
  Fe  Fe163     1.0  0.83977  0.88183  0.37265  1.0000
  S   S323      1.0  0.85198  0.85477  0.34669  1.0000
  Fe  Fe164     1.0  0.84433  0.90040  0.42166  1.0000
  S   S324      1.0  0.86048  0.89801  0.45738  1.0000
  S   S325      1.0  0.81217  0.90758  0.36356  1.0000
  S   S326      1.0  0.81824  0.92847  0.41527  1.0000
  Fe  Fe165     1.0  0.64872  0.82301  0.41808  1.0000
  S   S327      1.0  0.64867  0.79237  0.44191  1.0000
  S   S328      1.0  0.67722  0.82976  0.39193  1.0000
  Fe  Fe166     1.0  0.60126  0.83897  0.43414  1.0000
  S   S329      1.0  0.59848  0.81056  0.46016  1.0000
  S   S330      1.0  0.57242  0.86513  0.42859  1.0000
  Fe  Fe167     1.0  0.63561  0.81796  0.46845  1.0000
  H   H2492     1.0  0.69852  0.80578  0.47897  1.0000
  Fe  Fe168     1.0  0.61156  0.78739  0.43165  1.0000
  S   S331      1.0  0.58846  0.75666  0.42314  1.0000
  S   S332      1.0  0.63741  0.84855  0.44495  1.0000
  S   S333      1.0  0.61278  0.81575  0.40558  1.0000
  C   C1396     1.0  0.53327  0.83704  0.37764  1.0000
  C   C1397     1.0  0.55131  0.84112  0.39325  1.0000
  C   C1398     1.0  0.54927  0.85857  0.40976  1.0000
  C   C1399     1.0  0.52869  0.87148  0.41086  1.0000
  C   C1400     1.0  0.63336  0.90203  0.41700  1.0000
  H   H2493     1.0  0.56694  0.83102  0.39213  1.0000
  H   H2494     1.0  0.52696  0.88509  0.42353  1.0000
  C   C1401     1.0  0.62312  0.52458  0.29563  1.0000
  H   H2495     1.0  0.85427  0.78827  0.39800  1.0000
  H   H2496     1.0  0.53538  0.82402  0.36443  1.0000
  H   H2497     1.0  0.72772  0.80014  0.47292  1.0000
  H   H2498     1.0  0.86790  0.97746  0.40195  1.0000
  H   H2499     1.0  0.50521  0.60943  0.38792  1.0000
  C   C1402     1.0  0.73747  0.87944  0.40560  1.0000
  C   C1403     1.0  0.74011  0.86090  0.39032  1.0000
  C   C1404     1.0  0.72147  0.84594  0.38607  1.0000
  C   C1405     1.0  0.70017  0.84915  0.39728  1.0000
  C   C1406     1.0  0.69756  0.86772  0.41245  1.0000
  C   C1407     1.0  0.71609  0.88276  0.41656  1.0000
  H   H2500     1.0  0.75644  0.85819  0.38169  1.0000
  H   H2501     1.0  0.72363  0.83168  0.37419  1.0000
  H   H2502     1.0  0.68122  0.87055  0.42096  1.0000
  H   H2503     1.0  0.71386  0.89718  0.42821  1.0000
  C   C1408     1.0  0.86189  0.87257  0.47411  1.0000
  C   C1409     1.0  0.85169  0.85202  0.46684  1.0000
  H   H2504     1.0  0.72857  0.78390  0.43342  1.0000
  H   H2505     1.0  0.84210  0.85165  0.45091  1.0000
  H   H2506     1.0  0.96962  0.99507  0.37010  1.0000
  C   C1410     1.0  0.53632  0.72688  0.46021  1.0000
  C   C1411     1.0  0.57007  0.88014  0.35143  1.0000
  H   H2507     1.0  0.90795  0.87798  0.44808  1.0000
  C   C1412     1.0  0.51023  0.86680  0.39571  1.0000
  H   H2508     1.0  0.75023  0.85767  0.48429  1.0000
  H   H2509     1.0  0.90151  0.86656  0.39666  1.0000
  C   C1413     1.0  0.53420  0.77377  0.37501  1.0000
  C   C1414     1.0  0.59972  0.52946  0.38352  1.0000
  C   C1415     1.0  0.92647  0.99858  0.31091  1.0000
  C   C1416     1.0  0.61769  0.53282  0.36788  1.0000
  H   H2510     1.0  0.57491  0.55024  0.46653  1.0000
  H   H2511     1.0  0.61802  0.54823  0.35749  1.0000
  C   C1417     1.0  0.60711  0.68731  0.38840  1.0000
  C   C1418     1.0  0.62462  0.70243  0.39553  1.0000
  C   C1419     1.0  0.61924  0.72394  0.40568  1.0000
  C   C1420     1.0  0.59624  0.73042  0.40914  1.0000
  C   C1421     1.0  0.57872  0.71533  0.40194  1.0000
  C   C1422     1.0  0.58409  0.69401  0.39142  1.0000
  H   H2512     1.0  0.64247  0.69742  0.39331  1.0000
  H   H2513     1.0  0.63290  0.73530  0.41119  1.0000
  H   H2514     1.0  0.56088  0.72004  0.40463  1.0000
  H   H2515     1.0  0.57044  0.68254  0.38611  1.0000
  C   C1423     1.0  0.90115  0.87007  0.28617  1.0000
  C   C1424     1.0  0.90117  0.88415  0.30596  1.0000
  C   C1425     1.0  0.88595  0.87990  0.32440  1.0000
  C   C1426     1.0  0.87052  0.86148  0.32329  1.0000
  C   C1427     1.0  0.87052  0.84740  0.30352  1.0000
  C   C1428     1.0  0.88560  0.85176  0.28497  1.0000
  H   H2516     1.0  0.91317  0.89828  0.30713  1.0000
  H   H2517     1.0  0.88640  0.89060  0.33965  1.0000
  H   H2518     1.0  0.85880  0.83300  0.30254  1.0000
  H   H2519     1.0  0.85613  0.80646  0.37275  1.0000
  C   C1429     1.0  0.59394  0.88800  0.34233  1.0000
  H   H2520     1.0  0.52776  0.51539  0.31154  1.0000
  H   H2521     1.0  0.68085  0.59481  0.47400  1.0000
  C   C1430     1.0  0.70053  0.85256  0.47577  1.0000
  H   H2522     1.0  0.66733  0.93419  0.32571  1.0000
  H   H2523     1.0  0.86117  0.84089  0.39636  1.0000
  C   C1431     1.0  0.70833  0.81385  0.44412  1.0000
  H   H2524     1.0  0.67168  0.63962  0.27463  1.0000
  H   H2525     1.0  0.55043  0.90894  0.33718  1.0000
  C   C1432     1.0  0.89178  0.76749  0.44867  1.0000
  H   H2526     1.0  0.90758  0.89833  0.42477  1.0000
  H   H2527     1.0  0.56379  0.54766  0.26637  1.0000
  H   H2528     1.0  0.86373  0.98292  0.29386  1.0000
  H   H2529     1.0  0.67853  0.90819  0.33847  1.0000
  H   H2530     1.0  0.57094  0.54254  0.43659  1.0000
  C   C1433     1.0  0.51458  0.80951  0.45054  1.0000
  C   C1434     1.0  0.53703  0.52332  0.32625  1.0000
  H   H2531     1.0  0.55207  0.88375  0.31863  1.0000
  H   H2532     1.0  0.69959  0.85602  0.45704  1.0000
  C   C1435     1.0  0.50874  0.70256  0.34798  1.0000
  C   C1436     1.0  0.60988  0.81366  0.34373  1.0000
  H   H2533     1.0  0.87858  0.86899  0.41739  1.0000
  N   N77       1.0  0.61456  0.87991  0.35602  1.0000
  H   H2534     1.0  0.69041  0.82018  0.44166  1.0000
  C   C1437     1.0  0.53886  0.81746  0.45835  1.0000
  C   C1438     1.0  0.87053  0.99102  0.38949  1.0000
  H   H2535     1.0  0.84494  0.92824  0.26222  1.0000
  H   H2536     1.0  0.82259  0.91845  0.30794  1.0000
  H   H2537     1.0  0.89850  0.81776  0.33524  1.0000
  H   H2538     1.0  0.71980  0.82577  0.43476  1.0000
  H   H2539     1.0  0.59684  0.84390  0.32719  1.0000
  C   C1439     1.0  0.52633  0.76880  0.45202  1.0000
  H   H2540     1.0  0.93024  0.87694  0.42625  1.0000
  S   S334      1.0  0.50538  0.63289  0.34321  1.0000
  C   C1440     1.0  0.85308  0.98468  0.27800  1.0000
  H   H2541     1.0  0.51578  0.73789  0.43167  1.0000
  H   H2542     1.0  0.91979  0.98379  0.30094  1.0000
  H   H2543     1.0  0.96887  0.97026  0.34234  1.0000
  N   N78       1.0  0.93927  0.99080  0.33217  1.0000
  H   H2544     1.0  0.91181  0.92928  0.35574  1.0000
  C   C1441     1.0  0.85388  0.93654  0.29782  1.0000
  H   H2545     1.0  0.56859  0.86112  0.35097  1.0000
  H   H2546     1.0  0.68670  0.56436  0.47144  1.0000
  H   H2547     1.0  0.61683  0.55317  0.46057  1.0000
  C   C1442     1.0  0.85398  0.83193  0.48022  1.0000
  C   C1443     1.0  0.61404  0.85422  0.35970  1.0000
  H   H2548     1.0  0.63151  0.92075  0.41350  1.0000
  H   H2549     1.0  0.92452  0.93611  0.26002  1.0000
  H   H2550     1.0  0.55023  0.82022  0.44332  1.0000
  C   C1444     1.0  0.51854  0.74329  0.44971  1.0000
  H   H2551     1.0  0.92847  0.81826  0.34383  1.0000
  H   H2552     1.0  0.50890  0.75938  0.39737  1.0000
  H   H2553     1.0  0.54721  0.80471  0.46986  1.0000
  H   H2554     1.0  0.91343  0.95144  0.32022  1.0000
  H   H2555     1.0  0.78374  0.92399  0.47746  1.0000
  H   H2556     1.0  0.58561  0.50641  0.40886  1.0000
  H   H2557     1.0  0.82104  0.82691  0.38354  1.0000
  H   H2558     1.0  0.85102  0.95059  0.31053  1.0000
  C   C1445     1.0  0.74231  0.84589  0.47141  1.0000
  H   H2559     1.0  0.84776  0.91124  0.32443  1.0000
  H   H2560     1.0  0.53926  0.73112  0.47865  1.0000
  H   H2561     1.0  0.87257  0.93251  0.29731  1.0000
  H   H2562     1.0  0.54237  0.79552  0.41646  1.0000
  H   H2563     1.0  0.78179  0.85546  0.44758  1.0000
  C   C1446     1.0  0.84447  0.94357  0.27381  1.0000
  H   H2564     1.0  0.88976  0.79081  0.36717  1.0000
  H   H2565     1.0  0.73881  0.85705  0.45618  1.0000
  H   H2566     1.0  0.53844  0.75558  0.40657  1.0000
  H   H2567     1.0  0.56718  0.88611  0.36937  1.0000
  H   H2568     1.0  0.91570  0.79189  0.33355  1.0000
  H   H2569     1.0  0.50991  0.69081  0.36302  1.0000
  C   C1447     1.0  0.61210  0.83915  0.33764  1.0000
  H   H2570     1.0  0.63569  0.66233  0.28036  1.0000
  H   H2571     1.0  0.62774  0.84095  0.32681  1.0000
  H   H2572     1.0  0.92721  0.99841  0.26212  1.0000
  H   H2573     1.0  0.51402  0.72001  0.35362  1.0000
  C   C1448     1.0  0.52428  0.78959  0.41465  1.0000
  C   C1449     1.0  0.90627  0.96035  0.33547  1.0000
  H   H2574     1.0  0.63842  0.87010  0.39881  1.0000
  C   C1450     1.0  0.79659  0.91078  0.47206  1.0000
  H   H2575     1.0  0.84624  0.81604  0.47438  1.0000
  H   H2576     1.0  0.59930  0.88512  0.38967  1.0000
  H   H2577     1.0  0.63549  0.87830  0.32524  1.0000
  H   H2578     1.0  0.53368  0.88373  0.34362  1.0000
  H   H2579     1.0  0.94955  0.94237  0.31866  1.0000
  C   C1451     1.0  0.66427  0.91545  0.32792  1.0000
  H   H2580     1.0  0.75576  0.82002  0.44687  1.0000
  H   H2581     1.0  0.65054  0.57539  0.36576  1.0000
  H   H2582     1.0  0.62521  0.80770  0.35357  1.0000
  H   H2583     1.0  0.81597  0.79643  0.38335  1.0000
  C   C1452     1.0  0.60562  0.55430  0.44516  1.0000
  H   H2584     1.0  0.52702  0.70625  0.31536  1.0000
  H   H2585     1.0  0.86726  0.79409  0.44120  1.0000
  C   C1453     1.0  0.85993  0.98964  0.36791  1.0000
  H   H2586     1.0  0.61056  0.91043  0.37742  1.0000
  H   H2587     1.0  0.94904  0.96129  0.29390  1.0000
  C   C1454     1.0  0.52578  0.76789  0.39920  1.0000
  H   H2588     1.0  0.93403  0.96666  0.36007  1.0000
  H   H2589     1.0  0.61810  0.89606  0.42685  1.0000
  H   H2590     1.0  0.88391  0.75483  0.43667  1.0000
  H   H2591     1.0  0.88319  0.93245  0.34396  1.0000
  H   H2592     1.0  0.65154  0.87739  0.35103  1.0000
  C   C1455     1.0  0.59947  0.50919  0.39673  1.0000
  H   H2593     1.0  0.89086  0.96058  0.27662  1.0000
  H   H2594     1.0  0.54371  0.69329  0.33816  1.0000
  H   H2595     1.0  0.58689  0.52371  0.45535  1.0000
  C   C1456     1.0  0.95848  0.95668  0.30982  1.0000
  C   C1457     1.0  0.58318  0.54204  0.45128  1.0000
  H   H2596     1.0  0.85704  0.82585  0.42233  1.0000
  H   H2597     1.0  0.53004  0.70887  0.45897  1.0000
  H   H2598     1.0  0.70484  0.79099  0.41471  1.0000
  H   H2599     1.0  0.91943  0.79063  0.37576  1.0000
  C   C1458     1.0  0.63514  0.51602  0.36538  1.0000
  H   H2600     1.0  0.89109  0.97050  0.32955  1.0000
  H   H2601     1.0  0.68554  0.89587  0.45993  1.0000
  C   C1459     1.0  0.61399  0.89163  0.37927  1.0000
  H   H2602     1.0  0.89167  0.94961  0.36835  1.0000
  C   C1460     1.0  0.63579  0.64344  0.28333  1.0000
  H   H2603     1.0  0.97977  0.93212  0.29106  1.0000
  H   H2604     1.0  0.79056  0.90275  0.45576  1.0000
  N   N79       1.0  0.62147  0.59370  0.43089  1.0000
  C   C1461     1.0  0.63057  0.58324  0.40883  1.0000
  C   C1462     1.0  0.60107  0.57985  0.43902  1.0000
  C   C1463     1.0  0.61277  0.61767  0.42530  1.0000
  C   C1464     1.0  0.63962  0.59545  0.44950  1.0000
  C   C1465     1.0  0.65871  0.57651  0.44979  1.0000
  C   C1466     1.0  0.64900  0.59772  0.39605  1.0000
  C   C1467     1.0  0.60003  0.63066  0.44504  1.0000
  H   H2605     1.0  0.50775  0.82363  0.43945  1.0000
  H   H2606     1.0  0.76409  0.81443  0.47588  1.0000
  C   C1468     1.0  0.66242  0.58314  0.37858  1.0000
  C   C1469     1.0  0.59541  0.65578  0.43868  1.0000
  H   H2607     1.0  0.61616  0.58047  0.39649  1.0000
  H   H2608     1.0  0.63775  0.56574  0.41168  1.0000
  H   H2609     1.0  0.59360  0.58747  0.45495  1.0000
  H   H2610     1.0  0.58709  0.58046  0.42582  1.0000
  H   H2611     1.0  0.60092  0.61714  0.41022  1.0000
  H   H2612     1.0  0.62727  0.62894  0.41994  1.0000
  H   H2613     1.0  0.64896  0.61214  0.44829  1.0000
  H   H2614     1.0  0.63124  0.59586  0.46677  1.0000
  H   H2615     1.0  0.67084  0.57893  0.43524  1.0000
  H   H2616     1.0  0.65171  0.55891  0.44817  1.0000
  H   H2617     1.0  0.64050  0.61200  0.38653  1.0000
  H   H2618     1.0  0.66145  0.60560  0.40818  1.0000
  H   H2619     1.0  0.61029  0.63040  0.46115  1.0000
  H   H2620     1.0  0.58295  0.62281  0.44835  1.0000
  H   H2621     1.0  0.52764  0.54185  0.35771  1.0000
  N   N80       1.0  0.51336  0.78663  0.43804  1.0000
  H   H2622     1.0  0.54741  0.53781  0.31968  1.0000
  C   C1470     1.0  0.71041  0.79003  0.43298  1.0000
  C   C1471     1.0  0.71394  0.81313  0.47021  1.0000
  H   H2623     1.0  0.66166  0.57411  0.48715  1.0000
  H   H2624     1.0  0.67211  0.56915  0.38738  1.0000
  C   C1472     1.0  0.51908  0.53351  0.34275  1.0000
  H   H2625     1.0  0.61179  0.66494  0.43513  1.0000
  H   H2626     1.0  0.58420  0.65665  0.42321  1.0000
  H   H2627     1.0  0.58644  0.66473  0.45308  1.0000
  H   H2628     1.0  0.53651  0.75769  0.36483  1.0000
  H   H2629     1.0  0.81927  0.81128  0.41049  1.0000
  C   C1473     1.0  0.89780  0.94181  0.35194  1.0000
  N   N81       1.0  0.89054  0.82040  0.40674  1.0000
  C   C1474     1.0  0.89650  0.79720  0.41693  1.0000
  C   C1475     1.0  0.90187  0.82336  0.38337  1.0000
  C   C1476     1.0  0.90020  0.83855  0.42272  1.0000
  C   C1477     1.0  0.86487  0.82416  0.40494  1.0000
  C   C1478     1.0  0.85126  0.80584  0.39120  1.0000
  C   C1479     1.0  0.88628  0.79211  0.44114  1.0000
  C   C1480     1.0  0.89689  0.86390  0.41498  1.0000
  C   C1481     1.0  0.90545  0.80146  0.36831  1.0000
  C   C1482     1.0  0.91250  0.80780  0.34377  1.0000
  C   C1483     1.0  0.82532  0.81047  0.39235  1.0000
  C   C1484     1.0  0.52633  0.69421  0.33016  1.0000
  C   C1485     1.0  0.91163  0.88020  0.42944  1.0000
  H   H2630     1.0  0.91560  0.79531  0.41820  1.0000
  H   H2631     1.0  0.89089  0.78294  0.40554  1.0000
  H   H2632     1.0  0.89211  0.83617  0.37287  1.0000
  H   H2633     1.0  0.91945  0.83082  0.38525  1.0000
  H   H2634     1.0  0.91896  0.83539  0.42557  1.0000
  H   H2635     1.0  0.89200  0.83774  0.44000  1.0000
  C   C1486     1.0  0.64110  0.91177  0.33986  1.0000
  H   H2636     1.0  0.68370  0.84469  0.48023  1.0000
  H   H2637     1.0  0.64174  0.92097  0.35660  1.0000
  C   C1487     1.0  0.55248  0.50534  0.33866  1.0000
  H   H2638     1.0  0.91072  0.76462  0.44934  1.0000
  H   H2639     1.0  0.61364  0.54469  0.43069  1.0000
  H   H2640     1.0  0.64896  0.89938  0.42776  1.0000
  H   H2641     1.0  0.63846  0.64030  0.30202  1.0000
  H   H2642     1.0  0.66543  0.88506  0.48107  1.0000
  C   C1488     1.0  0.84146  0.91528  0.30685  1.0000
  H   H2643     1.0  0.59337  0.90716  0.34184  1.0000
  H   H2644     1.0  0.52960  0.85389  0.46081  1.0000
  H   H2645     1.0  0.63003  0.84839  0.36861  1.0000
  H   H2646     1.0  0.81336  0.91928  0.46867  1.0000
  H   H2647     1.0  0.54515  0.76969  0.44815  1.0000
  C   C1489     1.0  0.96099  0.97744  0.32646  1.0000
  H   H2648     1.0  0.59970  0.84962  0.37151  1.0000
  C   C1490     1.0  0.76104  0.82833  0.46325  1.0000
  C   C1491     1.0  0.65506  0.63176  0.26950  1.0000
  H   H2649     1.0  0.65519  0.61328  0.27448  1.0000
  H   H2650     1.0  0.62781  0.53470  0.31122  1.0000
  C   C1492     1.0  0.60391  0.58900  0.25852  1.0000
  H   H2651     1.0  0.59081  0.52402  0.32812  1.0000
  C   C1493     1.0  0.51252  0.84955  0.37895  1.0000
  H   H2652     1.0  0.88464  0.76457  0.46618  1.0000
  H   H2653     1.0  0.51540  0.80343  0.40490  1.0000
  C   C1494     1.0  0.87366  0.87302  0.49526  1.0000
  H   H2654     1.0  0.89364  0.80368  0.45445  1.0000
  C   C1495     1.0  0.63578  0.88850  0.39447  1.0000
  H   H2655     1.0  0.91267  0.98838  0.35828  1.0000
  H   H2656     1.0  0.67488  0.59417  0.36926  1.0000
  C   C1496     1.0  0.92364  0.97678  0.34748  1.0000
  H   H2657     1.0  0.53498  0.54628  0.25477  1.0000
  H   H2658     1.0  0.55108  0.78271  0.37583  1.0000
  H   H2659     1.0  0.55499  0.84574  0.47665  1.0000
  H   H2660     1.0  0.65157  0.89472  0.38578  1.0000
  H   H2661     1.0  0.97443  0.98911  0.31948  1.0000
  H   H2662     1.0  0.59409  0.81070  0.35413  1.0000
  H   H2663     1.0  0.62756  0.91996  0.32908  1.0000
  C   C1497     1.0  0.86620  0.83225  0.50113  1.0000
  H   H2664     1.0  0.61874  0.63629  0.27846  1.0000
  H   H2665     1.0  0.81123  0.87895  0.48358  1.0000
  H   H2666     1.0  0.60867  0.80322  0.32771  1.0000
  H   H2667     1.0  0.84486  0.90014  0.29555  1.0000
  C   C1498     1.0  0.55046  0.88981  0.33673  1.0000
  H   H2668     1.0  0.59544  0.88255  0.32399  1.0000
  C   C1499     1.0  0.63619  0.88571  0.34291  1.0000
  H   H2669     1.0  0.64888  0.51871  0.35308  1.0000
  C   C1500     1.0  0.53738  0.84019  0.47168  1.0000
  S   S335      1.0  0.92133  0.87559  0.26382  1.0000
  H   H2670     1.0  0.57641  0.52240  0.30121  1.0000
  C   C1501     1.0  0.67279  0.57760  0.47200  1.0000
  H   H2671     1.0  0.52472  0.77265  0.47078  1.0000
  H   H2672     1.0  0.69929  0.77744  0.44203  1.0000
  C   C1502     1.0  0.78409  0.84004  0.45869  1.0000
  H   H2673     1.0  0.57536  0.61280  0.25719  1.0000
  H   H2674     1.0  0.55295  0.72798  0.45077  1.0000
  N   N82       1.0  0.85623  0.96378  0.26270  1.0000
  H   H2675     1.0  0.68347  0.90932  0.48788  1.0000
  H   H2676     1.0  0.52697  0.83814  0.48758  1.0000
  N   N83       1.0  0.72012  0.83604  0.48086  1.0000
  H   H2677     1.0  0.52140  0.78490  0.36608  1.0000
  H   H2678     1.0  0.66443  0.90714  0.31065  1.0000
  H   H2679     1.0  0.88154  0.88886  0.50106  1.0000
  H   H2680     1.0  0.61371  0.53599  0.28352  1.0000
  H   H2681     1.0  0.52185  0.67673  0.32378  1.0000
  C   C1503     1.0  0.79929  0.89229  0.49052  1.0000
  H   H2682     1.0  0.83503  0.98597  0.28448  1.0000
  H   H2683     1.0  0.88546  0.84070  0.26993  1.0000
  H   H2684     1.0  0.79597  0.82785  0.44980  1.0000
  C   C1504     1.0  0.98207  0.94738  0.30243  1.0000
  C   C1505     1.0  0.88174  0.95932  0.25980  1.0000
  H   H2685     1.0  0.63928  0.51858  0.28723  1.0000
  H   H2686     1.0  0.63260  0.56570  0.25400  1.0000
  H   H2687     1.0  0.50730  0.51991  0.34908  1.0000
  H   H2688     1.0  0.79215  0.84505  0.47522  1.0000
  C   C1506     1.0  0.58579  0.51181  0.31412  1.0000
  H   H2689     1.0  0.99232  0.94202  0.31768  1.0000
  H   H2690     1.0  0.56094  0.51412  0.35352  1.0000
  H   H2691     1.0  0.50347  0.80913  0.46622  1.0000
  C   C1507     1.0  0.68281  0.89260  0.47855  1.0000
  H   H2692     1.0  0.99172  0.96067  0.29271  1.0000
  H   H2693     1.0  0.78227  0.88435  0.49318  1.0000
  H   H2694     1.0  0.88463  0.92131  0.26065  1.0000
  H   H2695     1.0  0.50865  0.54679  0.33369  1.0000
  H   H2696     1.0  0.71846  0.88459  0.48553  1.0000
  C   C1508     1.0  0.70140  0.87639  0.48794  1.0000
  C   C1509     1.0  0.60835  0.50387  0.30212  1.0000
  Fe  Fe169     1.0  0.68490  0.93951  0.64639  1.0000
  S   S336      1.0  0.65659  0.91329  0.64560  1.0000
  S   S337      1.0  0.68243  0.97695  0.65888  1.0000
  Fe  Fe170     1.0  0.72186  0.90381  0.62970  1.0000
  S   S338      1.0  0.69595  0.87510  0.62819  1.0000
  S   S339      1.0  0.75917  0.90254  0.61657  1.0000
  Fe  Fe171     1.0  0.67229  0.90118  0.61185  1.0000
  S   S340      1.0  0.65054  0.89767  0.57926  1.0000
  Fe  Fe172     1.0  0.68257  0.88968  0.66200  1.0000
  S   S341      1.0  0.67564  0.86730  0.69334  1.0000
  S   S342      1.0  0.69874  0.92929  0.61156  1.0000
  S   S343      1.0  0.71031  0.91644  0.66462  1.0000
  Fe  Fe173     1.0  0.86394  0.81279  0.60323  1.0000
  S   S344      1.0  0.86422  0.78186  0.57961  1.0000
  S   S345      1.0  0.83167  0.81971  0.62472  1.0000
  Fe  Fe174     1.0  0.91361  0.82503  0.59133  1.0000
  S   S346      1.0  0.91686  0.79566  0.56630  1.0000
  S   S347      1.0  0.94477  0.84833  0.59472  1.0000
  Fe  Fe175     1.0  0.88136  0.80589  0.55442  1.0000
  S   S348      1.0  0.86941  0.80637  0.51695  1.0000
  Fe  Fe176     1.0  0.89972  0.77430  0.59373  1.0000
  S   S349      1.0  0.91907  0.74120  0.60383  1.0000
  S   S350      1.0  0.87920  0.83701  0.57738  1.0000
  S   S351      1.0  0.89829  0.80349  0.61929  1.0000
  Fe  Fe177     1.0  0.90460  0.59447  0.71518  1.0000
  S   S352      1.0  0.88388  0.59169  0.68256  1.0000
  C   C1510     1.0  0.58133  0.84673  0.69381  1.0000
  Fe  Fe178     1.0  0.94781  0.60773  0.68725  1.0000
  S   S353      1.0  0.92991  0.60472  0.65311  1.0000
  S   S354      1.0  0.98545  0.61856  0.69018  1.0000
  Fe  Fe179     1.0  0.90126  0.62413  0.67077  1.0000
  S   S355      1.0  0.87919  0.65160  0.65329  1.0000
  Fe  Fe180     1.0  0.91396  0.57268  0.66796  1.0000
  S   S356      1.0  0.91174  0.53931  0.64757  1.0000
  S   S357      1.0  0.91962  0.62873  0.70455  1.0000
  S   S358      1.0  0.93435  0.57388  0.70076  1.0000
  C   C1511     1.0  0.88824  0.52003  0.64946  1.0000
  C   C1512     1.0  0.86767  0.52613  0.66055  1.0000
  C   C1513     1.0  0.65122  0.95845  0.74253  1.0000
  H   H2697     1.0  0.86624  0.54258  0.66922  1.0000
  H   H2698     1.0  0.69153  0.97816  0.57662  1.0000
  C   C1514     1.0  0.90756  0.71681  0.61820  1.0000
  C   C1515     1.0  0.92271  0.69941  0.62586  1.0000
  C   C1516     1.0  0.91435  0.67965  0.63711  1.0000
  C   C1517     1.0  0.89064  0.67685  0.64046  1.0000
  C   C1518     1.0  0.87549  0.69416  0.63268  1.0000
  C   C1519     1.0  0.88389  0.71413  0.62178  1.0000
  H   H2699     1.0  0.94102  0.70126  0.62314  1.0000
  H   H2700     1.0  0.92619  0.66649  0.64304  1.0000
  H   H2701     1.0  0.85713  0.69217  0.63515  1.0000
  H   H2702     1.0  0.87202  0.72731  0.61594  1.0000
  H   H2703     1.0  0.95832  0.55535  0.63550  1.0000
  H   H2704     1.0  0.62625  0.80053  0.72698  1.0000
  C   C1520     1.0  0.90420  0.87748  0.67678  1.0000
  C   C1521     1.0  0.89582  0.89074  0.60250  1.0000
  H   H2705     1.0  0.62095  0.84770  0.61705  1.0000
  H   H2706     1.0  0.56862  0.77140  0.65764  1.0000
  H   H2707     1.0  0.86503  0.52146  0.60089  1.0000
  C   C1522     1.0  0.77900  0.87922  0.61905  1.0000
  C   C1523     1.0  0.77305  0.85843  0.62951  1.0000
  C   C1524     1.0  0.78931  0.84032  0.63088  1.0000
  C   C1525     1.0  0.81148  0.84256  0.62137  1.0000
  C   C1526     1.0  0.81745  0.86333  0.61087  1.0000
  C   C1527     1.0  0.80139  0.88166  0.61004  1.0000
  H   H2708     1.0  0.75598  0.85635  0.63669  1.0000
  H   H2709     1.0  0.78463  0.82443  0.63932  1.0000
  H   H2710     1.0  0.83458  0.86541  0.60390  1.0000
  H   H2711     1.0  0.80627  0.89786  0.60238  1.0000
  C   C1528     1.0  0.65252  0.87561  0.55801  1.0000
  C   C1529     1.0  0.63950  0.87774  0.53767  1.0000
  C   C1530     1.0  0.63977  0.86024  0.52074  1.0000
  C   C1531     1.0  0.65284  0.84022  0.52413  1.0000
  C   C1532     1.0  0.66610  0.83821  0.54433  1.0000
  C   C1533     1.0  0.66612  0.85587  0.56110  1.0000
  H   H2712     1.0  0.62884  0.89287  0.53513  1.0000
  C   C1534     1.0  0.63817  0.84775  0.62541  1.0000
  H   H2713     1.0  0.67616  0.82273  0.54721  1.0000
  H   H2714     1.0  0.67623  0.85398  0.57663  1.0000
  C   C1535     1.0  0.65456  0.87372  0.71456  1.0000
  H   H2715     1.0  0.63451  0.81368  0.63915  1.0000
  C   C1536     1.0  0.63665  0.88942  0.71046  1.0000
  C   C1537     1.0  0.98579  0.76743  0.65884  1.0000
  H   H2716     1.0  0.63609  0.89878  0.69440  1.0000
  C   C1538     1.0  0.96868  0.84420  0.66053  1.0000
  C   C1539     1.0  0.95472  0.84161  0.64088  1.0000
  C   C1540     1.0  0.96246  0.84941  0.61949  1.0000
  C   C1541     1.0  0.98449  0.85922  0.61784  1.0000
  H   H2717     1.0  0.70614  0.98422  0.61549  1.0000
  H   H2718     1.0  0.93786  0.83397  0.64231  1.0000
  C   C1542     1.0  0.99305  0.67365  0.60566  1.0000
  H   H2719     1.0  0.64591  0.97359  0.53021  1.0000
  C   C1543     1.0  0.96114  0.64608  0.59451  1.0000
  H   H2720     1.0  0.59337  0.78238  0.70321  1.0000
  H   H2721     1.0  0.60505  0.90442  0.72345  1.0000
  H   H2722     1.0  0.63248  0.97107  0.65478  1.0000
  C   C1544     1.0  0.88162  0.61197  0.59195  1.0000
  H   H2723     1.0  0.86554  0.79928  0.65945  1.0000
  H   H2724     1.0  0.96882  0.55346  0.58347  1.0000
  H   H2725     1.0  0.86120  0.87085  0.69691  1.0000
  H   H2726     1.0  0.60437  0.97426  0.58411  1.0000
  H   H2727     1.0  0.86461  0.89830  0.68469  1.0000
  H   H2728     1.0  0.88084  0.52474  0.57442  1.0000
  H   H2729     1.0  0.63041  0.95088  0.56051  1.0000
  C   C1545     1.0  0.62197  0.83883  0.66516  1.0000
  H   H2730     1.0  0.97941  0.61174  0.64087  1.0000
  C   C1546     1.0  0.98685  0.55612  0.66865  1.0000
  H   H2731     1.0  0.85089  0.83294  0.68117  1.0000
  H   H2732     1.0  0.93261  0.74479  0.67553  1.0000
  H   H2733     1.0  0.65676  0.83080  0.65241  1.0000
  H   H2734     1.0  0.91009  0.88680  0.59032  1.0000
  C   C1547     1.0  0.95762  0.55237  0.59886  1.0000
  H   H2735     1.0  0.89810  0.83852  0.65724  1.0000
  H   H2736     1.0  0.75953  0.89484  0.52131  1.0000
  H   H2737     1.0  0.86625  0.79432  0.68996  1.0000
  C   C1548     1.0  0.81832  0.88033  0.68649  1.0000
  H   H2738     1.0  0.67915  0.95331  0.71766  1.0000
  H   H2739     1.0  0.87684  0.83425  0.69759  1.0000
  S   S359      1.0  0.88204  0.58186  0.74492  1.0000
  H   H2740     1.0  0.81907  0.86578  0.69886  1.0000
  C   C1549     1.0  0.86191  0.87984  0.68013  1.0000
  C   C1550     1.0  0.84876  0.51101  0.66010  1.0000
  C   C1551     1.0  0.87392  0.80458  0.67582  1.0000
  H   H2741     1.0  0.86091  0.53621  0.72897  1.0000
  H   H2742     1.0  0.87035  0.84165  0.64532  1.0000
  C   C1552     1.0  0.86982  0.83023  0.68037  1.0000
  C   C1553     1.0  0.96726  0.75893  0.67593  1.0000
  H   H2743     1.0  0.64217  0.86552  0.63120  1.0000
  N   N84       1.0  0.88166  0.87105  0.66551  1.0000
  C   C1554     1.0  0.00267  0.78938  0.71074  1.0000
  C   C1555     1.0  0.81084  0.86232  0.52830  1.0000
  H   H2744     1.0  0.85320  0.94232  0.57544  1.0000
  H   H2745     1.0  0.98132  0.81987  0.71709  1.0000
  C   C1556     1.0  0.78637  0.89240  0.54772  1.0000
  C   C1557     1.0  0.76349  0.88432  0.53672  1.0000
  C   C1558     1.0  0.81194  0.84534  0.54893  1.0000
  H   H2746     1.0  0.66851  0.80571  0.73043  1.0000
  C   C1559     1.0  0.93783  0.56954  0.59533  1.0000
  H   H2747     1.0  0.99834  0.77299  0.58095  1.0000
  C   C1560     1.0  0.74339  0.88750  0.55354  1.0000
  C   C1561     1.0  0.80955  0.82037  0.54095  1.0000
  N   N85       1.0  0.64108  0.98032  0.58112  1.0000
  C   C1562     1.0  0.65878  0.99654  0.65914  1.0000
  C   C1563     1.0  0.58580  0.78799  0.68668  1.0000
  H   H2748     1.0  0.90991  0.63419  0.58240  1.0000
  H   H2749     1.0  0.95029  0.73567  0.65168  1.0000
  H   H2750     1.0  0.99056  0.86534  0.60135  1.0000
  H   H2751     1.0  0.82764  0.88432  0.56620  1.0000
  H   H2752     1.0  0.78740  0.88492  0.56526  1.0000
  C   C1564     1.0  0.99874  0.86120  0.63737  1.0000
  H   H2753     1.0  0.76405  0.86584  0.53196  1.0000
  C   C1565     1.0  0.98938  0.75614  0.58140  1.0000
  H   H2754     1.0  0.82884  0.84676  0.55780  1.0000
  H   H2755     1.0  0.79807  0.84872  0.56165  1.0000
  H   H2756     1.0  0.92567  0.56909  0.61008  1.0000
  H   H2757     1.0  0.95009  0.53483  0.59966  1.0000
  H   H2758     1.0  0.67472  0.94683  0.51362  1.0000
  H   H2759     1.0  0.67970  0.93400  0.54144  1.0000
  H   H2760     1.0  0.80141  0.87976  0.67752  1.0000
  H   H2761     1.0  0.92819  0.56501  0.57946  1.0000
  H   H2762     1.0  0.74592  0.87661  0.56907  1.0000
  H   H2763     1.0  0.74183  0.90579  0.55910  1.0000
  H   H2764     1.0  0.72697  0.88240  0.54518  1.0000
  H   H2765     1.0  0.82221  0.81629  0.52720  1.0000
  H   H2766     1.0  0.81275  0.80862  0.55569  1.0000
  H   H2767     1.0  0.79195  0.81720  0.53431  1.0000
  C   C1566     1.0  0.70128  0.99940  0.60494  1.0000
  H   H2768     1.0  0.70425  0.82757  0.51334  1.0000
  H   H2769     1.0  0.63086  0.77782  0.70591  1.0000
  H   H2770     1.0  0.89281  0.59643  0.59201  1.0000
  C   C1567     1.0  0.90044  0.87890  0.62554  1.0000
  H   H2771     1.0  0.59151  0.75442  0.67053  1.0000
  H   H2772     1.0  0.95525  0.51842  0.64220  1.0000
  C   C1568     1.0  0.60322  0.80148  0.67158  1.0000
  C   C1569     1.0  0.61902  0.89249  0.72691  1.0000
  H   H2773     1.0  0.88673  0.64890  0.59696  1.0000
  C   C1570     1.0  0.97131  0.50818  0.64135  1.0000
  N   N86       1.0  0.61628  0.82086  0.68308  1.0000
  H   H2774     1.0  0.97305  0.75829  0.59125  1.0000
  H   H2775     1.0  0.72496  0.85003  0.51516  1.0000
  C   C1571     1.0  0.99745  0.61474  0.64409  1.0000
  H   H2776     1.0  0.90549  0.89660  0.67826  1.0000
  H   H2777     1.0  0.94457  0.58733  0.59353  1.0000
  H   H2778     1.0  0.59304  0.80803  0.65666  1.0000
  H   H2779     1.0  0.86443  0.87883  0.63334  1.0000
  H   H2780     1.0  0.98183  0.67747  0.62084  1.0000
  H   H2781     1.0  0.91903  0.87180  0.66600  1.0000
  H   H2782     1.0  0.65121  0.84247  0.61239  1.0000
  H   H2783     1.0  0.98805  0.56348  0.70531  1.0000
  H   H2784     1.0  0.87409  0.61432  0.57460  1.0000
  C   C1572     1.0  0.66077  0.98475  0.59751  1.0000
  C   C1573     1.0  0.99078  0.85390  0.65884  1.0000
  H   H2785     1.0  0.83534  0.89239  0.65616  1.0000
  C   C1574     1.0  0.63879  0.83110  0.64575  1.0000
  H   H2786     1.0  0.62030  0.99758  0.55557  1.0000
  H   H2787     1.0  0.61554  0.78878  0.66395  1.0000
  H   H2788     1.0  0.81953  0.89691  0.69601  1.0000
  C   C1575     1.0  0.88045  0.88357  0.64273  1.0000
  C   C1576     1.0  0.66009  0.95525  0.71789  1.0000
  H   H2789     1.0  0.78420  0.91121  0.55071  1.0000
  C   C1577     1.0  0.88056  0.84537  0.66111  1.0000
  H   H2790     1.0  0.95104  0.63927  0.57980  1.0000
  H   H2791     1.0  0.89480  0.90972  0.60484  1.0000
  C   C1578     1.0  0.64651  0.96008  0.56542  1.0000
  C   C1579     1.0  0.62005  0.97428  0.59523  1.0000
  C   C1580     1.0  0.56494  0.85205  0.71376  1.0000
  C   C1581     1.0  0.99268  0.71441  0.59433  1.0000
  H   H2792     1.0  0.98845  0.77711  0.71351  1.0000
  C   C1582     1.0  0.62081  0.95073  0.60783  1.0000
  H   H2793     1.0  0.79681  0.85648  0.51682  1.0000
  C   C1583     1.0  0.63506  0.00147  0.56723  1.0000
  H   H2794     1.0  0.98359  0.71148  0.57780  1.0000
  H   H2795     1.0  0.87950  0.88450  0.59482  1.0000
  C   C1584     1.0  0.59863  0.94659  0.62137  1.0000
  H   H2796     1.0  0.97356  0.74444  0.68662  1.0000
  H   H2797     1.0  0.83311  0.93042  0.54043  1.0000
  H   H2798     1.0  0.65718  0.94711  0.57479  1.0000
  H   H2799     1.0  0.72100  0.80744  0.54718  1.0000
  H   H2800     1.0  0.84497  0.88822  0.54129  1.0000
  H   H2801     1.0  0.66858  0.84926  0.73872  1.0000
  H   H2802     1.0  0.65988  0.77666  0.73672  1.0000
  H   H2803     1.0  0.96159  0.77336  0.68721  1.0000
  H   H2804     1.0  0.69789  0.87457  0.50666  1.0000
  C   C1585     1.0  0.90922  0.86694  0.70071  1.0000
  H   H2805     1.0  0.65227  0.93980  0.70976  1.0000
  H   H2806     1.0  0.98809  0.75392  0.64532  1.0000
  H   H2807     1.0  0.63537  0.95006  0.62006  1.0000
  H   H2808     1.0  0.62271  0.93617  0.59559  1.0000
  C   C1586     1.0  0.65483  0.86148  0.73542  1.0000
  C   C1587     1.0  0.73995  0.81666  0.51608  1.0000
  H   H2809     1.0  0.60598  0.84500  0.65652  1.0000
  H   H2810     1.0  0.97859  0.71636  0.60729  1.0000
  C   C1588     1.0  0.89707  0.63271  0.59645  1.0000
  H   H2811     1.0  0.75732  0.82347  0.51224  1.0000
  H   H2812     1.0  0.55791  0.83590  0.72109  1.0000
  H   H2813     1.0  0.96243  0.83847  0.67708  1.0000
  H   H2814     1.0  0.98523  0.75103  0.56343  1.0000
  H   H2815     1.0  0.83556  0.86170  0.65943  1.0000
  H   H2816     1.0  0.64906  0.82708  0.69936  1.0000
  H   H2817     1.0  0.59994  0.92987  0.63054  1.0000
  H   H2818     1.0  0.59576  0.96043  0.63432  1.0000
  H   H2819     1.0  0.58360  0.94590  0.60954  1.0000
  C   C1589     1.0  0.80957  0.90232  0.51302  1.0000
  H   H2820     1.0  0.66499  0.96898  0.60747  1.0000
  H   H2821     1.0  0.91700  0.88588  0.63198  1.0000
  C   C1590     1.0  0.00008  0.55825  0.69132  1.0000
  H   H2822     1.0  0.89265  0.80062  0.67492  1.0000
  N   N87       1.0  0.84468  0.59176  0.60663  1.0000
  C   C1591     1.0  0.83277  0.59480  0.58367  1.0000
  C   C1592     1.0  0.85505  0.56773  0.60861  1.0000
  C   C1593     1.0  0.82643  0.59437  0.62505  1.0000
  C   C1594     1.0  0.86284  0.60982  0.61073  1.0000
  H   H2823     1.0  0.89222  0.53669  0.60064  1.0000
  C   C1595     1.0  0.82142  0.61869  0.57926  1.0000
  C   C1596     1.0  0.83483  0.59122  0.65017  1.0000
  C   C1597     1.0  0.86339  0.55589  0.58602  1.0000
  C   C1598     1.0  0.87613  0.53333  0.59089  1.0000
  C   C1599     1.0  0.81236  0.62037  0.55459  1.0000
  C   C1600     1.0  0.81460  0.58980  0.66695  1.0000
  H   H2824     1.0  0.81912  0.58149  0.58164  1.0000
  H   H2825     1.0  0.84482  0.59175  0.56915  1.0000
  H   H2826     1.0  0.86977  0.56766  0.62099  1.0000
  H   H2827     1.0  0.84234  0.55549  0.61612  1.0000
  H   H2828     1.0  0.81213  0.58199  0.62186  1.0000
  H   H2829     1.0  0.81856  0.61187  0.62470  1.0000
  H   H2830     1.0  0.85474  0.62706  0.61349  1.0000
  H   H2831     1.0  0.87222  0.60635  0.62711  1.0000
  H   H2832     1.0  0.97929  0.50750  0.65870  1.0000
  H   H2833     1.0  0.80648  0.62160  0.59086  1.0000
  H   H2834     1.0  0.83391  0.63287  0.58176  1.0000
  H   H2835     1.0  0.84531  0.60632  0.65534  1.0000
  H   H2836     1.0  0.84530  0.57535  0.65220  1.0000
  H   H2837     1.0  0.84833  0.55160  0.57502  1.0000
  H   H2838     1.0  0.87509  0.56703  0.57602  1.0000
  H   H2839     1.0  0.82791  0.90599  0.50850  1.0000
  N   N88       1.0  0.99277  0.54392  0.62544  1.0000
  C   C1601     1.0  0.66669  0.94286  0.53050  1.0000
  H   H2840     1.0  0.90253  0.86014  0.62236  1.0000
  H   H2841     1.0  0.64843  0.92191  0.74895  1.0000
  H   H2842     1.0  0.82671  0.61864  0.54202  1.0000
  H   H2843     1.0  0.79940  0.60675  0.55121  1.0000
  H   H2844     1.0  0.80399  0.63744  0.55201  1.0000
  H   H2845     1.0  0.80377  0.60562  0.66597  1.0000
  H   H2846     1.0  0.80389  0.57446  0.66312  1.0000
  H   H2847     1.0  0.82130  0.58822  0.68481  1.0000
  C   C1602     1.0  0.66123  0.78972  0.72285  1.0000
  C   C1603     1.0  0.83769  0.87821  0.66878  1.0000
  C   C1604     1.0  0.73807  0.81451  0.54227  1.0000
  H   H2848     1.0  0.87948  0.90257  0.64563  1.0000
  H   H2849     1.0  0.90637  0.63074  0.61304  1.0000
  C   C1605     1.0  0.97757  0.66466  0.58592  1.0000
  C   C1606     1.0  0.82847  0.89376  0.54963  1.0000
  H   H2850     1.0  0.97083  0.63155  0.60231  1.0000
  H   H2851     1.0  0.67320  0.78303  0.70942  1.0000
  C   C1607     1.0  0.93128  0.87696  0.71101  1.0000
  H   H2852     1.0  0.58704  0.86347  0.68657  1.0000
  H   H2853     1.0  0.89508  0.87036  0.71310  1.0000
  H   H2854     1.0  0.64955  0.80391  0.67940  1.0000
  H   H2855     1.0  0.88527  0.85346  0.52477  1.0000
  C   C1608     1.0  0.94589  0.75050  0.66304  1.0000
  H   H2856     1.0  0.97809  0.57288  0.66553  1.0000
  S   S360      1.0  0.65295  0.81720  0.50383  1.0000
  H   H2857     1.0  0.75166  0.80262  0.54872  1.0000
  H   H2858     1.0  0.91205  0.84808  0.69899  1.0000
  H   H2859     1.0  0.67340  0.97668  0.54383  1.0000
  H   H2860     1.0  0.97761  0.78247  0.65016  1.0000
  H   H2861     1.0  0.94900  0.65335  0.60747  1.0000
  C   C1609     1.0  0.63881  0.81226  0.69295  1.0000
  N   N89       1.0  0.80829  0.88753  0.53443  1.0000
  C   C1610     1.0  0.63606  0.98924  0.65623  1.0000
  H   H2862     1.0  0.65200  0.93100  0.52756  1.0000
  H   H2863     1.0  0.81534  0.92599  0.56545  1.0000
  C   C1611     1.0  0.63738  0.79445  0.71266  1.0000
  H   H2864     1.0  0.65540  0.97049  0.70733  1.0000
  H   H2865     1.0  0.93833  0.76450  0.65236  1.0000
  C   C1612     1.0  0.85947  0.52077  0.74014  1.0000
  H   H2866     1.0  0.74035  0.83154  0.55075  1.0000
  H   H2867     1.0  0.80148  0.91950  0.51628  1.0000
  H   H2868     1.0  0.97501  0.57639  0.62164  1.0000
  H   H2869     1.0  0.99381  0.80717  0.74253  1.0000
  C   C1613     1.0  0.97096  0.55769  0.62140  1.0000
  H   H2870     1.0  0.62962  0.85436  0.67347  1.0000
  H   H2871     1.0  0.96681  0.67847  0.57828  1.0000
  C   C1614     1.0  0.72132  0.83328  0.50667  1.0000
  H   H2872     1.0  0.86764  0.91759  0.56314  1.0000
  C   C1615     1.0  0.65841  0.96516  0.54204  1.0000
  C   C1616     1.0  0.60263  0.83266  0.70193  1.0000
  H   H2873     1.0  0.92936  0.89581  0.71389  1.0000
  C   C1617     1.0  0.83076  0.91967  0.55601  1.0000
  C   C1618     1.0  0.61928  0.88018  0.74773  1.0000
  C   C1619     1.0  0.57706  0.76657  0.67412  1.0000
  H   H2874     1.0  0.56422  0.75761  0.68504  1.0000
  H   H2875     1.0  0.57162  0.83742  0.68025  1.0000
  H   H2876     1.0  0.82688  0.85963  0.51804  1.0000
  H   H2877     1.0  0.69914  0.99452  0.72767  1.0000
  C   C1620     1.0  0.99698  0.81138  0.72417  1.0000
  C   C1621     1.0  0.85153  0.92363  0.57165  1.0000
  H   H2878     1.0  0.97329  0.54306  0.67099  1.0000
  H   H2879     1.0  0.84924  0.91440  0.58822  1.0000
  H   H2880     1.0  0.57058  0.79894  0.69074  1.0000
  H   H2881     1.0  0.83279  0.51599  0.66841  1.0000
  H   H2882     1.0  0.61384  0.84480  0.71157  1.0000
  H   H2883     1.0  0.60050  0.99982  0.65221  1.0000
  H   H2884     1.0  0.94624  0.87377  0.69942  1.0000
  H   H2885     1.0  0.59685  0.82028  0.71517  1.0000
  H   H2886     1.0  0.73825  0.79910  0.50875  1.0000
  H   H2887     1.0  0.61689  0.98750  0.60880  1.0000
  H   H2888     1.0  0.99262  0.80603  0.67883  1.0000
  H   H2889     1.0  0.92499  0.51672  0.75018  1.0000
  C   C1622     1.0  0.68373  0.99258  0.58656  1.0000
  H   H2890     1.0  0.98845  0.65656  0.57237  1.0000
  H   H2891     1.0  0.62944  0.86202  0.50533  1.0000
  H   H2892     1.0  0.00069  0.79121  0.62133  1.0000
  H   H2893     1.0  0.65947  0.97405  0.74977  1.0000
  H   H2894     1.0  0.57403  0.86170  0.72754  1.0000
  C   C1623     1.0  0.98861  0.51831  0.62391  1.0000
  H   H2895     1.0  0.98294  0.51352  0.60622  1.0000
  H   H2896     1.0  0.00153  0.68542  0.55225  1.0000
  H   H2897     1.0  0.93496  0.86865  0.72782  1.0000
  H   H2898     1.0  0.65565  0.99761  0.61080  1.0000
  H   H2899     1.0  0.55033  0.86281  0.70757  1.0000
  C   C1624     1.0  0.87578  0.85298  0.50875  1.0000
  H   H2900     1.0  0.63236  0.96141  0.74133  1.0000
  H   H2901     1.0  0.84289  0.52194  0.74966  1.0000
  H   H2902     1.0  0.87401  0.52108  0.75253  1.0000
  C   C1625     1.0  0.63733  0.86473  0.75198  1.0000
  Fe  Fe181     1.0  0.59388  0.86909  0.80362  1.0000
  S   S361      1.0  0.62218  0.86829  0.82996  1.0000
  S   S362      1.0  0.59651  0.88450  0.76761  1.0000
  Fe  Fe182     1.0  0.55682  0.85370  0.83926  1.0000
  S   S363      1.0  0.58277  0.85176  0.86793  1.0000
  H   H2903     1.0  0.79404  0.55110  0.82394  1.0000
  Fe  Fe183     1.0  0.59673  0.88536  0.85391  1.0000
  S   S364      1.0  0.59906  0.91849  0.87513  1.0000
  Fe  Fe184     1.0  0.60583  0.83476  0.84146  1.0000
  S   S365      1.0  0.62763  0.80204  0.84436  1.0000
  S   S366      1.0  0.56934  0.88801  0.82692  1.0000
  S   S367      1.0  0.57899  0.83480  0.81339  1.0000
  Fe  Fe185     1.0  0.62798  0.68331  0.92008  1.0000
  S   S368      1.0  0.62220  0.65389  0.89528  1.0000
  S   S369      1.0  0.61500  0.72048  0.91678  1.0000
  Fe  Fe186     1.0  0.63870  0.65000  0.96058  1.0000
  S   S370      1.0  0.63334  0.61868  0.93860  1.0000
  H   H2904     1.0  0.64695  0.60176  0.99245  1.0000
  Fe  Fe187     1.0  0.65398  0.63786  0.91197  1.0000
  S   S371      1.0  0.67983  0.61618  0.89115  1.0000
  Fe  Fe188     1.0  0.60230  0.63705  0.92372  1.0000
  S   S372      1.0  0.56547  0.62312  0.92409  1.0000
  S   S373      1.0  0.66103  0.66859  0.93490  1.0000
  S   S374      1.0  0.60654  0.66694  0.94765  1.0000
  Fe  Fe189     1.0  0.86560  0.57104  0.87961  1.0000
  S   S375      1.0  0.83159  0.55759  0.86786  1.0000
  S   S376      1.0  0.89130  0.58628  0.85433  1.0000
  Fe  Fe190     1.0  0.85621  0.55799  0.93033  1.0000
  S   S377      1.0  0.82169  0.54293  0.92124  1.0000
  S   S378      1.0  0.86620  0.55495  0.96815  1.0000
  Fe  Fe191     1.0  0.84020  0.52733  0.89065  1.0000
  H   H2905     1.0  0.55963  0.98634  0.88055  1.0000
  Fe  Fe192     1.0  0.81659  0.57463  0.89959  1.0000
  S   S379      1.0  0.78840  0.60210  0.90449  1.0000
  S   S380      1.0  0.87485  0.54023  0.90120  1.0000
  S   S381      1.0  0.85062  0.59019  0.91000  1.0000
  C   C1626     1.0  0.88526  0.58329  0.77525  1.0000
  C   C1627     1.0  0.90445  0.59326  0.78578  1.0000
  C   C1628     1.0  0.90604  0.59400  0.81001  1.0000
  C   C1629     1.0  0.88855  0.58478  0.82393  1.0000
  C   C1630     1.0  0.86948  0.57458  0.81336  1.0000
  C   C1631     1.0  0.86787  0.57387  0.78916  1.0000
  H   H2906     1.0  0.91797  0.60054  0.77528  1.0000
  H   H2907     1.0  0.92088  0.60191  0.81803  1.0000
  H   H2908     1.0  0.85596  0.56730  0.82379  1.0000
  H   H2909     1.0  0.85302  0.56603  0.78113  1.0000
  C   C1632     1.0  0.70977  0.61178  0.89632  1.0000
  C   C1633     1.0  0.72298  0.62762  0.90875  1.0000
  C   C1634     1.0  0.74699  0.62430  0.91099  1.0000
  C   C1635     1.0  0.75802  0.60481  0.90145  1.0000
  C   C1636     1.0  0.74480  0.58877  0.88932  1.0000
  C   C1637     1.0  0.72088  0.59242  0.88654  1.0000
  H   H2910     1.0  0.71477  0.64272  0.91612  1.0000
  H   H2911     1.0  0.75705  0.63692  0.92027  1.0000
  H   H2912     1.0  0.75300  0.57375  0.88182  1.0000
  H   H2913     1.0  0.71085  0.58014  0.87676  1.0000
  H   H2914     1.0  0.52126  0.94790  0.91820  1.0000
  C   C1638     1.0  0.52227  0.61987  0.90475  1.0000
  C   C1639     1.0  0.54577  0.62424  0.90069  1.0000
  C   C1640     1.0  0.55295  0.62915  0.87827  1.0000
  C   C1641     1.0  0.53682  0.62950  0.86012  1.0000
  H   H2915     1.0  0.51654  0.61602  0.92202  1.0000
  H   H2916     1.0  0.57100  0.63224  0.87484  1.0000
  H   H2917     1.0  0.69660  0.87148  0.79546  1.0000
  H   H2918     1.0  0.92214  0.55074  0.87582  1.0000
  H   H2919     1.0  0.54261  0.63292  0.84276  1.0000
  C   C1642     1.0  0.62354  0.77930  0.86431  1.0000
  C   C1643     1.0  0.60847  0.78146  0.88300  1.0000
  C   C1644     1.0  0.60644  0.76337  0.89897  1.0000
  C   C1645     1.0  0.61899  0.74272  0.89624  1.0000
  C   C1646     1.0  0.63392  0.74045  0.87745  1.0000
  C   C1647     1.0  0.63623  0.75870  0.86163  1.0000
  H   H2920     1.0  0.59881  0.79728  0.88544  1.0000
  H   H2921     1.0  0.59525  0.76547  0.91372  1.0000
  H   H2922     1.0  0.64397  0.72484  0.87531  1.0000
  H   H2923     1.0  0.64807  0.75694  0.84733  1.0000
  H   H2924     1.0  0.65497  0.97440  0.78793  1.0000
  S   S382      1.0  0.67423  0.99846  0.87063  1.0000
  H   H2925     1.0  0.93846  0.52253  0.83215  1.0000
  H   H2926     1.0  0.63767  0.85507  0.76789  1.0000
  H   H2927     1.0  0.72579  0.61816  0.96276  1.0000
  C   C1648     1.0  0.61994  0.94067  0.87290  1.0000
  C   C1649     1.0  0.61528  0.96224  0.88308  1.0000
  C   C1650     1.0  0.63157  0.98017  0.88234  1.0000
  C   C1651     1.0  0.65291  0.97660  0.87166  1.0000
  C   C1652     1.0  0.65761  0.95500  0.86151  1.0000
  C   C1653     1.0  0.64119  0.93716  0.86200  1.0000
  H   H2928     1.0  0.59904  0.96510  0.89177  1.0000
  C   C1654     1.0  0.52332  0.90726  0.87406  1.0000
  H   H2929     1.0  0.67421  0.95195  0.85353  1.0000
  H   H2930     1.0  0.64519  0.92051  0.85455  1.0000
  C   C1655     1.0  0.88046  0.59950  0.97758  1.0000
  C   C1656     1.0  0.87187  0.57884  0.98628  1.0000
  C   C1657     1.0  0.93031  0.53347  0.87744  1.0000
  H   H2931     1.0  0.88342  0.60125  0.95927  1.0000
  H   H2932     1.0  0.81854  0.63573  0.76099  1.0000
  N   N90       1.0  0.80161  0.62238  0.83062  1.0000
  C   C1658     1.0  0.80112  0.62606  0.80487  1.0000
  C   C1659     1.0  0.78300  0.63658  0.84241  1.0000
  C   C1660     1.0  0.82477  0.63067  0.83921  1.0000
  C   C1661     1.0  0.79941  0.59730  0.83684  1.0000
  C   C1662     1.0  0.77755  0.58479  0.82831  1.0000
  C   C1663     1.0  0.82801  0.63130  0.86575  1.0000
  C   C1664     1.0  0.75992  0.64015  0.82929  1.0000
  C   C1665     1.0  0.74121  0.64976  0.84527  1.0000
  C   C1666     1.0  0.77907  0.55893  0.83308  1.0000
  C   C1667     1.0  0.85137  0.64152  0.87219  1.0000
  H   H2933     1.0  0.80300  0.64478  0.80108  1.0000
  H   H2934     1.0  0.69533  0.95514  0.77878  1.0000
  H   H2935     1.0  0.77897  0.62920  0.85966  1.0000
  H   H2936     1.0  0.78925  0.65438  0.84597  1.0000
  H   H2937     1.0  0.82826  0.64832  0.83259  1.0000
  H   H2938     1.0  0.83896  0.61944  0.83263  1.0000
  H   H2939     1.0  0.81481  0.58746  0.83087  1.0000
  H   H2940     1.0  0.79927  0.59529  0.85585  1.0000
  H   H2941     1.0  0.77492  0.58692  0.80955  1.0000
  H   H2942     1.0  0.76224  0.59137  0.83780  1.0000
  H   H2943     1.0  0.82749  0.61363  0.87278  1.0000
  H   H2944     1.0  0.81454  0.64178  0.87448  1.0000
  H   H2945     1.0  0.76246  0.65271  0.81511  1.0000
  H   H2946     1.0  0.75330  0.62407  0.82159  1.0000
  H   H2947     1.0  0.73724  0.63719  0.85908  1.0000
  H   H2948     1.0  0.74677  0.66624  0.85326  1.0000
  H   H2949     1.0  0.72515  0.65298  0.83535  1.0000
  H   H2950     1.0  0.66617  0.86866  0.80062  1.0000
  H   H2951     1.0  0.54852  0.60982  0.97116  1.0000
  H   H2952     1.0  0.78079  0.55573  0.85186  1.0000
  H   H2953     1.0  0.85271  0.65954  0.86599  1.0000
  H   H2954     1.0  0.85335  0.64156  0.89122  1.0000
  H   H2955     1.0  0.86562  0.63106  0.86466  1.0000
  N   N91       1.0  0.79411  0.58318  0.99179  1.0000
  C   C1668     1.0  0.77296  0.58303  0.97667  1.0000
  C   C1669     1.0  0.80860  0.56239  0.98577  1.0000
  H   H2956     1.0  0.90215  0.53654  0.79569  1.0000
  C   C1670     1.0  0.80829  0.60457  0.98812  1.0000
  C   C1671     1.0  0.81683  0.60863  0.96319  1.0000
  C   C1672     1.0  0.70641  0.65058  0.00113  1.0000
  C   C1673     1.0  0.57980  0.62738  0.99862  1.0000
  H   H2957     1.0  0.62293  0.57140  0.96711  1.0000
  H   H2958     1.0  0.54363  0.56641  0.98372  1.0000
  C   C1674     1.0  0.82770  0.63240  0.96070  1.0000
  S   S383      1.0  0.51782  0.84800  0.84076  1.0000
  C   C1675     1.0  0.93442  0.52875  0.76169  1.0000
  H   H2959     1.0  0.77760  0.57916  0.95841  1.0000
  C   C1676     1.0  0.53263  0.58112  0.98916  1.0000
  H   H2960     1.0  0.69345  0.94360  0.80769  1.0000
  H   H2961     1.0  0.83738  0.61852  0.79534  1.0000
  H   H2962     1.0  0.52628  0.73740  0.90842  1.0000
  C   C1677     1.0  0.50524  0.90817  0.83395  1.0000
  H   H2963     1.0  0.57918  0.56828  0.99875  1.0000
  H   H2964     1.0  0.80260  0.60752  0.95064  1.0000
  H   H2965     1.0  0.83013  0.59563  0.95845  1.0000
  N   N92       1.0  0.55023  0.70764  0.87627  1.0000
  C   C1678     1.0  0.50846  0.83974  0.88701  1.0000
  H   H2966     1.0  0.52135  0.74843  0.87985  1.0000
  H   H2967     1.0  0.53578  0.67588  0.88910  1.0000
  C   C1679     1.0  0.81975  0.61284  0.79071  1.0000
  H   H2968     1.0  0.92625  0.54611  0.76066  1.0000
  H   H2969     1.0  0.50889  0.95020  0.89071  1.0000
  C   C1680     1.0  0.51328  0.62535  0.86417  1.0000
  H   H2970     1.0  0.51834  0.58496  0.95465  1.0000
  H   H2971     1.0  0.84220  0.63449  0.97300  1.0000
  H   H2972     1.0  0.83448  0.63439  0.94293  1.0000
  H   H2973     1.0  0.81466  0.64614  0.96386  1.0000
  H   H2974     1.0  0.52641  0.78014  0.90686  1.0000
  C   C1681     1.0  0.86278  0.50772  0.80699  1.0000
  H   H2975     1.0  0.94884  0.53474  0.87282  1.0000
  C   C1682     1.0  0.68747  0.95751  0.79602  1.0000
  H   H2976     1.0  0.51943  0.69087  0.93958  1.0000
  H   H2977     1.0  0.55055  0.77938  0.88731  1.0000
  C   C1683     1.0  0.58774  0.58490  0.96651  1.0000
  C   C1684     1.0  0.60853  0.69151  0.84594  1.0000
  H   H2978     1.0  0.87699  0.52610  0.83551  1.0000
  H   H2979     1.0  0.91431  0.54146  0.83486  1.0000
  H   H2980     1.0  0.51899  0.67478  0.85501  1.0000
  H   H2981     1.0  0.81850  0.59400  0.79348  1.0000
  H   H2982     1.0  0.61986  0.69292  0.86127  1.0000
  H   H2983     1.0  0.78267  0.53589  0.97842  1.0000
  C   C1685     1.0  0.54293  0.97894  0.88616  1.0000
  H   H2984     1.0  0.76726  0.61920  0.96703  1.0000
  C   C1686     1.0  0.50607  0.62056  0.88663  1.0000
  C   C1687     1.0  0.51511  0.68942  0.82158  1.0000
  C   C1688     1.0  0.52349  0.94215  0.89999  1.0000
  C   C1689     1.0  0.54351  0.90712  0.91143  1.0000
  H   H2985     1.0  0.79991  0.61082  0.75882  1.0000
  H   H2986     1.0  0.78426  0.62121  0.79741  1.0000
  C   C1690     1.0  0.54609  0.95326  0.89104  1.0000
  C   C1691     1.0  0.54570  0.88058  0.91351  1.0000
  C   C1692     1.0  0.81692  0.61708  0.76491  1.0000
  H   H2987     1.0  0.52017  0.70074  0.89735  1.0000
  H   H2988     1.0  0.82413  0.60406  0.99890  1.0000
  H   H2989     1.0  0.69999  0.66750  0.99482  1.0000
  C   C1693     1.0  0.56880  0.87372  0.92424  1.0000
  C   C1694     1.0  0.81477  0.51910  0.98613  1.0000
  H   H2990     1.0  0.51799  0.71665  0.86006  1.0000
  H   H2991     1.0  0.67552  0.93366  0.75559  1.0000
  C   C1695     1.0  0.55038  0.69284  0.91836  1.0000
  H   H2992     1.0  0.54409  0.91448  0.92919  1.0000
  H   H2993     1.0  0.55962  0.91272  0.90286  1.0000
  H   H2994     1.0  0.54145  0.90503  0.86802  1.0000
  H   H2995     1.0  0.56669  0.68287  0.91677  1.0000
  N   N93       1.0  0.56866  0.60415  0.00207  1.0000
  H   H2996     1.0  0.52480  0.69988  0.80890  1.0000
  H   H2997     1.0  0.55983  0.95157  0.90427  1.0000
  H   H2998     1.0  0.55238  0.94474  0.87508  1.0000
  H   H2999     1.0  0.54466  0.87244  0.89628  1.0000
  H   H3000     1.0  0.53204  0.87343  0.92473  1.0000
  H   H3001     1.0  0.61792  0.69863  0.83091  1.0000
  C   C1696     1.0  0.75826  0.60545  0.97671  1.0000
  H   H3002     1.0  0.57598  0.70370  0.83370  1.0000
  H   H3003     1.0  0.61497  0.92980  0.77126  1.0000
  H   H3004     1.0  0.54522  0.67631  0.83842  1.0000
  C   C1697     1.0  0.54180  0.76999  0.90146  1.0000
  H   H3005     1.0  0.57007  0.67683  0.86816  1.0000
  H   H3006     1.0  0.51125  0.67241  0.81363  1.0000
  H   H3007     1.0  0.51600  0.88960  0.87335  1.0000
  H   H3008     1.0  0.73719  0.59333  0.94795  1.0000
  H   H3009     1.0  0.52250  0.93652  0.85016  1.0000
  H   H3010     1.0  0.57030  0.88086  0.94195  1.0000
  H   H3011     1.0  0.57011  0.85464  0.92517  1.0000
  H   H3012     1.0  0.58337  0.88010  0.91364  1.0000
  C   C1698     1.0  0.53490  0.70902  0.85535  1.0000
  H   H3013     1.0  0.52094  0.90004  0.82659  1.0000
  C   C1699     1.0  0.65677  0.93695  0.75739  1.0000
  C   C1700     1.0  0.91818  0.51597  0.86198  1.0000
  C   C1701     1.0  0.60594  0.56709  0.95945  1.0000
  C   C1702     1.0  0.51107  0.92221  0.85545  1.0000
  H   H3014     1.0  0.60220  0.58789  0.00040  1.0000
  H   H3015     1.0  0.81320  0.56254  0.96720  1.0000
  C   C1703     1.0  0.53801  0.69410  0.89470  1.0000
  H   H3016     1.0  0.57978  0.63203  0.98002  1.0000
  H   H3017     1.0  0.56288  0.74209  0.86999  1.0000
  H   H3018     1.0  0.61941  0.95960  0.77678  1.0000
  H   H3019     1.0  0.95245  0.53011  0.75543  1.0000
  H   H3020     1.0  0.56895  0.73175  0.89777  1.0000
  H   H3021     1.0  0.57145  0.58026  0.95770  1.0000
  H   H3022     1.0  0.54513  0.67906  0.95260  1.0000
  C   C1704     1.0  0.57272  0.69564  0.87077  1.0000
  H   H3023     1.0  0.53070  0.66323  0.93023  1.0000
  H   H3024     1.0  0.82535  0.56305  0.99487  1.0000
  H   H3025     1.0  0.60079  0.54958  0.96503  1.0000
  C   C1705     1.0  0.55536  0.73186  0.88428  1.0000
  C   C1706     1.0  0.53446  0.74599  0.89351  1.0000
  H   H3026     1.0  0.57520  0.67465  0.98664  1.0000
  C   C1707     1.0  0.90933  0.51866  0.79589  1.0000
  H   H3027     1.0  0.71558  0.97911  0.80778  1.0000
  H   H3028     1.0  0.55367  0.76868  0.91641  1.0000
  H   H3029     1.0  0.53715  0.98819  0.90194  1.0000
  H   H3030     1.0  0.67409  0.89511  0.76827  1.0000
  H   H3031     1.0  0.90003  0.51463  0.86762  1.0000
  H   H3032     1.0  0.55444  0.71016  0.92530  1.0000
  C   C1708     1.0  0.53540  0.68076  0.93623  1.0000
  H   H3033     1.0  0.89944  0.50896  0.78281  1.0000
  H   H3034     1.0  0.82968  0.52073  0.99802  1.0000
  C   C1709     1.0  0.52934  0.68578  0.84341  1.0000
  C   C1710     1.0  0.66085  0.95765  0.79506  1.0000
  N   N94       1.0  0.52270  0.91618  0.89856  1.0000
  H   H3035     1.0  0.94472  0.53233  0.79677  1.0000
  C   C1711     1.0  0.79743  0.53861  0.99027  1.0000
  H   H3036     1.0  0.89334  0.63333  0.98589  1.0000
  C   C1712     1.0  0.91977  0.52304  0.83628  1.0000
  H   H3037     1.0  0.59095  0.72337  0.85246  1.0000
  H   H3038     1.0  0.59326  0.60189  0.96011  1.0000
  H   H3039     1.0  0.92899  0.52798  0.89570  1.0000
  H   H3040     1.0  0.54224  0.72097  0.84234  1.0000
  H   H3041     1.0  0.72398  0.59015  0.97594  1.0000
  H   H3042     1.0  0.76311  0.55039  0.82698  1.0000
  C   C1713     1.0  0.93432  0.52002  0.78654  1.0000
  C   C1714     1.0  0.69656  0.98018  0.80585  1.0000
  H   H3043     1.0  0.57819  0.94227  0.82273  1.0000
  N   N95       1.0  0.64957  0.93799  0.78240  1.0000
  H   H3044     1.0  0.60779  0.56704  0.94040  1.0000
  C   C1715     1.0  0.65458  0.91516  0.79400  1.0000
  C   C1716     1.0  0.62380  0.94205  0.78311  1.0000
  C   C1717     1.0  0.58621  0.70507  0.84976  1.0000
  H   H3045     1.0  0.69242  0.99473  0.79419  1.0000
  H   H3046     1.0  0.60481  0.67305  0.84255  1.0000
  C   C1718     1.0  0.61207  0.94000  0.80714  1.0000
  C   C1719     1.0  0.67644  0.90165  0.78611  1.0000
  C   C1720     1.0  0.68090  0.88077  0.80146  1.0000
  H   H3047     1.0  0.58463  0.69676  0.88573  1.0000
  H   H3048     1.0  0.76137  0.56871  0.98178  1.0000
  C   C1721     1.0  0.58606  0.94385  0.80535  1.0000
  C   C1722     1.0  0.88604  0.61765  0.99270  1.0000
  C   C1723     1.0  0.54600  0.60420  0.98933  1.0000
  H   H3049     1.0  0.65550  0.91751  0.81303  1.0000
  H   H3050     1.0  0.64013  0.90292  0.79096  1.0000
  H   H3051     1.0  0.68358  0.88622  0.81962  1.0000
  H   H3052     1.0  0.57822  0.93071  0.79385  1.0000
  C   C1724     1.0  0.51220  0.58226  0.97258  1.0000
  H   H3053     1.0  0.65517  0.95804  0.81332  1.0000
  H   H3054     1.0  0.53013  0.98160  0.87219  1.0000
  H   H3055     1.0  0.52677  0.83701  0.88921  1.0000
  H   H3056     1.0  0.58218  0.96133  0.79862  1.0000
  C   C1725     1.0  0.73492  0.60147  0.96516  1.0000
  H   H3057     1.0  0.61874  0.95309  0.81932  1.0000
  H   H3058     1.0  0.61479  0.92270  0.81478  1.0000
  H   H3059     1.0  0.69208  0.91240  0.78626  1.0000
  N   N96       1.0  0.90621  0.50841  0.81956  1.0000
  H   H3060     1.0  0.72423  0.64792  0.99464  1.0000
  H   H3061     1.0  0.53403  0.61722  0.99682  1.0000
  H   H3062     1.0  0.68898  0.98370  0.82311  1.0000
  S   S384      1.0  0.64490  0.65166  0.99939  1.0000
  C   C1726     1.0  0.83845  0.50493  0.81652  1.0000
  H   H3063     1.0  0.93783  0.57530  0.99235  1.0000
  H   H3064     1.0  0.83429  0.51894  0.82896  1.0000
  H   H3065     1.0  0.86287  0.52376  0.79661  1.0000
  H   H3066     1.0  0.82122  0.51942  0.96812  1.0000
  H   H3067     1.0  0.62776  0.99663  0.89031  1.0000
  C   C1727     1.0  0.58468  0.58567  0.99298  1.0000
  C   C1728     1.0  0.88101  0.50949  0.82656  1.0000
  H   H3068     1.0  0.75497  0.61182  0.99440  1.0000
  H   H3069     1.0  0.79866  0.62017  0.99399  1.0000
  H   H3070     1.0  0.82575  0.50557  0.80224  1.0000
  H   H3071     1.0  0.69504  0.63694  0.99405  1.0000
  H   H3072     1.0  0.83065  0.60762  0.75534  1.0000
