data_image0
_chemical_formula_structural       FeSCFeS2FeSFeS3FeS2FeS2FeCFeS3CHC2HCH3CHCHC2HCHCH2C6H7CHNCHC3H4CH5C2H3C3H4CH3C2H4C2HCH2CH2CHNHCH2NH4CHCH4CH2CHCH5NCH6CH2CHCH6C2H10CH4CH2CHSH6C2HCH6CH2CH6CHCFeS2FeS2FeSFeS3FeS2FeS2FeHFeS3FeS2FeSHFeSFeS3FeS2FeS2FeSFeS3HC2H2CH2CHC6H9CHC8HCH3C7H5C6H5C2H3C2H2CH3NC12H28NC12H28CH7CH2C2HNH4CHCHCHC2HCH2CH2C2HCH2CH2CH7CH4CNHCHC2HCHC2HC2H9C2H2CH6SH3CH3CH2CNCHCH9C2H7CH2C2H4CHC2HCH3C4HC2HCH4CH6CHCH3C5HNH5CH3CH3CHC2H2CFeS2FeS2FeSFeS3FeS2FeSCFeSFeS3CH4CHCH2CHCHCHC3H2C6H4C6HCH2C6H4C2H2C2HNHC6H6CHCH9C2H3CH4S2HCHCHC3H3C3H2CH2NH4CH2CH7CH3CH4C3HCH3NCH4CH2CH5C2HCHC4H9NCHC2HCH4CH7CHSH3C2H2CH4CH3CH2C2H2C3NH5C2H2C2H2CH11CH8SHFeS2FeS2FeSFeS3FeS2FeSCFeSFeS3C2SH2CHC2HC6H5CHCHCH2C7H4C6H2CH3NCH5C2H3C3H7NH2CHC4H2C3H4SH2C2HCHCHCH3C2HCH4CH2C2H2CH3CHCH2C2H2CH3CH8C3H4CH2CH2CH3CH2CH10CH5CHNH2CHNCH3CHCH9NC10H23CHC2H3C2HCH3C2H6CHC2H3CH2CFeS2FeS2FeSFeS3FeS2FeS2FeSFeS3FeS2FeS2FeSFeS3FeS2FeSHFeSFeS3C6H4C2H4C3HCH2C6H4C6H4C6H4CH3CHCH4CH4C2HCHC2H2CHCHNHCH4C2H2CH2C3H2CH11NC12H22CH5CH6C2H2CH2CH2CH3C2H2NH2CHCHCHNH2C2HNCH2CHCH6CH3CH3CH3C2HC2H2CHCH4C2H2CHCH4CH3CH2NC12H28NHC5NH3CH2CH2C2H5C2H2C2H5CH5C3HC3HC2HCH2C2HCHCH4CHCH2C3HCH10CFeS2FeS2FeSFeS2FeS2FeS2FeSFeS2C3H4C2H3CH3C7H5CH3C3H11CHC2H2C2HCHCH9CH2CHC2HCH4C2H3CHNH4CH3C3HCH3CHC5H7CHC3H2CHCH6NSH3C2NHC2H8CH5CHCH2CH2NH2C2H2CH2C2HFeSHFeS2FeSFeS3FeS2FeS2FeHFeS3C2HCH4C6H4C2H3C3H3CH2CH5CH4CHC4H9C2HCH3CH2CH2CHC2NC12H28C2H3CH2NC3HCH15CH2CH3CH5CH2CHFeS2FeS2FeSFeS3FeS2FeS2FeSFeCS2FeS2FeS2FeSFeHS2FeS2FeS2FeSFeS3C6H8CH3C2H2C3H3CH2C7H7C2H2C7H4CH5C6H4CHCH2CH7CH7CH2C4H4CHCH2CH6C3HC2HCHCH4CH2CHSHC4H4NC5HC5H8NH11CH4NC12H28NC2HC3H2C4H3CHCHCH7CHC2H3NH10CH5C2H2CH6CH2CH3CH3NC5H2CHCH8C2HCH3C2H7CHCHNC2H2CHC2NH5CHNH6C3HC2NHC2SC3H2CHCHCFeS2FeS2FeSFeS3FeS2FeS2FeSFeS3C2H3C3H2C6H4C3HC2H3C7H4C6H5CH11NC12H22C2H3C2HCHCHC4H2CHCH2CH2CH3NC8HC3H15CH2C2H15C2H4CHCH3CH4CHNH3CH4CHCH2CHC3H2NH4CHCH3CHNHCH4C3H2CHCHCH10C2H5NHCHC2H4CSH5C3H4SCSCFeS2FeS2FeSFeS3FeS2FeS2FeSFeS3C6H5CH3C2H3C3H7C6H4C6H4NC12H28CHCH2CHC2H2CH2NHC2H3CH4CHSH4CH7C2H2CH4C2H5CHC2HNH6C2H2CH4C3HC2HCHC4H7CHCHCH4CH2CHCNC2H4NCH3CH4CH7C3H2C2H3CHFeSHFeS2FeSFeS3FeS2FeS2FeSFeS3FeS2FeS2FeSFeS3FeSHFeS2FeSFeS3CH2CHC2H3C6H5C2H2SC3NH2C6H4C2H3C6H4C6H5CHC2HC2H2NC8H20CHC2H8C2H4CH10NC10H25CHNHNHC2HCH4C5HCH2CH2CH4CH2C2H6CHC3H5CHC2H4CH2C2H2C2HC2H2CH2CH2NC2H2CH3C2H4C2HCSCH6CH4NCH5C2HC2HCH12CH4C3H3CH2CH8C2HCH3C3HCH3CH2FeSFeS2FeSFeS3FeS2FeS2FeSFeS2H4C2H3CH4C2H3CH3C7H4C2H3CH2CH2NHCH3CH3CHCH7CHCHCH9CH4CHCHC2HC2HC2HCH3CH6C2HCH5CH2CHNH2CHCHCHCHCH2CH2CH2CHC2HCH3CHCH7C5H4CH8C4H9C2HCHCH3
_chemical_formula_sum              "Fe128 S256 C1152 H2048 N64"
_cell_length_a       41.7794
_cell_length_b       85.6483
_cell_length_c       41.537
_cell_angle_alpha    90.1019
_cell_angle_beta     90.5678
_cell_angle_gamma    90.1767

_space_group_name_H-M_alt    "P 1"
_space_group_IT_number       1

loop_
  _space_group_symop_operation_xyz
  'x, y, z'

loop_
  _atom_site_type_symbol
  _atom_site_label
  _atom_site_symmetry_multiplicity
  _atom_site_fract_x
  _atom_site_fract_y
  _atom_site_fract_z
  _atom_site_occupancy
  Fe  Fe1       1.0  0.32865  0.30853  0.08095  1.0000
  S   S1        1.0  0.35905  0.30514  0.12494  1.0000
  C   C1        1.0  0.46245  0.28272  0.00143  1.0000
  Fe  Fe2       1.0  0.33097  0.27408  0.06184  1.0000
  S   S2        1.0  0.36271  0.26844  0.10498  1.0000
  S   S3        1.0  0.31736  0.25353  0.02814  1.0000
  Fe  Fe3       1.0  0.32923  0.28369  0.13346  1.0000
  S   S4        1.0  0.31635  0.27639  0.18480  1.0000
  Fe  Fe4       1.0  0.39042  0.29028  0.09336  1.0000
  S   S5        1.0  0.44355  0.29710  0.09914  1.0000
  S   S6        1.0  0.29625  0.28803  0.09137  1.0000
  S   S7        1.0  0.36122  0.29502  0.04831  1.0000
  Fe  Fe5       1.0  0.18676  0.28287  0.32771  1.0000
  S   S8        1.0  0.22350  0.28563  0.36741  1.0000
  S   S9        1.0  0.19200  0.28239  0.27267  1.0000
  Fe  Fe6       1.0  0.12962  0.28854  0.37453  1.0000
  S   S10       1.0  0.16289  0.29191  0.41730  1.0000
  S   S11       1.0  0.07729  0.29673  0.37117  1.0000
  Fe  Fe7       1.0  0.19351  0.30604  0.38373  1.0000
  C   C2        1.0  0.37666  0.02253  0.24268  1.0000
  Fe  Fe8       1.0  0.19037  0.27109  0.39822  1.0000
  S   S12       1.0  0.20537  0.24949  0.42854  1.0000
  S   S13       1.0  0.15914  0.30397  0.34270  1.0000
  S   S14       1.0  0.15490  0.26697  0.35684  1.0000
  C   C3        1.0  0.03894  0.28786  0.37520  1.0000
  H   H1        1.0  0.34734  0.21597  0.10429  1.0000
  C   C4        1.0  0.03491  0.27272  0.38710  1.0000
  C   C5        1.0  0.04958  0.23283  0.20686  1.0000
  H   H2        1.0  0.05561  0.26611  0.39486  1.0000
  C   C6        1.0  0.23213  0.24460  0.46107  1.0000
  H   H3        1.0  0.43663  0.20785  0.41416  1.0000
  H   H4        1.0  0.37713  0.02480  0.21636  1.0000
  H   H5        1.0  0.37736  0.18921  0.43520  1.0000
  C   C7        1.0  0.48238  0.28888  0.09367  1.0000
  H   H6        1.0  0.03778  0.22128  0.20979  1.0000
  C   C8        1.0  0.34142  0.00133  0.47186  1.0000
  H   H7        1.0  0.46658  0.26665  0.07517  1.0000
  C   C9        1.0  0.33026  0.99820  0.44040  1.0000
  C   C10       1.0  0.48706  0.27388  0.08116  1.0000
  H   H8        1.0  0.28224  0.24200  0.07981  1.0000
  C   C11       1.0  0.08684  0.28441  0.28975  1.0000
  H   H9        1.0  0.22575  0.99985  0.17356  1.0000
  C   C12       1.0  0.23315  0.25735  0.11083  1.0000
  H   H10       1.0  0.27508  0.00007  0.27056  1.0000
  H   H11       1.0  0.31010  0.21989  0.41409  1.0000
  C   C13       1.0  0.28188  0.27926  0.20897  1.0000
  C   C14       1.0  0.28418  0.27652  0.24232  1.0000
  C   C15       1.0  0.25715  0.27775  0.26229  1.0000
  C   C16       1.0  0.22727  0.28148  0.24902  1.0000
  C   C17       1.0  0.22492  0.28420  0.21564  1.0000
  C   C18       1.0  0.25210  0.28327  0.19576  1.0000
  H   H12       1.0  0.30704  0.27330  0.25278  1.0000
  H   H13       1.0  0.25935  0.27548  0.28783  1.0000
  H   H14       1.0  0.20190  0.28701  0.20507  1.0000
  H   H15       1.0  0.24989  0.28533  0.17017  1.0000
  H   H16       1.0  0.24649  0.26744  0.12145  1.0000
  H   H17       1.0  0.24641  0.24808  0.22123  1.0000
  H   H18       1.0  0.33313  0.00417  0.20839  1.0000
  C   C19       1.0  0.06364  0.27315  0.27298  1.0000
  H   H19       1.0  0.20258  0.23597  0.16637  1.0000
  N   N1        1.0  0.01674  0.25404  0.28391  1.0000
  C   C20       1.0  0.22772  0.32597  0.18906  1.0000
  H   H20       1.0  0.06788  0.00321  0.00580  1.0000
  C   C21       1.0  0.02947  0.24151  0.26164  1.0000
  C   C22       1.0  0.25294  0.24211  0.15629  1.0000
  C   C23       1.0  0.28292  0.24224  0.10640  1.0000
  H   H21       1.0  0.21266  0.25616  0.17378  1.0000
  H   H22       1.0  0.07474  0.23211  0.21566  1.0000
  H   H23       1.0  0.10915  0.32128  0.29090  1.0000
  H   H24       1.0  0.42398  0.30584  0.01621  1.0000
  C   C24       1.0  0.30426  0.18028  0.46973  1.0000
  H   H25       1.0  0.34647  0.23589  0.09054  1.0000
  H   H26       1.0  0.35070  0.24209  0.40127  1.0000
  H   H27       1.0  0.31556  0.01381  0.24144  1.0000
  H   H28       1.0  0.27910  0.25024  0.40748  1.0000
  H   H29       1.0  0.26002  0.21485  0.07599  1.0000
  C   C25       1.0  0.33166  0.22531  0.09454  1.0000
  C   C26       1.0  0.30483  0.22874  0.11825  1.0000
  H   H30       1.0  0.29549  0.25337  0.11248  1.0000
  H   H31       1.0  0.07338  0.29386  0.30189  1.0000
  H   H32       1.0  0.23944  0.23039  0.05649  1.0000
  C   C27       1.0  0.42001  0.19771  0.41298  1.0000
  C   C28       1.0  0.30153  0.24867  0.39369  1.0000
  C   C29       1.0  0.21224  0.27625  0.06862  1.0000
  H   H33       1.0  0.20475  0.24311  0.22485  1.0000
  H   H34       1.0  0.26964  0.25154  0.16448  1.0000
  H   H35       1.0  0.20388  0.23119  0.10999  1.0000
  H   H36       1.0  0.10187  0.27820  0.30783  1.0000
  C   C30       1.0  0.32878  0.24333  0.41590  1.0000
  H   H37       1.0  0.04357  0.25674  0.22083  1.0000
  H   H38       1.0  0.28778  0.20070  0.44506  1.0000
  H   H39       1.0  0.09595  0.01102  0.05643  1.0000
  C   C31       1.0  0.37190  0.21445  0.42700  1.0000
  C   C32       1.0  0.28488  0.24866  0.00140  1.0000
  H   H40       1.0  0.12832  0.99913  0.07129  1.0000
  H   H41       1.0  0.41092  0.19630  0.38790  1.0000
  H   H42       1.0  0.03775  0.24096  0.34721  1.0000
  H   H43       1.0  0.20870  0.25779  0.12105  1.0000
  C   C33       1.0  0.33288  0.20650  0.46991  1.0000
  C   C34       1.0  0.36452  0.00601  0.24937  1.0000
  H   H44       1.0  0.03458  0.22631  0.31626  1.0000
  C   C35       1.0  0.22694  0.24058  0.21129  1.0000
  H   H45       1.0  0.05370  0.23770  0.26987  1.0000
  H   H46       1.0  0.07826  0.26501  0.25845  1.0000
  C   C36       1.0  0.31118  0.19509  0.45049  1.0000
  H   H47       1.0  0.18771  0.21610  0.06173  1.0000
  H   H48       1.0  0.43361  0.18705  0.41966  1.0000
  C   C37       1.0  0.03144  0.24545  0.22521  1.0000
  H   H49       1.0  0.28788  0.17254  0.45574  1.0000
  N   N2        1.0  0.34724  0.21980  0.45101  1.0000
  H   H50       1.0  0.47060  0.32033  0.05807  1.0000
  C   C38       1.0  0.23713  0.22138  0.07536  1.0000
  H   H51       1.0  0.29112  0.21779  0.12193  1.0000
  H   H52       1.0  0.38172  0.99777  0.23838  1.0000
  N   N3        1.0  0.24957  0.24228  0.11999  1.0000
  H   H53       1.0  0.39457  0.00280  0.33885  1.0000
  H   H54       1.0  0.23278  0.21843  0.12639  1.0000
  H   H55       1.0  0.20755  0.31719  0.28653  1.0000
  H   H56       1.0  0.10295  0.28982  0.27180  1.0000
  C   C39       1.0  0.04377  0.26378  0.29763  1.0000
  H   H57       1.0  0.04985  0.23573  0.18080  1.0000
  C   C40       1.0  0.22151  0.24398  0.17553  1.0000
  H   H58       1.0  0.21667  0.22057  0.46195  1.0000
  H   H59       1.0  0.30117  0.22501  0.99502  1.0000
  H   H60       1.0  0.28988  0.31732  0.32015  1.0000
  H   H61       1.0  0.32673  0.17378  0.47483  1.0000
  C   C41       1.0  0.01161  0.29631  0.36556  1.0000
  H   H62       1.0  0.21733  0.20493  0.04067  1.0000
  H   H63       1.0  0.29720  0.24003  0.37414  1.0000
  C   C42       1.0  0.22985  0.22832  0.10921  1.0000
  H   H64       1.0  0.33265  0.25275  0.43397  1.0000
  C   C43       1.0  0.33035  0.00348  0.23503  1.0000
  H   H65       1.0  0.36031  0.21144  0.40349  1.0000
  H   H66       1.0  0.31599  0.23204  0.14174  1.0000
  H   H67       1.0  0.23335  0.22813  0.21498  1.0000
  H   H68       1.0  0.29261  0.18323  0.49291  1.0000
  H   H69       1.0  0.48352  0.27491  0.00400  1.0000
  N   N4        1.0  0.44980  0.32777  0.01280  1.0000
  C   C44       1.0  0.32024  0.22778  0.43295  1.0000
  H   H70       1.0  0.19281  0.31839  0.22321  1.0000
  H   H71       1.0  0.32161  0.22136  0.07102  1.0000
  H   H72       1.0  0.42297  0.00015  0.38985  1.0000
  H   H73       1.0  0.37266  0.24145  0.46102  1.0000
  H   H74       1.0  0.44473  0.27937  0.01999  1.0000
  H   H75       1.0  0.36116  0.03131  0.25451  1.0000
  C   C45       1.0  0.23269  0.22912  0.47264  1.0000
  H   H76       1.0  0.04827  0.28020  0.25677  1.0000
  H   H77       1.0  0.40139  0.02387  0.25243  1.0000
  C   C46       1.0  0.21098  0.20998  0.06444  1.0000
  H   H78       1.0  0.26404  0.23100  0.16453  1.0000
  C   C47       1.0  0.22844  0.26050  0.07441  1.0000
  H   H79       1.0  0.03484  0.27189  0.31637  1.0000
  H   H80       1.0  0.32236  0.19174  0.42738  1.0000
  H   H81       1.0  0.30784  0.26004  0.38256  1.0000
  H   H82       1.0  0.32150  0.00770  0.42567  1.0000
  H   H83       1.0  0.20848  0.20029  0.08199  1.0000
  H   H84       1.0  0.25805  0.30537  0.30378  1.0000
  C   C48       1.0  0.25305  0.25547  0.47530  1.0000
  C   C49       1.0  0.21622  0.32452  0.22375  1.0000
  H   H85       1.0  0.06130  0.25629  0.31067  1.0000
  H   H86       1.0  0.42878  0.32275  0.05905  1.0000
  H   H87       1.0  0.01445  0.30803  0.35633  1.0000
  H   H88       1.0  0.22660  0.28593  0.07923  1.0000
  H   H89       1.0  0.25162  0.26071  0.06172  1.0000
  H   H90       1.0  0.40247  0.20078  0.46085  1.0000
  H   H91       1.0  0.18795  0.27636  0.07925  1.0000
  H   H92       1.0  0.31988  0.00855  0.30230  1.0000
  H   H93       1.0  0.21248  0.25156  0.06348  1.0000
  H   H94       1.0  0.25306  0.26741  0.46683  1.0000
  C   C50       1.0  0.44413  0.31103  0.00238  1.0000
  H   H95       1.0  0.16025  0.32473  0.26294  1.0000
  H   H96       1.0  0.23047  0.31419  0.17829  1.0000
  H   H97       1.0  0.38280  0.32048  0.99695  1.0000
  H   H98       1.0  0.36556  0.00416  0.27568  1.0000
  C   C51       1.0  0.39228  0.19995  0.43625  1.0000
  H   H99       1.0  0.25290  0.31548  0.34163  1.0000
  H   H100      1.0  0.20985  0.27832  0.04230  1.0000
  C   C52       1.0  0.47298  0.29968  0.00616  1.0000
  H   H101      1.0  0.23361  0.31709  0.23700  1.0000
  S   S15       1.0  0.34011  0.02084  0.48671  1.0000
  H   H102      1.0  0.13196  0.00877  0.03294  1.0000
  H   H103      1.0  0.30012  0.23033  0.44947  1.0000
  H   H104      1.0  0.27221  0.00796  0.20732  1.0000
  H   H105      1.0  0.38862  0.22421  0.42138  1.0000
  H   H106      1.0  0.48450  0.30056  0.03017  1.0000
  H   H107      1.0  0.26222  0.27117  0.00200  1.0000
  C   C53       1.0  0.11504  0.00275  0.04925  1.0000
  C   C54       1.0  0.26351  0.31627  0.31732  1.0000
  H   H108      1.0  0.50181  0.03672  0.47217  1.0000
  C   C55       1.0  0.02068  0.23439  0.33155  1.0000
  H   H109      1.0  0.01421  0.23080  0.26267  1.0000
  H   H110      1.0  0.25261  0.00962  0.49048  1.0000
  H   H111      1.0  0.35159  0.19949  0.48213  1.0000
  H   H112      1.0  0.30417  0.99954  0.35616  1.0000
  H   H113      1.0  0.01491  0.21714  0.36936  1.0000
  H   H114      1.0  0.45737  0.05221  0.49295  1.0000
  C   C56       1.0  0.45101  0.32793  0.04911  1.0000
  H   H115      1.0  0.45199  0.99692  0.43550  1.0000
  H   H116      1.0  0.26926  0.00311  0.33139  1.0000
  C   C57       1.0  0.36147  0.23160  0.47423  1.0000
  H   H117      1.0  0.31811  0.21113  0.48985  1.0000
  H   H118      1.0  0.46352  0.00864  0.48865  1.0000
  H   H119      1.0  0.00692  0.24611  0.21464  1.0000
  H   H120      1.0  0.30432  0.32919  0.16914  1.0000
  H   H121      1.0  0.41013  0.22335  0.48432  1.0000
  H   H122      1.0  0.34209  0.23691  0.48882  1.0000
  C   C58       1.0  0.21358  0.32926  0.29471  1.0000
  H   H123      1.0  0.50157  0.32924  0.01419  1.0000
  C   C59       1.0  0.31193  0.99624  0.30497  1.0000
  Fe  Fe9       1.0  0.11832  0.03869  0.81918  1.0000
  S   S16       1.0  0.11936  0.05240  0.86502  1.0000
  S   S17       1.0  0.07115  0.02888  0.80044  1.0000
  Fe  Fe10      1.0  0.19000  0.04410  0.80606  1.0000
  S   S18       1.0  0.19519  0.05809  0.85200  1.0000
  S   S19       1.0  0.23733  0.04345  0.77821  1.0000
  Fe  Fe11      1.0  0.16495  0.03930  0.87524  1.0000
  S   S20       1.0  0.17488  0.03005  0.92616  1.0000
  Fe  Fe12      1.0  0.14913  0.06967  0.83778  1.0000
  S   S21       1.0  0.13405  0.09502  0.83247  1.0000
  S   S22       1.0  0.16263  0.02459  0.83047  1.0000
  S   S23       1.0  0.14535  0.05671  0.79080  1.0000
  Fe  Fe13      1.0  0.39503  0.03003  0.59541  1.0000
  S   S24       1.0  0.39405  0.04400  0.54998  1.0000
  S   S25       1.0  0.44112  0.01845  0.61124  1.0000
  Fe  Fe14      1.0  0.32279  0.03377  0.60656  1.0000
  S   S26       1.0  0.31734  0.04817  0.56132  1.0000
  S   S27       1.0  0.27712  0.02678  0.63338  1.0000
  Fe  Fe15      1.0  0.34952  0.03029  0.53779  1.0000
  H   H124      1.0  0.49154  0.30223  0.98795  1.0000
  Fe  Fe16      1.0  0.36238  0.06042  0.57764  1.0000
  S   S28       1.0  0.37677  0.08607  0.58139  1.0000
  S   S29       1.0  0.35225  0.01534  0.58188  1.0000
  S   S30       1.0  0.36604  0.04704  0.62425  1.0000
  Fe  Fe17      1.0  0.32115  0.17304  0.58269  1.0000
  S   S31       1.0  0.35224  0.17541  0.62661  1.0000
  S   S32       1.0  0.29997  0.14988  0.56574  1.0000
  Fe  Fe18      1.0  0.31989  0.20816  0.56988  1.0000
  S   S33       1.0  0.35214  0.21277  0.61304  1.0000
  H   H125      1.0  0.23536  0.04895  0.90573  1.0000
  Fe  Fe19      1.0  0.38154  0.19225  0.59706  1.0000
  S   S34       1.0  0.43567  0.18999  0.60721  1.0000
  Fe  Fe20      1.0  0.32097  0.19575  0.63968  1.0000
  S   S35       1.0  0.30967  0.20048  0.69273  1.0000
  S   S36       1.0  0.35178  0.18869  0.55180  1.0000
  S   S37       1.0  0.28735  0.19223  0.59776  1.0000
  Fe  Fe21      1.0  0.17814  0.17991  0.88286  1.0000
  S   S38       1.0  0.14097  0.18363  0.84453  1.0000
  S   S39       1.0  0.19545  0.15566  0.89681  1.0000
  Fe  Fe22      1.0  0.18622  0.21506  0.89681  1.0000
  S   S40       1.0  0.14901  0.22101  0.85859  1.0000
  S   S41       1.0  0.20706  0.23621  0.92485  1.0000
  Fe  Fe23      1.0  0.11944  0.20119  0.87822  1.0000
  S   S42       1.0  0.06701  0.19934  0.89411  1.0000
  Fe  Fe24      1.0  0.17359  0.20290  0.82780  1.0000
  S   S43       1.0  0.18060  0.20444  0.77330  1.0000
  S   S44       1.0  0.15516  0.19627  0.91814  1.0000
  S   S45       1.0  0.21238  0.19822  0.86434  1.0000
  H   H126      1.0  0.21664  0.06730  0.59428  1.0000
  C   C60       1.0  0.02952  0.20598  0.87870  1.0000
  C   C61       1.0  0.02627  0.21319  0.84864  1.0000
  H   H127      1.0  0.29011  0.02508  0.90518  1.0000
  H   H128      1.0  0.04730  0.21543  0.83438  1.0000
  C   C62       1.0  0.47306  0.19589  0.59062  1.0000
  H   H129      1.0  0.19450  0.23185  0.71294  1.0000
  H   H130      1.0  0.23901  0.21559  0.62455  1.0000
  C   C63       1.0  0.27416  0.25089  0.50041  1.0000
  H   H131      1.0  0.45474  0.20313  0.54446  1.0000
  C   C64       1.0  0.27336  0.20049  0.71465  1.0000
  C   C65       1.0  0.27483  0.20204  0.74839  1.0000
  C   C66       1.0  0.24670  0.20270  0.76684  1.0000
  C   C67       1.0  0.21673  0.20212  0.75163  1.0000
  C   C68       1.0  0.21523  0.20021  0.71797  1.0000
  C   C69       1.0  0.24337  0.19933  0.69955  1.0000
  H   H132      1.0  0.29793  0.20281  0.76029  1.0000
  H   H133      1.0  0.24820  0.20394  0.79270  1.0000
  H   H134      1.0  0.19212  0.19956  0.70607  1.0000
  H   H135      1.0  0.24188  0.19796  0.67370  1.0000
  H   H136      1.0  0.37474  0.24063  0.53814  1.0000
  H   H137      1.0  0.18282  0.01786  0.99005  1.0000
  H   H138      1.0  0.30930  0.11080  0.63605  1.0000
  H   H139      1.0  0.03743  0.05156  0.75555  1.0000
  H   H140      1.0  0.44046  0.15421  0.58975  1.0000
  C   C70       1.0  0.44484  0.00072  0.49829  1.0000
  H   H141      1.0  0.24251  0.08962  0.62185  1.0000
  C   C71       1.0  0.23590  0.24014  0.95609  1.0000
  C   C72       1.0  0.30507  0.01376  0.83953  1.0000
  C   C73       1.0  0.35428  0.10348  0.57739  1.0000
  C   C74       1.0  0.32386  0.10377  0.56304  1.0000
  C   C75       1.0  0.30743  0.11806  0.55967  1.0000
  C   C76       1.0  0.32122  0.13213  0.57063  1.0000
  C   C77       1.0  0.35146  0.13177  0.58532  1.0000
  C   C78       1.0  0.36788  0.11753  0.58860  1.0000
  H   H142      1.0  0.31338  0.09308  0.55385  1.0000
  C   C79       1.0  0.00590  0.03194  0.80741  1.0000
  H   H143      1.0  0.36240  0.14249  0.59383  1.0000
  H   H144      1.0  0.39141  0.11740  0.59970  1.0000
  H   H145      1.0  0.28885  0.13862  0.63502  1.0000
  C   C80       1.0  0.38784  0.22573  0.49772  1.0000
  C   C81       1.0  0.15055  0.11150  0.85221  1.0000
  C   C82       1.0  0.17448  0.11029  0.87585  1.0000
  C   C83       1.0  0.18767  0.12391  0.88983  1.0000
  C   C84       1.0  0.17690  0.13877  0.88043  1.0000
  C   C85       1.0  0.15260  0.13988  0.85717  1.0000
  C   C86       1.0  0.13949  0.12632  0.84317  1.0000
  H   H146      1.0  0.18300  0.09891  0.88316  1.0000
  H   H147      1.0  0.20644  0.12293  0.90785  1.0000
  H   H148      1.0  0.14403  0.15116  0.84973  1.0000
  H   H149      1.0  0.12093  0.12735  0.82498  1.0000
  H   H150      1.0  0.01037  0.08102  0.77518  1.0000
  C   C87       1.0  0.24717  0.03932  0.73734  1.0000
  C   C88       1.0  0.22530  0.03261  0.71559  1.0000
  C   C89       1.0  0.23481  0.02896  0.68389  1.0000
  C   C90       1.0  0.26613  0.03209  0.67335  1.0000
  C   C91       1.0  0.28777  0.03913  0.69488  1.0000
  C   C92       1.0  0.27838  0.04261  0.72667  1.0000
  H   H151      1.0  0.20124  0.02999  0.72336  1.0000
  H   H152      1.0  0.21782  0.02354  0.66749  1.0000
  H   H153      1.0  0.31197  0.04155  0.68727  1.0000
  H   H154      1.0  0.29557  0.04774  0.74325  1.0000
  H   H155      1.0  0.24793  0.06214  0.64412  1.0000
  C   C93       1.0  0.47610  0.03002  0.60904  1.0000
  C   C94       1.0  0.47442  0.04580  0.60069  1.0000
  H   H156      1.0  0.47591  0.05345  0.53214  1.0000
  H   H157      1.0  0.45141  0.05116  0.59610  1.0000
  H   H158      1.0  0.02939  0.99653  0.96534  1.0000
  C   C95       1.0  0.03610  0.03288  0.82255  1.0000
  C   C96       1.0  0.03788  0.03706  0.85505  1.0000
  H   H159      1.0  0.02208  0.03977  0.95503  1.0000
  H   H160      1.0  0.06069  0.03728  0.86734  1.0000
  C   C97       1.0  0.31810  0.24902  0.63030  1.0000
  H   H161      1.0  0.31660  0.26179  0.63464  1.0000
  H   H162      1.0  0.33706  0.24416  0.64630  1.0000
  H   H163      1.0  0.32506  0.24692  0.60491  1.0000
  N   N5        1.0  0.27989  0.24372  0.85657  1.0000
  C   C98       1.0  0.28892  0.23101  0.88006  1.0000
  C   C99       1.0  0.27194  0.25860  0.87453  1.0000
  C   C100      1.0  0.24995  0.23838  0.83884  1.0000
  C   C101      1.0  0.30552  0.24644  0.83180  1.0000
  C   C102      1.0  0.33939  0.25059  0.84464  1.0000
  C   C103      1.0  0.29909  0.21519  0.86518  1.0000
  C   C104      1.0  0.23241  0.25098  0.81833  1.0000
  C   C105      1.0  0.29258  0.26277  0.90469  1.0000
  C   C106      1.0  0.28487  0.27912  0.91713  1.0000
  C   C107      1.0  0.36428  0.24916  0.81805  1.0000
  C   C108      1.0  0.30654  0.20331  0.89163  1.0000
  C   C109      1.0  0.20698  0.24364  0.79633  1.0000
  H   H164      1.0  0.26860  0.22873  0.89657  1.0000
  H   H165      1.0  0.30900  0.23463  0.89604  1.0000
  H   H166      1.0  0.27240  0.26875  0.85782  1.0000
  H   H167      1.0  0.24696  0.25796  0.88381  1.0000
  H   H168      1.0  0.23197  0.23377  0.85614  1.0000
  H   H169      1.0  0.25538  0.22850  0.82239  1.0000
  H   H170      1.0  0.30747  0.23608  0.81567  1.0000
  H   H171      1.0  0.29880  0.25617  0.81550  1.0000
  H   H172      1.0  0.34712  0.24289  0.86463  1.0000
  H   H173      1.0  0.33984  0.26292  0.85287  1.0000
  H   H174      1.0  0.27996  0.21016  0.84965  1.0000
  H   H175      1.0  0.32103  0.21663  0.85061  1.0000
  H   H176      1.0  0.24901  0.25756  0.80278  1.0000
  H   H177      1.0  0.22017  0.25946  0.83428  1.0000
  H   H178      1.0  0.28747  0.25447  0.92444  1.0000
  H   H179      1.0  0.31852  0.26224  0.90020  1.0000
  H   H180      1.0  0.29135  0.28809  0.89904  1.0000
  H   H181      1.0  0.25899  0.28009  0.92269  1.0000
  H   H182      1.0  0.29873  0.28142  0.93963  1.0000
  H   H183      1.0  0.38819  0.25266  0.82759  1.0000
  H   H184      1.0  0.36578  0.23691  0.80936  1.0000
  H   H185      1.0  0.35810  0.25690  0.79747  1.0000
  H   H186      1.0  0.31610  0.19248  0.88073  1.0000
  H   H187      1.0  0.32485  0.20796  0.90873  1.0000
  H   H188      1.0  0.28446  0.20037  0.90509  1.0000
  H   H189      1.0  0.21827  0.23582  0.77837  1.0000
  H   H190      1.0  0.18953  0.23680  0.81056  1.0000
  H   H191      1.0  0.19376  0.25292  0.78318  1.0000
  N   N6        1.0  0.22845  0.14286  0.78821  1.0000
  C   C110      1.0  0.23606  0.15533  0.81291  1.0000
  C   C111      1.0  0.19508  0.14522  0.77463  1.0000
  C   C112      1.0  0.22918  0.12727  0.80537  1.0000
  C   C113      1.0  0.25304  0.14230  0.76182  1.0000
  C   C114      1.0  0.25860  0.15749  0.74241  1.0000
  C   C115      1.0  0.26887  0.15385  0.83039  1.0000
  C   C116      1.0  0.21435  0.11314  0.78683  1.0000
  C   C117      1.0  0.18388  0.16227  0.76903  1.0000
  C   C118      1.0  0.15161  0.16272  0.75144  1.0000
  C   C119      1.0  0.29027  0.15688  0.72427  1.0000
  C   C120      1.0  0.27501  0.16771  0.85277  1.0000
  C   C121      1.0  0.22209  0.09772  0.80369  1.0000
  H   H192      1.0  0.21721  0.15540  0.83168  1.0000
  H   H193      1.0  0.23511  0.16721  0.80240  1.0000
  H   H194      1.0  0.19207  0.13866  0.75162  1.0000
  H   H195      1.0  0.17704  0.14029  0.79144  1.0000
  H   H196      1.0  0.21621  0.12807  0.82861  1.0000
  H   H197      1.0  0.25418  0.12403  0.81194  1.0000
  H   H198      1.0  0.27652  0.13834  0.77166  1.0000
  H   H199      1.0  0.24651  0.13328  0.74367  1.0000
  H   H200      1.0  0.25960  0.16804  0.75774  1.0000
  H   H201      1.0  0.23910  0.15890  0.72428  1.0000
  H   H202      1.0  0.26962  0.14315  0.84543  1.0000
  H   H203      1.0  0.28877  0.15352  0.81296  1.0000
  H   H204      1.0  0.22330  0.11234  0.76189  1.0000
  H   H205      1.0  0.18786  0.11418  0.78570  1.0000
  H   H206      1.0  0.18073  0.16829  0.79249  1.0000
  H   H207      1.0  0.20115  0.16910  0.75485  1.0000
  H   H208      1.0  0.15352  0.15738  0.72716  1.0000
  H   H209      1.0  0.13310  0.15646  0.76551  1.0000
  H   H210      1.0  0.14393  0.17506  0.74853  1.0000
  H   H211      1.0  0.29169  0.16682  0.70721  1.0000
  H   H212      1.0  0.31076  0.15782  0.74143  1.0000
  H   H213      1.0  0.29251  0.14586  0.71041  1.0000
  H   H214      1.0  0.27554  0.17878  0.83889  1.0000
  H   H215      1.0  0.25616  0.16843  0.87137  1.0000
  H   H216      1.0  0.29843  0.16619  0.86520  1.0000
  H   H217      1.0  0.20839  0.08804  0.79216  1.0000
  H   H218      1.0  0.24803  0.09509  0.80208  1.0000
  H   H219      1.0  0.21527  0.09817  0.82942  1.0000
  C   C122      1.0  0.18449  0.25834  0.54310  1.0000
  H   H220      1.0  0.05825  0.14130  0.88081  1.0000
  H   H221      1.0  0.03064  0.01011  0.91064  1.0000
  H   H222      1.0  0.29024  0.25945  0.51097  1.0000
  H   H223      1.0  0.21757  0.25195  0.66287  1.0000
  H   H224      1.0  0.38425  0.08089  0.65201  1.0000
  H   H225      1.0  0.02404  0.02397  0.98350  1.0000
  H   H226      1.0  0.08064  0.12230  0.76796  1.0000
  C   C123      1.0  0.25379  0.22453  0.49777  1.0000
  H   H227      1.0  0.28203  0.09041  0.70538  1.0000
  H   H228      1.0  0.16462  0.00055  0.57963  1.0000
  C   C124      1.0  0.02657  0.07699  0.79488  1.0000
  C   C125      1.0  0.17093  0.01073  0.94159  1.0000
  H   H229      1.0  0.23423  0.08308  0.73954  1.0000
  N   N7        1.0  0.28452  0.09020  0.65332  1.0000
  H   H230      1.0  0.19476  0.08598  0.72254  1.0000
  H   H231      1.0  0.28044  0.03396  0.50709  1.0000
  H   H232      1.0  0.15865  0.99975  0.89649  1.0000
  H   H233      1.0  0.24689  0.14123  0.62670  1.0000
  C   C126      1.0  0.24071  0.06188  0.59307  1.0000
  H   H234      1.0  0.21850  0.08717  0.66763  1.0000
  C   C127      1.0  0.20486  0.19864  0.58222  1.0000
  H   H235      1.0  0.32802  0.08398  0.62844  1.0000
  C   C128      1.0  0.21295  0.25305  0.56368  1.0000
  H   H236      1.0  0.26780  0.24790  0.59126  1.0000
  C   C129      1.0  0.26087  0.06635  0.62262  1.0000
  C   C130      1.0  0.17686  0.00809  0.97455  1.0000
  H   H237      1.0  0.21134  0.19203  0.60433  1.0000
  C   C131      1.0  0.26077  0.04564  0.90237  1.0000
  H   H238      1.0  0.25648  0.26058  0.62307  1.0000
  H   H239      1.0  0.09422  0.08254  0.89817  1.0000
  C   C132      1.0  0.26425  0.02793  0.90429  1.0000
  H   H240      1.0  0.25270  0.06567  0.57064  1.0000
  H   H241      1.0  0.05870  0.07240  0.91183  1.0000
  C   C133      1.0  0.25882  0.24802  0.61640  1.0000
  C   C134      1.0  0.26442  0.13472  0.64178  1.0000
  H   H242      1.0  0.15293  0.22939  0.70237  1.0000
  C   C135      1.0  0.44783  0.14209  0.58376  1.0000
  H   H243      1.0  0.23762  0.04900  0.59226  1.0000
  H   H244      1.0  0.00973  0.11391  0.77843  1.0000
  C   C136      1.0  0.39599  0.23810  0.52312  1.0000
  H   H245      1.0  0.17347  0.26898  0.55349  1.0000
  H   H246      1.0  0.39142  0.08623  0.69336  1.0000
  C   C137      1.0  0.26027  0.11719  0.63620  1.0000
  H   H247      1.0  0.01174  0.04404  0.89706  1.0000
  H   H248      1.0  0.27927  0.08765  0.60186  1.0000
  H   H249      1.0  0.27087  0.07250  0.68779  1.0000
  H   H250      1.0  0.28412  0.11825  0.54812  1.0000
  H   H251      1.0  0.46140  0.03489  0.51719  1.0000
  H   H252      1.0  0.44957  0.99899  0.52442  1.0000
  H   H253      1.0  0.19937  0.26109  0.61097  1.0000
  C   C138      1.0  0.28323  0.23349  0.98819  1.0000
  H   H254      1.0  0.06759  0.14443  0.83878  1.0000
  H   H255      1.0  0.17908  0.24408  0.59834  1.0000
  H   H256      1.0  0.16445  0.23718  0.64592  1.0000
  H   H257      1.0  0.04692  0.12955  0.74512  1.0000
  C   C139      1.0  0.18405  0.23252  0.66119  1.0000
  N   N8        1.0  0.02907  0.08910  0.82120  1.0000
  H   H258      1.0  0.25963  0.11523  0.60973  1.0000
  C   C140      1.0  0.04673  0.10348  0.80999  1.0000
  H   H259      1.0  0.48488  0.32780  0.97473  1.0000
  C   C141      1.0  0.04728  0.08210  0.84914  1.0000
  C   C142      1.0  0.04935  0.09222  0.88009  1.0000
  H   H260      1.0  0.49913  0.18981  0.63382  1.0000
  C   C143      1.0  0.05879  0.07162  0.78023  1.0000
  H   H261      1.0  0.07643  0.05709  0.74151  1.0000
  C   C144      1.0  0.05469  0.12509  0.76904  1.0000
  C   C145      1.0  0.06910  0.08403  0.90618  1.0000
  H   H262      1.0  0.17854  0.21663  0.60596  1.0000
  C   C146      1.0  0.05318  0.06167  0.75013  1.0000
  C   C147      1.0  0.37383  0.08080  0.67651  1.0000
  H   H263      1.0  0.18259  0.19350  0.57184  1.0000
  H   H264      1.0  0.04504  0.11296  0.82822  1.0000
  H   H265      1.0  0.07278  0.10114  0.80813  1.0000
  H   H266      1.0  0.01514  0.06616  0.80412  1.0000
  H   H267      1.0  0.30984  0.02435  0.85425  1.0000
  H   H268      1.0  0.16623  0.24892  0.54127  1.0000
  H   H269      1.0  0.07238  0.07962  0.84209  1.0000
  H   H270      1.0  0.03719  0.07050  0.85560  1.0000
  H   H271      1.0  0.06115  0.10358  0.87522  1.0000
  C   C148      1.0  0.16334  0.99794  0.92186  1.0000
  C   C149      1.0  0.03530  0.11051  0.77746  1.0000
  H   H272      1.0  0.07221  0.06442  0.79796  1.0000
  H   H273      1.0  0.07427  0.08155  0.77328  1.0000
  C   C150      1.0  0.00998  0.04066  0.87203  1.0000
  H   H274      1.0  0.23206  0.10276  0.69395  1.0000
  H   H275      1.0  0.25018  0.03749  0.53718  1.0000
  H   H276      1.0  0.05091  0.13442  0.78714  1.0000
  H   H277      1.0  0.26935  0.05013  0.87890  1.0000
  H   H278      1.0  0.06940  0.09121  0.92846  1.0000
  H   H279      1.0  0.44851  0.13501  0.60614  1.0000
  S   S46       1.0  0.30293  0.23032  0.54294  1.0000
  H   H280      1.0  0.25355  0.02419  0.92746  1.0000
  H   H281      1.0  0.03836  0.10207  0.75746  1.0000
  H   H282      1.0  0.22416  0.19738  0.56418  1.0000
  C   C151      1.0  0.48050  0.14207  0.56745  1.0000
  H   H283      1.0  0.02524  0.09444  0.89001  1.0000
  H   H284      1.0  0.25382  0.21257  0.50612  1.0000
  H   H285      1.0  0.25725  0.99913  0.80128  1.0000
  C   C152      1.0  0.31754  0.08298  0.65288  1.0000
  H   H286      1.0  0.18522  0.21964  0.65832  1.0000
  H   H287      1.0  0.24849  0.22300  0.58616  1.0000
  C   C153      1.0  0.50104  0.19417  0.60949  1.0000
  N   N9        1.0  0.22665  0.23991  0.61815  1.0000
  C   C154      1.0  0.19948  0.21586  0.59003  1.0000
  H   H288      1.0  0.21961  0.26380  0.96251  1.0000
  C   C155      1.0  0.20311  0.24959  0.59898  1.0000
  H   H289      1.0  0.23274  0.99947  0.60850  1.0000
  H   H290      1.0  0.20864  0.99886  0.76694  1.0000
  H   H291      1.0  0.23119  0.26252  0.56324  1.0000
  H   H292      1.0  0.48643  0.12978  0.56156  1.0000
  H   H293      1.0  0.42953  0.13697  0.56724  1.0000
  H   H294      1.0  0.47774  0.14878  0.54479  1.0000
  H   H295      1.0  0.49870  0.16162  0.59517  1.0000
  H   H296      1.0  0.23429  0.23296  0.66785  1.0000
  H   H297      1.0  0.19299  0.22169  0.56706  1.0000
  C   C156      1.0  0.22994  0.22347  0.60524  1.0000
  C   C157      1.0  0.23716  0.25521  0.96983  1.0000
  H   H298      1.0  0.25839  0.21759  0.95571  1.0000
  H   H299      1.0  0.34836  0.10222  0.67078  1.0000
  H   H300      1.0  0.22910  0.01423  0.81207  1.0000
  H   H301      1.0  0.17111  0.24846  0.70000  1.0000
  H   H302      1.0  0.38046  0.21513  0.51092  1.0000
  H   H303      1.0  0.28870  0.22835  0.63318  1.0000
  H   H304      1.0  0.26010  0.13762  0.66737  1.0000
  C   C158      1.0  0.47593  0.20173  0.55931  1.0000
  H   H305      1.0  0.04205  0.06874  0.73066  1.0000
  H   H306      1.0  0.22086  0.02043  0.88013  1.0000
  C   C159      1.0  0.17523  0.23579  0.69624  1.0000
  C   C160      1.0  0.25509  0.03194  0.51357  1.0000
  H   H307      1.0  0.27507  0.05121  0.92195  1.0000
  H   H308      1.0  0.03815  0.16962  0.83983  1.0000
  H   H309      1.0  0.08137  0.00451  0.93968  1.0000
  H   H310      1.0  0.06274  0.00570  0.88357  1.0000
  C   C161      1.0  0.28614  0.24108  0.63751  1.0000
  H   H311      1.0  0.45171  0.28099  0.97711  1.0000
  C   C162      1.0  0.06202  0.15025  0.86190  1.0000
  C   C163      1.0  0.26644  0.08420  0.62415  1.0000
  H   H312      1.0  0.36980  0.06853  0.68414  1.0000
  C   C164      1.0  0.21913  0.08147  0.71764  1.0000
  H   H313      1.0  0.17723  0.00743  0.61882  1.0000
  H   H314      1.0  0.28159  0.24302  0.66348  1.0000
  H   H315      1.0  0.22348  0.24263  0.55214  1.0000
  C   C165      1.0  0.21695  0.23980  0.65311  1.0000
  C   C166      1.0  0.00886  0.03364  0.97436  1.0000
  C   C167      1.0  0.27488  0.23538  0.51175  1.0000
  C   C168      1.0  0.34251  0.08995  0.67702  1.0000
  H   H316      1.0  0.21718  0.06876  0.71244  1.0000
  C   C169      1.0  0.26893  0.08537  0.68440  1.0000
  C   C170      1.0  0.28835  0.10777  0.65135  1.0000
  H   H317      1.0  0.33319  0.99858  0.80858  1.0000
  C   C171      1.0  0.25889  0.22922  0.96588  1.0000
  H   H318      1.0  0.23674  0.11372  0.64584  1.0000
  H   H319      1.0  0.08302  0.15751  0.86914  1.0000
  H   H320      1.0  0.25077  0.02640  0.85356  1.0000
  H   H321      1.0  0.31624  0.07023  0.65790  1.0000
  C   C172      1.0  0.23354  0.09005  0.68892  1.0000
  H   H322      1.0  0.28398  0.06011  0.62092  1.0000
  H   H323      1.0  0.33366  0.08967  0.70205  1.0000
  H   H324      1.0  0.41538  0.23371  0.53921  1.0000
  H   H325      1.0  0.23978  0.03759  0.49498  1.0000
  H   H326      1.0  0.29386  0.11272  0.67561  1.0000
  H   H327      1.0  0.43660  0.31055  0.97657  1.0000
  C   C173      1.0  0.24704  0.01949  0.87578  1.0000
  H   H328      1.0  0.40431  0.24905  0.51159  1.0000
  C   C174      1.0  0.21631  0.00098  0.58759  1.0000
  H   H329      1.0  0.19274  0.26109  0.51838  1.0000
  H   H330      1.0  0.34704  0.01849  0.81075  1.0000
  H   H331      1.0  0.28906  0.01734  0.81952  1.0000
  C   C175      1.0  0.26137  0.25945  0.99230  1.0000
  C   C176      1.0  0.47319  0.04602  0.51033  1.0000
  C   C177      1.0  0.04686  0.00072  0.90229  1.0000
  C   C178      1.0  0.18214  0.99876  0.59956  1.0000
  C   C179      1.0  0.33686  0.00871  0.82497  1.0000
  H   H332      1.0  0.00682  0.14553  0.82509  1.0000
  N   N10       1.0  0.25619  0.00259  0.87122  1.0000
  H   H333      1.0  0.27005  0.01336  0.56262  1.0000
  H   H334      1.0  0.21845  0.01320  0.57899  1.0000
  H   H335      1.0  0.00599  0.16580  0.79107  1.0000
  H   H336      1.0  0.42099  0.00633  0.49550  1.0000
  H   H337      1.0  0.22185  0.01333  0.51951  1.0000
  C   C180      1.0  0.24775  0.01449  0.51475  1.0000
  H   H338      1.0  0.35430  0.00554  0.84421  1.0000
  H   H339      1.0  0.02944  0.16683  0.88165  1.0000
  H   H340      1.0  0.50103  0.06692  0.59161  1.0000
  C   C181      1.0  0.26861  0.00600  0.54050  1.0000
  H   H341      1.0  0.10242  0.99676  0.98468  1.0000
  H   H342      1.0  0.30688  0.99960  0.88198  1.0000
  H   H343      1.0  0.29345  0.00604  0.53114  1.0000
  C   C182      1.0  0.23383  0.00154  0.81254  1.0000
  H   H344      1.0  0.26964  0.99887  0.92121  1.0000
  C   C183      1.0  0.29053  0.00058  0.86072  1.0000
  C   C184      1.0  0.03260  0.16071  0.85836  1.0000
  H   H345      1.0  0.22798  0.99738  0.91345  1.0000
  H   H346      1.0  0.01247  0.19428  0.78931  1.0000
  C   C185      1.0  0.50256  0.05474  0.59831  1.0000
  Fe  Fe25      1.0  0.15563  0.41640  0.35713  1.0000
  S   S47       1.0  0.15344  0.42817  0.30870  1.0000
  S   S48       1.0  0.13718  0.39146  0.36277  1.0000
  Fe  Fe26      1.0  0.17213  0.44720  0.39306  1.0000
  S   S49       1.0  0.17134  0.46108  0.34715  1.0000
  S   S50       1.0  0.18086  0.45530  0.44512  1.0000
  Fe  Fe27      1.0  0.12688  0.44714  0.33479  1.0000
  S   S51       1.0  0.08136  0.45833  0.31558  1.0000
  Fe  Fe28      1.0  0.19813  0.44095  0.32461  1.0000
  S   S52       1.0  0.24491  0.44460  0.29683  1.0000
  S   S53       1.0  0.12621  0.43465  0.38201  1.0000
  S   S54       1.0  0.20201  0.42782  0.37180  1.0000
  Fe  Fe29      1.0  0.36984  0.41907  0.08004  1.0000
  S   S55       1.0  0.37246  0.42867  0.13035  1.0000
  S   S56       1.0  0.38909  0.39443  0.07420  1.0000
  Fe  Fe30      1.0  0.34999  0.45110  0.05127  1.0000
  S   S57       1.0  0.35183  0.46269  0.09992  1.0000
  C   C186      1.0  0.21358  0.51030  0.02763  1.0000
  Fe  Fe31      1.0  0.39746  0.44899  0.10738  1.0000
  S   S58       1.0  0.44317  0.45878  0.12951  1.0000
  Fe  Fe32      1.0  0.32667  0.44115  0.11865  1.0000
  S   S59       1.0  0.27984  0.43992  0.14705  1.0000
  S   S60       1.0  0.39714  0.43887  0.05761  1.0000
  S   S61       1.0  0.32236  0.43014  0.06930  1.0000
  C   C187      1.0  0.12297  0.37846  0.45757  1.0000
  H   H347      1.0  0.35441  0.40491  0.19164  1.0000
  H   H348      1.0  0.24545  0.47250  0.16124  1.0000
  H   H349      1.0  0.21144  0.48563  0.03502  1.0000
  H   H350      1.0  0.35475  0.49238  0.03086  1.0000
  C   C188      1.0  0.32074  0.49560  0.14653  1.0000
  H   H351      1.0  0.14944  0.33964  0.45748  1.0000
  C   C189      1.0  0.34889  0.49408  0.00569  1.0000
  H   H352      1.0  0.21338  0.49992  0.41224  1.0000
  H   H353      1.0  0.43710  0.39848  0.16221  1.0000
  C   C190      1.0  0.22135  0.49650  0.36184  1.0000
  H   H354      1.0  0.45752  0.43423  0.08370  1.0000
  C   C191      1.0  0.17273  0.47392  0.46240  1.0000
  H   H355      1.0  0.27456  0.46725  0.43452  1.0000
  C   C192      1.0  0.47962  0.45065  0.11623  1.0000
  H   H356      1.0  0.34523  0.33498  0.17598  1.0000
  C   C193      1.0  0.04508  0.44884  0.32528  1.0000
  C   C194      1.0  0.18367  0.41328  0.45885  1.0000
  C   C195      1.0  0.04529  0.43482  0.34240  1.0000
  H   H357      1.0  0.32546  0.50550  0.16322  1.0000
  H   H358      1.0  0.06773  0.42941  0.34877  1.0000
  C   C196      1.0  0.25393  0.44332  0.25498  1.0000
  C   C197      1.0  0.23071  0.43966  0.23161  1.0000
  C   C198      1.0  0.23920  0.43858  0.19884  1.0000
  C   C199      1.0  0.27092  0.44114  0.18889  1.0000
  C   C200      1.0  0.29420  0.44467  0.21223  1.0000
  C   C201      1.0  0.28571  0.44576  0.24502  1.0000
  H   H359      1.0  0.20621  0.43768  0.23881  1.0000
  H   H360      1.0  0.22097  0.43578  0.18106  1.0000
  H   H361      1.0  0.31869  0.44668  0.20507  1.0000
  H   H362      1.0  0.30392  0.44854  0.26284  1.0000
  C   C202      1.0  0.16007  0.37457  0.37084  1.0000
  C   C203      1.0  0.14415  0.36017  0.37300  1.0000
  C   C204      1.0  0.16113  0.34641  0.37996  1.0000
  C   C205      1.0  0.19426  0.34692  0.38474  1.0000
  C   C206      1.0  0.21025  0.36136  0.38271  1.0000
  C   C207      1.0  0.19325  0.37515  0.37565  1.0000
  H   H363      1.0  0.11849  0.35962  0.36941  1.0000
  C   C208      1.0  0.26318  0.46389  0.04950  1.0000
  H   H364      1.0  0.23589  0.36185  0.38654  1.0000
  H   H365      1.0  0.20576  0.38620  0.37407  1.0000
  C   C209      1.0  0.32930  0.34945  0.07160  1.0000
  C   C210      1.0  0.36053  0.34948  0.08401  1.0000
  C   C211      1.0  0.37814  0.36349  0.08544  1.0000
  C   C212      1.0  0.36482  0.37753  0.07448  1.0000
  C   C213      1.0  0.33340  0.37759  0.06266  1.0000
  C   C214      1.0  0.31568  0.36359  0.06131  1.0000
  H   H366      1.0  0.37113  0.33869  0.09232  1.0000
  H   H367      1.0  0.40215  0.36352  0.09521  1.0000
  H   H368      1.0  0.32316  0.38832  0.05358  1.0000
  H   H369      1.0  0.29155  0.36365  0.05159  1.0000
  C   C215      1.0  0.45664  0.34381  0.06588  1.0000
  C   C216      1.0  0.33704  0.36698  0.17091  1.0000
  H   H370      1.0  0.26505  0.41132  0.25435  1.0000
  H   H371      1.0  0.25168  0.51529  0.44558  1.0000
  C   C217      1.0  0.31520  0.39203  0.14950  1.0000
  C   C218      1.0  0.28318  0.38569  0.13567  1.0000
  H   H372      1.0  0.39511  0.37822  0.16279  1.0000
  N   N11       1.0  0.13468  0.39482  0.46539  1.0000
  H   H373      1.0  0.27815  0.44668  0.47604  1.0000
  C   C219      1.0  0.26897  0.39691  0.11081  1.0000
  C   C220      1.0  0.01641  0.42762  0.35090  1.0000
  C   C221      1.0  0.24104  0.46710  0.07853  1.0000
  C   C222      1.0  0.32241  0.33834  0.16395  1.0000
  C   C223      1.0  0.14755  0.36493  0.46050  1.0000
  C   C224      1.0  0.00959  0.37503  0.38534  1.0000
  H   H374      1.0  0.31258  0.40476  0.15434  1.0000
  H   H375      1.0  0.25667  0.34095  0.31396  1.0000
  H   H376      1.0  0.26492  0.38407  0.15448  1.0000
  H   H377      1.0  0.28739  0.37439  0.12331  1.0000
  H   H378      1.0  0.23794  0.34619  0.24043  1.0000
  H   H379      1.0  0.20337  0.33015  0.31927  1.0000
  C   C225      1.0  0.38793  0.39056  0.16624  1.0000
  H   H380      1.0  0.06640  0.41341  0.40190  1.0000
  C   C226      1.0  0.36310  0.34349  0.99624  1.0000
  H   H381      1.0  0.24734  0.39159  0.09951  1.0000
  H   H382      1.0  0.26193  0.40804  0.12252  1.0000
  H   H383      1.0  0.28647  0.39949  0.09162  1.0000
  H   H384      1.0  0.28183  0.39290  0.26610  1.0000
  H   H385      1.0  0.23761  0.45171  0.48683  1.0000
  H   H386      1.0  0.21714  0.46038  0.13993  1.0000
  H   H387      1.0  0.19171  0.51023  0.01220  1.0000
  H   H388      1.0  0.30576  0.35295  0.20194  1.0000
  H   H389      1.0  0.28381  0.47178  0.12360  1.0000
  C   C227      1.0  0.19659  0.47608  0.17407  1.0000
  C   C228      1.0  0.16897  0.39675  0.45490  1.0000
  H   H390      1.0  0.15267  0.34368  0.24787  1.0000
  H   H391      1.0  0.17218  0.47556  0.16327  1.0000
  H   H392      1.0  0.27028  0.49696  0.15385  1.0000
  C   C229      1.0  0.21968  0.41310  0.45267  1.0000
  H   H393      1.0  0.17095  0.39363  0.42894  1.0000
  H   H394      1.0  0.18510  0.38850  0.46758  1.0000
  H   H395      1.0  0.23457  0.48861  0.34541  1.0000
  H   H396      1.0  0.23175  0.50031  0.46653  1.0000
  S   S62       1.0  0.30685  0.33199  0.06807  1.0000
  S   S63       1.0  0.33610  0.46200  0.00262  1.0000
  H   H397      1.0  0.15705  0.48482  0.41843  1.0000
  C   C230      1.0  0.50455  0.47884  0.05484  1.0000
  H   H398      1.0  0.28465  0.50798  0.12003  1.0000
  C   C231      1.0  0.01557  0.45541  0.31604  1.0000
  H   H399      1.0  0.06894  0.39298  0.44455  1.0000
  C   C232      1.0  0.47803  0.38800  0.08834  1.0000
  C   C233      1.0  0.42248  0.33749  0.99981  1.0000
  C   C234      1.0  0.48118  0.33326  0.99880  1.0000
  H   H400      1.0  0.47803  0.35831  0.01331  1.0000
  H   H401      1.0  0.26476  0.49658  0.05633  1.0000
  H   H402      1.0  0.29621  0.47330  0.49265  1.0000
  C   C235      1.0  0.13108  0.34901  0.45790  1.0000
  C   C236      1.0  0.06039  0.41611  0.42730  1.0000
  C   C237      1.0  0.24338  0.49603  0.07215  1.0000
  H   H403      1.0  0.35778  0.51898  0.00685  1.0000
  H   H404      1.0  0.36678  0.38799  0.21330  1.0000
  C   C238      1.0  0.04433  0.37776  0.37531  1.0000
  H   H405      1.0  0.21420  0.52139  0.04155  1.0000
  H   H406      1.0  0.45971  0.48887  0.03685  1.0000
  N   N12       1.0  0.19856  0.34120  0.27258  1.0000
  H   H407      1.0  0.23735  0.47456  0.44794  1.0000
  H   H408      1.0  0.19965  0.34827  0.22270  1.0000
  H   H409      1.0  0.36640  0.35505  0.00805  1.0000
  H   H410      1.0  0.22904  0.44998  0.02149  1.0000
  C   C239      1.0  0.14214  0.34078  0.29826  1.0000
  H   H411      1.0  0.42454  0.34981  0.00782  1.0000
  H   H412      1.0  0.22476  0.40796  0.42869  1.0000
  C   C240      1.0  0.27903  0.48279  0.11022  1.0000
  H   H413      1.0  0.41157  0.41189  0.18315  1.0000
  H   H414      1.0  0.26246  0.47340  0.03147  1.0000
  H   H415      1.0  0.47640  0.49851  0.07206  1.0000
  H   H416      1.0  0.19628  0.48300  0.10953  1.0000
  H   H417      1.0  0.28334  0.37776  0.20133  1.0000
  H   H418      1.0  0.27046  0.44636  0.01253  1.0000
  H   H419      1.0  0.11985  0.40500  0.42016  1.0000
  C   C241      1.0  0.31096  0.35425  0.17589  1.0000
  H   H420      1.0  0.15164  0.51117  0.44290  1.0000
  H   H421      1.0  0.22084  0.49631  0.13096  1.0000
  H   H422      1.0  0.25366  0.43880  0.04916  1.0000
  C   C242      1.0  0.25611  0.50458  0.46017  1.0000
  H   H423      1.0  0.22022  0.47993  0.40007  1.0000
  H   H424      1.0  0.42504  0.39421  0.20286  1.0000
  H   H425      1.0  0.35744  0.36304  0.18636  1.0000
  H   H426      1.0  0.43001  0.33741  0.10899  1.0000
  C   C243      1.0  0.11464  0.40623  0.44621  1.0000
  C   C244      1.0  0.26354  0.47610  0.45069  1.0000
  C   C245      1.0  0.22814  0.49222  0.39696  1.0000
  H   H427      1.0  0.29734  0.48312  0.09096  1.0000
  C   C246      1.0  0.41712  0.39933  0.17957  1.0000
  H   H428      1.0  0.31574  0.40776  0.22686  1.0000
  H   H429      1.0  0.18006  0.41803  0.48338  1.0000
  H   H430      1.0  0.28830  0.46254  0.05791  1.0000
  N   N13       1.0  0.32849  0.38374  0.17874  1.0000
  C   C247      1.0  0.16568  0.50397  0.49068  1.0000
  H   H431      1.0  0.23232  0.40624  0.47153  1.0000
  H   H432      1.0  0.28834  0.35705  0.16314  1.0000
  H   H433      1.0  0.04841  0.39022  0.36912  1.0000
  H   H434      1.0  0.43906  0.35265  0.05783  1.0000
  C   C248      1.0  0.38824  0.33192  0.00839  1.0000
  H   H435      1.0  0.46020  0.38574  0.10747  1.0000
  H   H436      1.0  0.21568  0.46571  0.07053  1.0000
  C   C249      1.0  0.27075  0.47145  0.48602  1.0000
  H   H437      1.0  0.23481  0.50980  0.01172  1.0000
  H   H438      1.0  0.32398  0.48452  0.16009  1.0000
  H   H439      1.0  0.20079  0.48785  0.18464  1.0000
  H   H440      1.0  0.33881  0.33910  0.00215  1.0000
  H   H441      1.0  0.28305  0.40723  0.19816  1.0000
  C   C250      1.0  0.21361  0.34085  0.23973  1.0000
  C   C251      1.0  0.27129  0.39949  0.24559  1.0000
  H   H442      1.0  0.33238  0.39145  0.12930  1.0000
  C   C252      1.0  0.22185  0.47240  0.14882  1.0000
  H   H443      1.0  0.33846  0.49613  0.12679  1.0000
  C   C253      1.0  0.15898  0.50144  0.45779  1.0000
  C   C254      1.0  0.20347  0.35721  0.28705  1.0000
  C   C255      1.0  0.18898  0.37097  0.26753  1.0000
  C   C256      1.0  0.19275  0.38640  0.28570  1.0000
  H   H444      1.0  0.22944  0.35986  0.28957  1.0000
  H   H445      1.0  0.19420  0.35762  0.31209  1.0000
  H   H446      1.0  0.13997  0.35353  0.30243  1.0000
  H   H447      1.0  0.20149  0.37230  0.24424  1.0000
  H   H448      1.0  0.16313  0.36917  0.26246  1.0000
  H   H449      1.0  0.05034  0.37042  0.35414  1.0000
  H   H450      1.0  0.17853  0.38618  0.30806  1.0000
  H   H451      1.0  0.21823  0.38868  0.29204  1.0000
  H   H452      1.0  0.18388  0.39618  0.27053  1.0000
  N   N14       1.0  0.27336  0.49234  0.44058  1.0000
  C   C257      1.0  0.30936  0.49367  0.44301  1.0000
  H   H453      1.0  0.22908  0.42525  0.45316  1.0000
  C   C258      1.0  0.26420  0.49415  0.40544  1.0000
  C   C259      1.0  0.47256  0.48705  0.06005  1.0000
  H   H454      1.0  0.24892  0.39365  0.23727  1.0000
  C   C260      1.0  0.32406  0.50863  0.42800  1.0000
  H   H455      1.0  0.34554  0.36608  0.14563  1.0000
  H   H456      1.0  0.14851  0.33540  0.38186  1.0000
  H   H457      1.0  0.11665  0.34817  0.43534  1.0000
  H   H458      1.0  0.03659  0.48780  0.33413  1.0000
  C   C261      1.0  0.35809  0.51159  0.44046  1.0000
  H   H459      1.0  0.24525  0.45729  0.09557  1.0000
  H   H460      1.0  0.32078  0.48351  0.43085  1.0000
  H   H461      1.0  0.31774  0.49292  0.46834  1.0000
  H   H462      1.0  0.31662  0.37828  0.22787  1.0000
  H   H463      1.0  0.12103  0.41851  0.45253  1.0000
  H   H464      1.0  0.27769  0.48568  0.39034  1.0000
  H   H465      1.0  0.27087  0.50598  0.39673  1.0000
  C   C262      1.0  0.45389  0.34212  0.10244  1.0000
  H   H466      1.0  0.19799  0.46736  0.19381  1.0000
  S   S64       1.0  0.21615  0.32980  0.39359  1.0000
  H   H467      1.0  0.17269  0.42136  0.44109  1.0000
  H   H468      1.0  0.32532  0.50727  0.40141  1.0000
  H   H469      1.0  0.30938  0.51910  0.43313  1.0000
  C   C263      1.0  0.22047  0.48430  0.12063  1.0000
  C   C264      1.0  0.29508  0.40077  0.21797  1.0000
  H   H470      1.0  0.16514  0.36572  0.44069  1.0000
  H   H471      1.0  0.11439  0.37785  0.43203  1.0000
  C   C265      1.0  0.47976  0.43890  0.09286  1.0000
  H   H472      1.0  0.19533  0.49522  0.35667  1.0000
  H   H473      1.0  0.45718  0.47978  0.07573  1.0000
  H   H474      1.0  0.38232  0.39548  0.14231  1.0000
  H   H475      1.0  0.24365  0.50731  0.08549  1.0000
  C   C266      1.0  0.28667  0.49672  0.13302  1.0000
  H   H476      1.0  0.35805  0.51379  0.46683  1.0000
  H   H477      1.0  0.37365  0.50141  0.43524  1.0000
  H   H478      1.0  0.36825  0.52202  0.42837  1.0000
  C   C267      1.0  0.30567  0.38431  0.20670  1.0000
  H   H479      1.0  0.06081  0.37459  0.39537  1.0000
  H   H480      1.0  0.22827  0.50880  0.35701  1.0000
  C   C268      1.0  0.16339  0.33735  0.26871  1.0000
  C   C269      1.0  0.16207  0.48649  0.44381  1.0000
  H   H481      1.0  0.03872  0.50041  0.36865  1.0000
  H   H482      1.0  0.46889  0.38268  0.06562  1.0000
  C   C270      1.0  0.35882  0.39215  0.18909  1.0000
  C   C271      1.0  0.02281  0.49623  0.34884  1.0000
  C   C272      1.0  0.25337  0.44882  0.03221  1.0000
  N   N15       1.0  0.24595  0.48255  0.09539  1.0000
  H   H483      1.0  0.26317  0.33117  0.27620  1.0000
  H   H484      1.0  0.48004  0.40083  0.08516  1.0000
  H   H485      1.0  0.48121  0.34801  0.06110  1.0000
  H   H486      1.0  0.45697  0.35367  0.11422  1.0000
  H   H487      1.0  0.15237  0.33545  0.32015  1.0000
  C   C273      1.0  0.21306  0.49625  0.05028  1.0000
  C   C274      1.0  0.25043  0.33047  0.29939  1.0000
  H   H488      1.0  0.19105  0.49704  0.06490  1.0000
  H   H489      1.0  0.38531  0.33075  0.03472  1.0000
  C   C275      1.0  0.27292  0.51035  0.49163  1.0000
  C   C276      1.0  0.07776  0.40492  0.45011  1.0000
  H   H490      1.0  0.32597  0.33859  0.13757  1.0000
  H   H491      1.0  0.03409  0.41490  0.43012  1.0000
  C   C277      1.0  0.26329  0.45419  0.49174  1.0000
  H   H492      1.0  0.44849  0.46677  0.99775  1.0000
  H   H493      1.0  0.01597  0.50623  0.33327  1.0000
  H   H494      1.0  0.29364  0.51792  0.48580  1.0000
  H   H495      1.0  0.01523  0.46605  0.30210  1.0000
  H   H496      1.0  0.25123  0.33199  0.18838  1.0000
  H   H497      1.0  0.49928  0.46688  0.04587  1.0000
  H   H498      1.0  0.06725  0.42840  0.43258  1.0000
  H   H499      1.0  0.47255  0.33408  0.11189  1.0000
  H   H500      1.0  0.01695  0.41684  0.36433  1.0000
  H   H501      1.0  0.00548  0.38207  0.40737  1.0000
  H   H502      1.0  0.00703  0.36248  0.39124  1.0000
  C   C278      1.0  0.10838  0.33418  0.29369  1.0000
  H   H503      1.0  0.21014  0.33256  0.17421  1.0000
  H   H504      1.0  0.10187  0.37545  0.47254  1.0000
  H   H505      1.0  0.40810  0.47172  0.00849  1.0000
  H   H506      1.0  0.16124  0.36522  0.48337  1.0000
  H   H507      1.0  0.07067  0.40797  0.47499  1.0000
  H   H508      1.0  0.09389  0.33690  0.31527  1.0000
  H   H509      1.0  0.09658  0.33943  0.27224  1.0000
  H   H510      1.0  0.11525  0.34703  0.47883  1.0000
  S   S65       1.0  0.20002  0.64995  0.55669  1.0000
  H   H511      1.0  0.27246  0.65812  0.64357  1.0000
  Fe  Fe33      1.0  0.36039  0.56579  0.84347  1.0000
  S   S66       1.0  0.37131  0.54969  0.80192  1.0000
  S   S67       1.0  0.36594  0.59130  0.82869  1.0000
  Fe  Fe34      1.0  0.34909  0.53801  0.88999  1.0000
  S   S68       1.0  0.35779  0.52059  0.85089  1.0000
  S   S69       1.0  0.34513  0.53099  0.94321  1.0000
  Fe  Fe35      1.0  0.39985  0.53582  0.83809  1.0000
  S   S70       1.0  0.44853  0.52405  0.83771  1.0000
  Fe  Fe36      1.0  0.32817  0.53629  0.81849  1.0000
  S   S71       1.0  0.28783  0.52652  0.78631  1.0000
  S   S72       1.0  0.39219  0.55279  0.87815  1.0000
  S   S73       1.0  0.31610  0.55286  0.85892  1.0000
  Fe  Fe37      1.0  0.14050  0.56464  0.58789  1.0000
  S   S74       1.0  0.14658  0.55520  0.63774  1.0000
  S   S75       1.0  0.11879  0.58891  0.58759  1.0000
  Fe  Fe38      1.0  0.16176  0.53348  0.55713  1.0000
  S   S76       1.0  0.17028  0.52207  0.60548  1.0000
  C   C279      1.0  0.17525  0.49126  0.50957  1.0000
  Fe  Fe39      1.0  0.12351  0.53347  0.61870  1.0000
  S   S77       1.0  0.08382  0.52162  0.64610  1.0000
  Fe  Fe40      1.0  0.19283  0.54504  0.62091  1.0000
  S   S78       1.0  0.23800  0.55175  0.64968  1.0000
  S   S79       1.0  0.11373  0.54348  0.56998  1.0000
  S   S80       1.0  0.18798  0.55571  0.57133  1.0000
  C   C280      1.0  0.04411  0.54581  0.62822  1.0000
  C   C281      1.0  0.04666  0.53130  0.64342  1.0000
  S   S81       1.0  0.16436  0.52340  0.50597  1.0000
  H   H512      1.0  0.06512  0.55139  0.61850  1.0000
  H   H513      1.0  0.26853  0.45118  0.51725  1.0000
  C   C282      1.0  0.48492  0.53413  0.83096  1.0000
  H   H514      1.0  0.04978  0.50868  0.54129  1.0000
  C   C283      1.0  0.48633  0.54729  0.81115  1.0000
  C   C284      1.0  0.01443  0.55343  0.62651  1.0000
  H   H515      1.0  0.46454  0.55183  0.80054  1.0000
  C   C285      1.0  0.27470  0.53360  0.74812  1.0000
  C   C286      1.0  0.28959  0.54621  0.73291  1.0000
  C   C287      1.0  0.27827  0.55147  0.70271  1.0000
  C   C288      1.0  0.25181  0.54431  0.68736  1.0000
  C   C289      1.0  0.23699  0.53168  0.70248  1.0000
  C   C290      1.0  0.24839  0.52637  0.73266  1.0000
  H   H516      1.0  0.30993  0.55184  0.74439  1.0000
  H   H517      1.0  0.29015  0.56115  0.69129  1.0000
  H   H518      1.0  0.21697  0.52590  0.69077  1.0000
  H   H519      1.0  0.23691  0.51651  0.74406  1.0000
  H   H520      1.0  0.06100  0.57911  0.71743  1.0000
  C   C291      1.0  0.48701  0.60476  0.90246  1.0000
  H   H521      1.0  0.30815  0.63605  0.62979  1.0000
  C   C292      1.0  0.29418  0.62091  0.74600  1.0000
  H   H522      1.0  0.15610  0.40836  0.55997  1.0000
  C   C293      1.0  0.28491  0.63704  0.61678  1.0000
  H   H523      1.0  0.10656  0.52606  0.81967  1.0000
  H   H524      1.0  0.46994  0.49350  0.86300  1.0000
  C   C294      1.0  0.43514  0.64080  0.88075  1.0000
  C   C295      1.0  0.34164  0.63659  0.88219  1.0000
  C   C296      1.0  0.35751  0.63689  0.85277  1.0000
  C   C297      1.0  0.36416  0.62289  0.83651  1.0000
  C   C298      1.0  0.35513  0.60844  0.84953  1.0000
  C   C299      1.0  0.33880  0.60809  0.87871  1.0000
  C   C300      1.0  0.33219  0.62214  0.89504  1.0000
  H   H525      1.0  0.36551  0.64787  0.84303  1.0000
  H   H526      1.0  0.37698  0.62323  0.81401  1.0000
  H   H527      1.0  0.33148  0.59701  0.88877  1.0000
  H   H528      1.0  0.31986  0.62181  0.91782  1.0000
  C   C301      1.0  0.17641  0.63324  0.56475  1.0000
  C   C302      1.0  0.14988  0.63388  0.58498  1.0000
  C   C303      1.0  0.13228  0.62022  0.59154  1.0000
  C   C304      1.0  0.14139  0.60578  0.57845  1.0000
  C   C305      1.0  0.16782  0.60515  0.55810  1.0000
  C   C306      1.0  0.18504  0.61886  0.55108  1.0000
  H   H529      1.0  0.14285  0.64488  0.59548  1.0000
  H   H530      1.0  0.11166  0.62082  0.60703  1.0000
  C   C307      1.0  0.33925  0.48131  0.98684  1.0000
  H   H531      1.0  0.20511  0.61837  0.53487  1.0000
  H   H532      1.0  0.48585  0.59197  0.89840  1.0000
  H   H533      1.0  0.26350  0.52496  0.53329  1.0000
  N   N16       1.0  0.45710  0.61276  0.89026  1.0000
  C   C308      1.0  0.30233  0.60399  0.75446  1.0000
  H   H534      1.0  0.04314  0.56874  0.68403  1.0000
  H   H535      1.0  0.13960  0.51504  0.75287  1.0000
  H   H536      1.0  0.31394  0.62551  0.73113  1.0000
  H   H537      1.0  0.27173  0.62070  0.73154  1.0000
  H   H538      1.0  0.45478  0.54033  0.92673  1.0000
  C   C309      1.0  0.47242  0.48641  0.88543  1.0000
  C   C310      1.0  0.25026  0.51996  0.51235  1.0000
  H   H539      1.0  0.46785  0.51441  0.90085  1.0000
  H   H540      1.0  0.30475  0.59698  0.73211  1.0000
  H   H541      1.0  0.46315  0.58020  0.79679  1.0000
  C   C311      1.0  0.42797  0.60818  0.90926  1.0000
  C   C312      1.0  0.25130  0.66061  0.85607  1.0000
  C   C313      1.0  0.25325  0.65288  0.71759  1.0000
  H   H542      1.0  0.17931  0.55245  0.70779  1.0000
  H   H543      1.0  0.10594  0.48570  0.59142  1.0000
  H   H544      1.0  0.02114  0.51332  0.66884  1.0000
  H   H545      1.0  0.04565  0.51763  0.57958  1.0000
  H   H546      1.0  0.45149  0.58358  0.85441  1.0000
  H   H547      1.0  0.20497  0.66250  0.71438  1.0000
  H   H548      1.0  0.18064  0.49300  0.53485  1.0000
  N   N17       1.0  0.44762  0.49141  0.90965  1.0000
  H   H549      1.0  0.29380  0.66155  0.60675  1.0000
  H   H550      1.0  0.27720  0.58570  0.54102  1.0000
  C   C314      1.0  0.09322  0.49466  0.57692  1.0000
  H   H551      1.0  0.31294  0.65126  0.72896  1.0000
  C   C315      1.0  0.03899  0.50699  0.56547  1.0000
  C   C316      1.0  0.40333  0.47492  0.88078  1.0000
  C   C317      1.0  0.44013  0.53401  0.94475  1.0000
  C   C318      1.0  0.34556  0.65321  0.76854  1.0000
  H   H552      1.0  0.01284  0.56483  0.61554  1.0000
  H   H553      1.0  0.43029  0.49339  0.97835  1.0000
  C   C319      1.0  0.21673  0.57190  0.74272  1.0000
  C   C320      1.0  0.44896  0.48017  0.93754  1.0000
  C   C321      1.0  0.41541  0.49110  0.89270  1.0000
  H   H554      1.0  0.05350  0.49472  0.60947  1.0000
  H   H555      1.0  0.44687  0.46792  0.92875  1.0000
  H   H556      1.0  0.41295  0.63936  0.89493  1.0000
  H   H557      1.0  0.10597  0.53000  0.71421  1.0000
  S   S82       1.0  0.33417  0.65397  0.90390  1.0000
  H   H558      1.0  0.23129  0.65022  0.81363  1.0000
  H   H559      1.0  0.39965  0.48381  0.95453  1.0000
  C   C322      1.0  0.05722  0.49366  0.58308  1.0000
  C   C323      1.0  0.49533  0.60696  0.93868  1.0000
  H   H560      1.0  0.24178  0.66217  0.76344  1.0000
  C   C324      1.0  0.25462  0.65013  0.82654  1.0000
  H   H561      1.0  0.49995  0.61939  0.94463  1.0000
  C   C325      1.0  0.45588  0.50786  0.92055  1.0000
  H   H562      1.0  0.25916  0.63809  0.83536  1.0000
  C   C326      1.0  0.48501  0.35107  0.99251  1.0000
  H   H563      1.0  0.17462  0.59414  0.54739  1.0000
  H   H564      1.0  0.18684  0.54351  0.74573  1.0000
  H   H565      1.0  0.30468  0.65332  0.81925  1.0000
  C   C327      1.0  0.15135  0.38946  0.52489  1.0000
  C   C328      1.0  0.12859  0.54569  0.77049  1.0000
  H   H566      1.0  0.27382  0.66064  0.87047  1.0000
  C   C329      1.0  0.09054  0.53593  0.81320  1.0000
  H   H567      1.0  0.04907  0.48188  0.57589  1.0000
  H   H568      1.0  0.31017  0.62872  0.79338  1.0000
  H   H569      1.0  0.39620  0.49571  0.90826  1.0000
  H   H570      1.0  0.17709  0.39011  0.51890  1.0000
  C   C330      1.0  0.14777  0.39603  0.55891  1.0000
  H   H571      1.0  0.23853  0.59438  0.53262  1.0000
  H   H572      1.0  0.03044  0.53579  0.54343  1.0000
  C   C331      1.0  0.31158  0.65553  0.75408  1.0000
  C   C332      1.0  0.27517  0.65422  0.61824  1.0000
  H   H573      1.0  0.23494  0.64178  0.76064  1.0000
  H   H574      1.0  0.47568  0.60255  0.95401  1.0000
  C   C333      1.0  0.42409  0.46902  0.98801  1.0000
  H   H575      1.0  0.42872  0.59246  0.80144  1.0000
  H   H576      1.0  0.41277  0.52150  0.90937  1.0000
  H   H577      1.0  0.46863  0.47408  0.87800  1.0000
  C   C334      1.0  0.42784  0.51859  0.93072  1.0000
  H   H578      1.0  0.10515  0.39628  0.50773  1.0000
  C   C335      1.0  0.18142  0.56831  0.74863  1.0000
  H   H579      1.0  0.23206  0.56275  0.75381  1.0000
  H   H580      1.0  0.16737  0.57810  0.73837  1.0000
  C   C336      1.0  0.13164  0.53321  0.71618  1.0000
  C   C337      1.0  0.11726  0.56135  0.72122  1.0000
  H   H581      1.0  0.06545  0.53231  0.81785  1.0000
  H   H582      1.0  0.13114  0.56739  0.70211  1.0000
  C   C338      1.0  0.09412  0.54015  0.77766  1.0000
  H   H583      1.0  0.13936  0.53509  0.69094  1.0000
  H   H584      1.0  0.23077  0.51244  0.52168  1.0000
  H   H585      1.0  0.46535  0.61821  0.83990  1.0000
  C   C339      1.0  0.02718  0.59877  0.58517  1.0000
  H   H586      1.0  0.25532  0.47826  0.50248  1.0000
  H   H587      1.0  0.48504  0.63380  0.88305  1.0000
  H   H588      1.0  0.06925  0.54997  0.71992  1.0000
  H   H589      1.0  0.46964  0.35459  0.97178  1.0000
  H   H590      1.0  0.08010  0.57921  0.67834  1.0000
  H   H591      1.0  0.32535  0.60342  0.76808  1.0000
  H   H592      1.0  0.16251  0.38908  0.57604  1.0000
  H   H593      1.0  0.41586  0.49910  0.87157  1.0000
  C   C340      1.0  0.28947  0.63076  0.77683  1.0000
  C   C341      1.0  0.39483  0.58718  0.93620  1.0000
  C   C342      1.0  0.08478  0.55731  0.70468  1.0000
  H   H594      1.0  0.32780  0.50062  0.91526  1.0000
  H   H595      1.0  0.17503  0.52010  0.73089  1.0000
  H   H596      1.0  0.17801  0.56816  0.77508  1.0000
  H   H597      1.0  0.32421  0.47408  0.93927  1.0000
  C   C343      1.0  0.45493  0.59172  0.80565  1.0000
  H   H598      1.0  0.26869  0.62546  0.78934  1.0000
  H   H599      1.0  0.44984  0.66139  0.90825  1.0000
  C   C344      1.0  0.33400  0.49886  0.94033  1.0000
  H   H600      1.0  0.14578  0.53740  0.78189  1.0000
  H   H601      1.0  0.40973  0.58683  0.88694  1.0000
  C   C345      1.0  0.35066  0.50916  0.99197  1.0000
  H   H602      1.0  0.20730  0.64169  0.70693  1.0000
  H   H603      1.0  0.07695  0.54969  0.77245  1.0000
  H   H604      1.0  0.08734  0.52969  0.76338  1.0000
  C   C346      1.0  0.34330  0.51167  0.95919  1.0000
  H   H605      1.0  0.25226  0.65608  0.60503  1.0000
  H   H606      1.0  0.40620  0.61386  0.89911  1.0000
  C   C347      1.0  0.45213  0.60949  0.85464  1.0000
  H   H607      1.0  0.08923  0.55086  0.68202  1.0000
  H   H608      1.0  0.11722  0.50192  0.70388  1.0000
  H   H609      1.0  0.48937  0.59210  0.84378  1.0000
  H   H610      1.0  0.11275  0.57043  0.73986  1.0000
  H   H611      1.0  0.26659  0.64333  0.70599  1.0000
  H   H612      1.0  0.24158  0.57385  0.54121  1.0000
  H   H613      1.0  0.36456  0.34490  0.96973  1.0000
  H   H614      1.0  0.13179  0.55678  0.78410  1.0000
  H   H615      1.0  0.22155  0.57249  0.71648  1.0000
  H   H616      1.0  0.44099  0.58326  0.91628  1.0000
  C   C348      1.0  0.41989  0.59056  0.91051  1.0000
  H   H617      1.0  0.42984  0.61274  0.93433  1.0000
  H   H618      1.0  0.47365  0.50758  0.94070  1.0000
  H   H619      1.0  0.09835  0.49261  0.55106  1.0000
  H   H620      1.0  0.15275  0.50722  0.68183  1.0000
  H   H621      1.0  0.42646  0.61093  0.84787  1.0000
  C   C349      1.0  0.37095  0.47634  0.86359  1.0000
  H   H622      1.0  0.28319  0.59866  0.76927  1.0000
  N   N18       1.0  0.28426  0.64802  0.77199  1.0000
  H   H623      1.0  0.28354  0.60693  0.58030  1.0000
  H   H624      1.0  0.47266  0.48080  0.94982  1.0000
  C   C350      1.0  0.33179  0.48383  0.95411  1.0000
  H   H625      1.0  0.22322  0.58330  0.75376  1.0000
  N   N19       1.0  0.13655  0.54802  0.73550  1.0000
  C   C351      1.0  0.14884  0.51839  0.72889  1.0000
  H   H626      1.0  0.45464  0.53192  0.96685  1.0000
  H   H627      1.0  0.40454  0.58991  0.96056  1.0000
  H   H628      1.0  0.34733  0.65812  0.79305  1.0000
  C   C352      1.0  0.28265  0.65562  0.80486  1.0000
  H   H629      1.0  0.28839  0.63389  0.59111  1.0000
  C   C353      1.0  0.06625  0.57205  0.69566  1.0000
  H   H630      1.0  0.03490  0.59722  0.55984  1.0000
  H   H631      1.0  0.15565  0.49409  0.71561  1.0000
  H   H632      1.0  0.09634  0.54613  0.82877  1.0000
  H   H633      1.0  0.35194  0.64066  0.76939  1.0000
  H   H634      1.0  0.18724  0.46674  0.51009  1.0000
  H   H635      1.0  0.12240  0.39542  0.56664  1.0000
  H   H636      1.0  0.35267  0.48112  0.88009  1.0000
  H   H637      1.0  0.37290  0.48410  0.84226  1.0000
  H   H638      1.0  0.36278  0.46465  0.85528  1.0000
  N   N20       1.0  0.26338  0.60900  0.62793  1.0000
  C   C354      1.0  0.23857  0.60092  0.64829  1.0000
  C   C355      1.0  0.29625  0.60471  0.64045  1.0000
  C   C356      1.0  0.25924  0.62642  0.63242  1.0000
  C   C357      1.0  0.26012  0.60524  0.59244  1.0000
  C   C358      1.0  0.24716  0.58879  0.58323  1.0000
  C   C359      1.0  0.20372  0.60668  0.64333  1.0000
  C   C360      1.0  0.30539  0.58723  0.63869  1.0000
  C   C361      1.0  0.33682  0.58408  0.65666  1.0000
  C   C362      1.0  0.25143  0.58555  0.54732  1.0000
  C   C363      1.0  0.17951  0.59494  0.65621  1.0000
  H   H639      1.0  0.24439  0.60242  0.67436  1.0000
  H   H640      1.0  0.23874  0.58810  0.64449  1.0000
  H   H641      1.0  0.31516  0.61080  0.62660  1.0000
  H   H642      1.0  0.29905  0.60867  0.66592  1.0000
  H   H643      1.0  0.25851  0.62936  0.65848  1.0000
  H   H644      1.0  0.23580  0.63026  0.62209  1.0000
  H   H645      1.0  0.24380  0.61367  0.58026  1.0000
  H   H646      1.0  0.22122  0.58797  0.58850  1.0000
  H   H647      1.0  0.25916  0.57930  0.59667  1.0000
  H   H648      1.0  0.20011  0.61791  0.65622  1.0000
  H   H649      1.0  0.19848  0.60864  0.61751  1.0000
  H   H650      1.0  0.28696  0.57961  0.64942  1.0000
  H   H651      1.0  0.30895  0.58374  0.61323  1.0000
  H   H652      1.0  0.33447  0.58685  0.68267  1.0000
  H   H653      1.0  0.34303  0.57152  0.65442  1.0000
  H   H654      1.0  0.35661  0.59112  0.64637  1.0000
  H   H655      1.0  0.10268  0.50632  0.58395  1.0000
  H   H656      1.0  0.42958  0.63819  0.85514  1.0000
  H   H657      1.0  0.15486  0.59952  0.65282  1.0000
  H   H658      1.0  0.18140  0.58383  0.64262  1.0000
  H   H659      1.0  0.18379  0.59269  0.68221  1.0000
  H   H660      1.0  0.22050  0.65542  0.67693  1.0000
  H   H661      1.0  0.03847  0.58943  0.59988  1.0000
  C   C364      1.0  0.42418  0.48271  0.96441  1.0000
  H   H662      1.0  0.42000  0.46963  0.86332  1.0000
  C   C365      1.0  0.46298  0.59337  0.84148  1.0000
  C   C366      1.0  0.17162  0.55235  0.73346  1.0000
  H   H663      1.0  0.40016  0.46681  0.90133  1.0000
  H   H664      1.0  0.02873  0.47855  0.52874  1.0000
  H   H665      1.0  0.41235  0.51303  0.94883  1.0000
  C   C367      1.0  0.14320  0.50458  0.70612  1.0000
  C   C368      1.0  0.37074  0.66160  0.74842  1.0000
  H   H666      1.0  0.46425  0.63333  0.92027  1.0000
  C   C369      1.0  0.44470  0.65801  0.88289  1.0000
  H   H667      1.0  0.37101  0.65690  0.72349  1.0000
  H   H668      1.0  0.38809  0.57463  0.93557  1.0000
  H   H669      1.0  0.41942  0.54149  0.95114  1.0000
  C   C370      1.0  0.46210  0.63016  0.89438  1.0000
  C   C371      1.0  0.21940  0.65310  0.70321  1.0000
  H   H670      1.0  0.46609  0.66040  0.86798  1.0000
  H   H671      1.0  0.03607  0.61021  0.59427  1.0000
  H   H672      1.0  0.46705  0.60095  0.79150  1.0000
  H   H673      1.0  0.23179  0.65617  0.87157  1.0000
  H   H674      1.0  0.37291  0.59419  0.93192  1.0000
  H   H675      1.0  0.14355  0.37709  0.52572  1.0000
  C   C372      1.0  0.01927  0.52445  0.65669  1.0000
  H   H676      1.0  0.13393  0.41129  0.50499  1.0000
  C   C373      1.0  0.13031  0.39858  0.50058  1.0000
  C   C374      1.0  0.25266  0.65107  0.75477  1.0000
  H   H677      1.0  0.42360  0.33784  0.97301  1.0000
  H   H678      1.0  0.39479  0.65989  0.75948  1.0000
  H   H679      1.0  0.41485  0.45829  0.97598  1.0000
  C   C375      1.0  0.00517  0.53333  0.53659  1.0000
  H   H680      1.0  0.28197  0.50064  0.50662  1.0000
  H   H681      1.0  0.23959  0.52970  0.49828  1.0000
  C   C376      1.0  0.17900  0.47637  0.49542  1.0000
  Fe  Fe41      1.0  0.17583  0.78686  0.12199  1.0000
  S   S83       1.0  0.21610  0.79053  0.08742  1.0000
  S   S84       1.0  0.17943  0.78400  0.17664  1.0000
  Fe  Fe42      1.0  0.12376  0.78922  0.06877  1.0000
  S   S85       1.0  0.16090  0.79296  0.03023  1.0000
  S   S86       1.0  0.07086  0.79199  0.05377  1.0000
  Fe  Fe43      1.0  0.18959  0.77387  0.05420  1.0000
  S   S87       1.0  0.21128  0.75182  0.03069  1.0000
  Fe  Fe44      1.0  0.18455  0.80928  0.06592  1.0000
  S   S88       1.0  0.20514  0.83307  0.05288  1.0000
  S   S89       1.0  0.15057  0.76905  0.09059  1.0000
  S   S90       1.0  0.14627  0.80674  0.10274  1.0000
  Fe  Fe45      1.0  0.32974  0.80144  0.37317  1.0000
  S   S91       1.0  0.35705  0.79957  0.32760  1.0000
  S   S92       1.0  0.31475  0.82508  0.39292  1.0000
  Fe  Fe46      1.0  0.32588  0.76613  0.38174  1.0000
  S   S93       1.0  0.35382  0.76204  0.33564  1.0000
  S   S94       1.0  0.30623  0.74464  0.40907  1.0000
  Fe  Fe47      1.0  0.38689  0.78138  0.35269  1.0000
  S   S95       1.0  0.43959  0.78506  0.33832  1.0000
  Fe  Fe48      1.0  0.32247  0.78063  0.31351  1.0000
  S   S96       1.0  0.30878  0.78196  0.25991  1.0000
  S   S97       1.0  0.36117  0.78435  0.39999  1.0000
  S   S98       1.0  0.29283  0.78355  0.35804  1.0000
  Fe  Fe49      1.0  0.38149  0.94426  0.32331  1.0000
  S   S99       1.0  0.38113  0.92887  0.36660  1.0000
  S   S100      1.0  0.42698  0.95669  0.30809  1.0000
  Fe  Fe50      1.0  0.30913  0.94027  0.31221  1.0000
  S   S101      1.0  0.30427  0.92478  0.35599  1.0000
  S   S102      1.0  0.26403  0.94664  0.28353  1.0000
  Fe  Fe51      1.0  0.33729  0.94220  0.38094  1.0000
  S   S103      1.0  0.33816  0.95066  0.43337  1.0000
  Fe  Fe52      1.0  0.34889  0.91316  0.33773  1.0000
  S   S104      1.0  0.36264  0.88795  0.32791  1.0000
  S   S105      1.0  0.33889  0.95834  0.33866  1.0000
  S   S106      1.0  0.35196  0.92784  0.29288  1.0000
  Fe  Fe53      1.0  0.14412  0.92097  0.07095  1.0000
  S   S107      1.0  0.14323  0.93324  0.11886  1.0000
  S   S108      1.0  0.12607  0.89582  0.07245  1.0000
  Fe  Fe54      1.0  0.16248  0.95144  0.03449  1.0000
  S   S109      1.0  0.16368  0.96546  0.08032  1.0000
  H   H682      1.0  0.41217  0.99092  0.44376  1.0000
  Fe  Fe55      1.0  0.18884  0.94476  0.10307  1.0000
  S   S110      1.0  0.23592  0.94476  0.13207  1.0000
  Fe  Fe56      1.0  0.11802  0.95253  0.09207  1.0000
  S   S111      1.0  0.07315  0.96526  0.10760  1.0000
  S   S112      1.0  0.19097  0.93149  0.05596  1.0000
  S   S113      1.0  0.11566  0.93953  0.04541  1.0000
  C   C377      1.0  0.25624  0.94458  0.24156  1.0000
  C   C378      1.0  0.22509  0.94737  0.22975  1.0000
  C   C379      1.0  0.21820  0.94702  0.19643  1.0000
  C   C380      1.0  0.24265  0.94428  0.17440  1.0000
  C   C381      1.0  0.27381  0.94140  0.18620  1.0000
  C   C382      1.0  0.28047  0.94122  0.21959  1.0000
  H   H683      1.0  0.20616  0.95000  0.24650  1.0000
  H   H684      1.0  0.19416  0.94930  0.18776  1.0000
  H   H685      1.0  0.29290  0.93922  0.16937  1.0000
  H   H686      1.0  0.30450  0.93896  0.22827  1.0000
  C   C383      1.0  0.03670  0.93912  0.09458  1.0000
  C   C384      1.0  0.03676  0.95475  0.10420  1.0000
  H   H687      1.0  0.11971  0.72549  0.41714  1.0000
  H   H688      1.0  0.05901  0.93335  0.08923  1.0000
  H   H689      1.0  0.34588  0.83280  0.27330  1.0000
  H   H690      1.0  0.14321  0.70104  0.46692  1.0000
  C   C385      1.0  0.46366  0.94868  0.32183  1.0000
  C   C386      1.0  0.46425  0.93446  0.33819  1.0000
  C   C387      1.0  0.39200  0.99177  0.35258  1.0000
  H   H691      1.0  0.44241  0.92799  0.34164  1.0000
  C   C388      1.0  0.34023  0.97036  0.44705  1.0000
  H   H692      1.0  0.05270  0.76772  0.10054  1.0000
  H   H693      1.0  0.44476  0.81557  0.36366  1.0000
  C   C389      1.0  0.32938  0.84259  0.37587  1.0000
  C   C390      1.0  0.31981  0.85704  0.38859  1.0000
  C   C391      1.0  0.33015  0.87115  0.37461  1.0000
  C   C392      1.0  0.35015  0.87083  0.34781  1.0000
  C   C393      1.0  0.36029  0.85640  0.33565  1.0000
  C   C394      1.0  0.34986  0.84237  0.34950  1.0000
  H   H694      1.0  0.30404  0.85732  0.40909  1.0000
  H   H695      1.0  0.32233  0.88222  0.38426  1.0000
  H   H696      1.0  0.37579  0.85607  0.31493  1.0000
  H   H697      1.0  0.35736  0.83141  0.33940  1.0000
  C   C395      1.0  0.21557  0.78350  0.19955  1.0000
  C   C396      1.0  0.24535  0.78608  0.18542  1.0000
  C   C397      1.0  0.27346  0.78577  0.20445  1.0000
  C   C398      1.0  0.27223  0.78289  0.23777  1.0000
  C   C399      1.0  0.24240  0.78060  0.25204  1.0000
  C   C400      1.0  0.21423  0.78091  0.23298  1.0000
  H   H698      1.0  0.24672  0.78835  0.15988  1.0000
  H   H699      1.0  0.29639  0.78773  0.19324  1.0000
  H   H700      1.0  0.24110  0.77834  0.27761  1.0000
  H   H701      1.0  0.19128  0.77898  0.24416  1.0000
  C   C401      1.0  0.18291  0.85047  0.05824  1.0000
  C   C402      1.0  0.19524  0.86471  0.04689  1.0000
  C   C403      1.0  0.17829  0.87876  0.05122  1.0000
  C   C404      1.0  0.14890  0.87866  0.06705  1.0000
  C   C405      1.0  0.13676  0.86446  0.07865  1.0000
  C   C406      1.0  0.15367  0.85044  0.07433  1.0000
  H   H702      1.0  0.21782  0.86483  0.03437  1.0000
  H   H703      1.0  0.18761  0.88958  0.04170  1.0000
  H   H704      1.0  0.11409  0.86430  0.09096  1.0000
  H   H705      1.0  0.14409  0.83962  0.08338  1.0000
  C   C407      1.0  0.42835  0.92828  0.43942  1.0000
  H   H706      1.0  0.11945  0.74256  0.44090  1.0000
  H   H707      1.0  0.36969  0.99239  0.36686  1.0000
  H   H708      1.0  0.28088  0.81342  0.28878  1.0000
  C   C408      1.0  0.38548  0.81435  0.45481  1.0000
  H   H709      1.0  0.47378  0.87786  0.32016  1.0000
  C   C409      1.0  0.28551  0.74078  0.44589  1.0000
  H   H710      1.0  0.39295  0.82061  0.47710  1.0000
  H   H711      1.0  0.42712  0.97741  0.49225  1.0000
  H   H712      1.0  0.39013  0.98202  0.33508  1.0000
  H   H713      1.0  0.32072  0.98060  0.40394  1.0000
  C   C410      1.0  0.47911  0.78277  0.35450  1.0000
  H   H714      1.0  0.25392  0.85480  0.26738  1.0000
  H   H715      1.0  0.44113  0.81203  0.41963  1.0000
  H   H716      1.0  0.38607  0.81722  0.40362  1.0000
  H   H717      1.0  0.00670  0.80247  0.04208  1.0000
  C   C411      1.0  0.03354  0.78565  0.06982  1.0000
  C   C412      1.0  0.03128  0.77373  0.09268  1.0000
  H   H718      1.0  0.37616  0.94948  0.24268  1.0000
  C   C413      1.0  0.05410  0.83714  0.10196  1.0000
  H   H719      1.0  0.40803  0.95763  0.44624  1.0000
  C   C414      1.0  0.12186  0.72965  0.44249  1.0000
  C   C415      1.0  0.27200  0.85948  0.31493  1.0000
  H   H720      1.0  0.20855  0.80811  0.32152  1.0000
  H   H721      1.0  0.24906  0.95762  0.47082  1.0000
  C   C416      1.0  0.04952  0.80130  0.16048  1.0000
  H   H722      1.0  0.39330  0.97361  0.40420  1.0000
  C   C417      1.0  0.35305  0.98893  0.49042  1.0000
  H   H723      1.0  0.28467  0.82379  0.23565  1.0000
  N   N21       1.0  0.31308  0.98863  0.24427  1.0000
  H   H724      1.0  0.01316  0.89297  0.06955  1.0000
  C   C418      1.0  0.29053  0.99550  0.33459  1.0000
  H   H725      1.0  0.22009  0.79568  0.37349  1.0000
  H   H726      1.0  0.08298  0.79155  0.12540  1.0000
  H   H727      1.0  0.43351  0.94246  0.39733  1.0000
  H   H728      1.0  0.20745  0.81494  0.20790  1.0000
  C   C419      1.0  0.33226  0.82603  0.25485  1.0000
  C   C420      1.0  0.00676  0.96779  0.99700  1.0000
  H   H729      1.0  0.02927  0.84149  0.10211  1.0000
  H   H730      1.0  0.04270  0.87484  0.12628  1.0000
  C   C421      1.0  0.19481  0.82528  0.21754  1.0000
  H   H731      1.0  0.22401  0.85514  0.29709  1.0000
  H   H732      1.0  0.29353  0.71265  0.02788  1.0000
  C   C422      1.0  0.00777  0.93080  0.09242  1.0000
  C   C423      1.0  0.21748  0.83476  0.23915  1.0000
  C   C424      1.0  0.23112  0.81139  0.33413  1.0000
  H   H733      1.0  0.47299  0.86676  0.40890  1.0000
  H   H734      1.0  0.23548  0.97959  0.17958  1.0000
  C   C425      1.0  0.05665  0.82041  0.11592  1.0000
  H   H735      1.0  0.33724  0.96180  0.20425  1.0000
  H   H736      1.0  0.32202  0.96476  0.25897  1.0000
  H   H737      1.0  0.16124  0.73737  0.39080  1.0000
  H   H738      1.0  0.06765  0.77015  0.16312  1.0000
  H   H739      1.0  0.26579  0.85747  0.34050  1.0000
  H   H740      1.0  0.44257  0.98895  0.35914  1.0000
  H   H741      1.0  0.20006  0.82595  0.28322  1.0000
  H   H742      1.0  0.05664  0.87502  0.08500  1.0000
  H   H743      1.0  0.45394  0.81606  0.30458  1.0000
  H   H744      1.0  0.26239  0.99213  0.15754  1.0000
  H   H745      1.0  0.09000  0.83290  0.06502  1.0000
  N   N22       1.0  0.27754  0.74510  0.11865  1.0000
  C   C426      1.0  0.29685  0.73278  0.10156  1.0000
  C   C427      1.0  0.29265  0.74828  0.15121  1.0000
  C   C428      1.0  0.24458  0.73835  0.12438  1.0000
  C   C429      1.0  0.27411  0.76000  0.09942  1.0000
  C   C430      1.0  0.30217  0.76453  0.07694  1.0000
  C   C431      1.0  0.28128  0.72605  0.07037  1.0000
  C   C432      1.0  0.22135  0.74856  0.14434  1.0000
  C   C433      1.0  0.32706  0.75504  0.15150  1.0000
  C   C434      1.0  0.34112  0.75520  0.18564  1.0000
  C   C435      1.0  0.29699  0.78067  0.06218  1.0000
  C   C436      1.0  0.30584  0.71792  0.04913  1.0000
  C   C437      1.0  0.18789  0.74129  0.14496  1.0000
  H   H746      1.0  0.30143  0.72270  0.11790  1.0000
  H   H747      1.0  0.32097  0.73720  0.09536  1.0000
  H   H748      1.0  0.27845  0.75697  0.16484  1.0000
  H   H749      1.0  0.29255  0.73741  0.16597  1.0000
  H   H750      1.0  0.24648  0.72678  0.13655  1.0000
  H   H751      1.0  0.23204  0.73615  0.10098  1.0000
  H   H752      1.0  0.25255  0.75943  0.08350  1.0000
  H   H753      1.0  0.26962  0.77002  0.11586  1.0000
  H   H754      1.0  0.30395  0.75617  0.05662  1.0000
  H   H755      1.0  0.32548  0.76465  0.08975  1.0000
  H   H756      1.0  0.26265  0.71730  0.07665  1.0000
  H   H757      1.0  0.26958  0.73533  0.05601  1.0000
  H   H758      1.0  0.21931  0.76045  0.13400  1.0000
  H   H759      1.0  0.22944  0.74955  0.16979  1.0000
  H   H760      1.0  0.34357  0.74817  0.13641  1.0000
  H   H761      1.0  0.32661  0.76732  0.14298  1.0000
  H   H762      1.0  0.36512  0.76081  0.18560  1.0000
  H   H763      1.0  0.32558  0.76189  0.20220  1.0000
  H   H764      1.0  0.34374  0.74311  0.19496  1.0000
  H   H765      1.0  0.31728  0.78359  0.04617  1.0000
  H   H766      1.0  0.27461  0.78080  0.04750  1.0000
  H   H767      1.0  0.29555  0.78973  0.08128  1.0000
  C   C438      1.0  0.26112  0.95289  0.49266  1.0000
  H   H768      1.0  0.32375  0.72647  0.04026  1.0000
  H   H769      1.0  0.31822  0.70849  0.06266  1.0000
  H   H770      1.0  0.17154  0.74901  0.15862  1.0000
  H   H771      1.0  0.17815  0.73988  0.12014  1.0000
  H   H772      1.0  0.18857  0.72971  0.15693  1.0000
  C   C439      1.0  0.49265  0.95665  0.31670  1.0000
  H   H773      1.0  0.04921  0.83015  0.05157  1.0000
  H   H774      1.0  0.24853  0.81073  0.38385  1.0000
  H   H775      1.0  0.08712  0.84644  0.21977  1.0000
  H   H776      1.0  0.42313  0.88250  0.41593  1.0000
  H   H777      1.0  0.24619  0.88161  0.31133  1.0000
  H   H778      1.0  0.23974  0.83700  0.22568  1.0000
  C   C440      1.0  0.05367  0.82977  0.17273  1.0000
  C   C441      1.0  0.44942  0.83668  0.33511  1.0000
  H   H779      1.0  0.44886  0.89031  0.38520  1.0000
  H   H780      1.0  0.25976  0.83172  0.34534  1.0000
  C   C442      1.0  0.28153  0.82640  0.28787  1.0000
  H   H781      1.0  0.18446  0.71996  0.39667  1.0000
  H   H782      1.0  0.27841  0.97283  0.22288  1.0000
  C   C443      1.0  0.48242  0.83542  0.40205  1.0000
  H   H783      1.0  0.09336  0.85618  0.18160  1.0000
  H   H784      1.0  0.28632  0.88321  0.32703  1.0000
  C   C444      1.0  0.23983  0.82881  0.32828  1.0000
  H   H785      1.0  0.04721  0.80070  0.18714  1.0000
  H   H786      1.0  0.17515  0.74748  0.44376  1.0000
  H   H787      1.0  0.06945  0.84534  0.11600  1.0000
  C   C445      1.0  0.26279  0.72140  0.48319  1.0000
  C   C446      1.0  0.44545  0.98498  0.48083  1.0000
  H   H788      1.0  0.36034  0.96399  0.49318  1.0000
  H   H789      1.0  0.09834  0.82082  0.19341  1.0000
  N   N23       1.0  0.44191  0.97282  0.42267  1.0000
  H   H790      1.0  0.22980  0.81376  0.26598  1.0000
  H   H791      1.0  0.44237  0.82798  0.44728  1.0000
  C   C447      1.0  0.39598  0.82339  0.42501  1.0000
  H   H792      1.0  0.33302  0.98886  0.30995  1.0000
  C   C448      1.0  0.00748  0.96204  0.11118  1.0000
  H   H793      1.0  0.24453  0.99563  0.22879  1.0000
  C   C449      1.0  0.27095  0.87709  0.30904  1.0000
  H   H794      1.0  0.28030  0.87984  0.28478  1.0000
  N   N24       1.0  0.04240  0.81771  0.14871  1.0000
  H   H795      1.0  0.39594  0.80244  0.45492  1.0000
  H   H796      1.0  0.28241  0.98331  0.33892  1.0000
  C   C450      1.0  0.18253  0.73245  0.40331  1.0000
  C   C451      1.0  0.10045  0.98836  0.03290  1.0000
  H   H797      1.0  0.12582  0.84592  0.20092  1.0000
  N   N25       1.0  0.44650  0.83483  0.39735  1.0000
  C   C452      1.0  0.24854  0.85073  0.29204  1.0000
  H   H798      1.0  0.49729  0.81505  0.37348  1.0000
  H   H799      1.0  0.46279  0.86374  0.36732  1.0000
  C   C453      1.0  0.29685  0.83049  0.25518  1.0000
  H   H800      1.0  0.46518  0.77346  0.40032  1.0000
  C   C454      1.0  0.47510  0.97245  0.40875  1.0000
  H   H801      1.0  0.48821  0.84014  0.42647  1.0000
  H   H802      1.0  0.04057  0.72262  0.45687  1.0000
  H   H803      1.0  0.06063  0.72192  0.41868  1.0000
  H   H804      1.0  0.23422  0.73537  0.40034  1.0000
  H   H805      1.0  0.21894  0.83583  0.33636  1.0000
  H   H806      1.0  0.21279  0.73973  0.36375  1.0000
  C   C455      1.0  0.15557  0.72833  0.49209  1.0000
  H   H807      1.0  0.47526  0.89837  0.31089  1.0000
  H   H808      1.0  0.28713  0.71585  0.43891  1.0000
  H   H809      1.0  0.09088  0.72823  0.48526  1.0000
  C   C456      1.0  0.27904  0.72516  0.45445  1.0000
  H   H810      1.0  0.25010  0.80357  0.32532  1.0000
  H   H811      1.0  0.12022  0.98008  0.02814  1.0000
  H   H812      1.0  0.29691  0.85563  0.31091  1.0000
  C   C457      1.0  0.08223  0.79399  0.15163  1.0000
  H   H813      1.0  0.18053  0.99108  0.01300  1.0000
  H   H814      1.0  0.05760  0.89260  0.10862  1.0000
  H   H815      1.0  0.35354  0.97759  0.26851  1.0000
  C   C458      1.0  0.45274  0.86520  0.39161  1.0000
  C   C459      1.0  0.04375  0.88173  0.10371  1.0000
  H   H816      1.0  0.42037  0.96457  0.37769  1.0000
  C   C460      1.0  0.44145  0.82750  0.30444  1.0000
  C   C461      1.0  0.32984  0.98284  0.42797  1.0000
  H   H817      1.0  0.10260  0.80169  0.15790  1.0000
  H   H818      1.0  0.42642  0.85312  0.42744  1.0000
  C   C462      1.0  0.27497  0.75263  0.46648  1.0000
  H   H819      1.0  0.20571  0.84616  0.24381  1.0000
  C   C463      1.0  0.06523  0.83745  0.06698  1.0000
  H   H820      1.0  0.49310  0.91749  0.36288  1.0000
  H   H821      1.0  0.11024  0.77316  0.16080  1.0000
  H   H822      1.0  0.41523  0.82543  0.30230  1.0000
  H   H823      1.0  0.43737  0.84816  0.33299  1.0000
  C   C464      1.0  0.09235  0.72317  0.46069  1.0000
  C   C465      1.0  0.33547  0.97502  0.24950  1.0000
  H   H824      1.0  0.10385  0.83072  0.15554  1.0000
  H   H825      1.0  0.34247  0.82859  0.23085  1.0000
  C   C466      1.0  0.35192  0.97352  0.47830  1.0000
  H   H826      1.0  0.40183  0.92913  0.44034  1.0000
  C   C467      1.0  0.17963  0.73480  0.44022  1.0000
  H   H827      1.0  0.29565  0.84311  0.24977  1.0000
  H   H828      1.0  0.29860  0.82972  0.30749  1.0000
  H   H829      1.0  0.03144  0.79290  0.15059  1.0000
  H   H830      1.0  0.25901  0.70932  0.48966  1.0000
  C   C468      1.0  0.08741  0.77844  0.16887  1.0000
  H   H831      1.0  0.08895  0.78023  0.19533  1.0000
  H   H832      1.0  0.33529  0.81338  0.25971  1.0000
  H   H833      1.0  0.04314  0.82748  0.19676  1.0000
  C   C469      1.0  0.43311  0.82430  0.42315  1.0000
  H   H834      1.0  0.04467  0.84152  0.16573  1.0000
  H   H835      1.0  0.35896  0.81322  0.45467  1.0000
  N   N26       1.0  0.22436  0.88700  0.14886  1.0000
  C   C470      1.0  0.23679  0.88688  0.18316  1.0000
  C   C471      1.0  0.22735  0.87092  0.13376  1.0000
  C   C472      1.0  0.24516  0.89817  0.13013  1.0000
  C   C473      1.0  0.19030  0.89274  0.14665  1.0000
  C   C474      1.0  0.16530  0.88358  0.16640  1.0000
  C   C475      1.0  0.23522  0.90261  0.20165  1.0000
  C   C476      1.0  0.23904  0.89872  0.09320  1.0000
  C   C477      1.0  0.22425  0.85653  0.15623  1.0000
  C   C478      1.0  0.22268  0.84132  0.13693  1.0000
  C   C479      1.0  0.13301  0.89193  0.16626  1.0000
  C   C480      1.0  0.24673  0.90071  0.23646  1.0000
  C   C481      1.0  0.26334  0.90928  0.07659  1.0000
  H   H836      1.0  0.26223  0.88297  0.18357  1.0000
  H   H837      1.0  0.22378  0.87829  0.19806  1.0000
  H   H838      1.0  0.20966  0.86951  0.11371  1.0000
  H   H839      1.0  0.25127  0.86952  0.12242  1.0000
  H   H840      1.0  0.27095  0.89537  0.13411  1.0000
  H   H841      1.0  0.24193  0.91037  0.13872  1.0000
  H   H842      1.0  0.18898  0.90534  0.15320  1.0000
  H   H843      1.0  0.18152  0.89231  0.12133  1.0000
  H   H844      1.0  0.17276  0.88228  0.19189  1.0000
  H   H845      1.0  0.16144  0.87187  0.15552  1.0000
  H   H846      1.0  0.25096  0.91139  0.19039  1.0000
  H   H847      1.0  0.21045  0.90721  0.20228  1.0000
  H   H848      1.0  0.21491  0.90343  0.08796  1.0000
  H   H849      1.0  0.24085  0.88701  0.08194  1.0000
  H   H850      1.0  0.24557  0.85584  0.17239  1.0000
  H   H851      1.0  0.20262  0.85716  0.17132  1.0000
  H   H852      1.0  0.24222  0.84078  0.11899  1.0000
  H   H853      1.0  0.22521  0.83113  0.15321  1.0000
  H   H854      1.0  0.19929  0.84034  0.12417  1.0000
  H   H855      1.0  0.11551  0.88519  0.18064  1.0000
  H   H856      1.0  0.13539  0.90380  0.17690  1.0000
  H   H857      1.0  0.12346  0.89298  0.14134  1.0000
  H   H858      1.0  0.23201  0.89190  0.24923  1.0000
  H   H859      1.0  0.27230  0.89718  0.23716  1.0000
  H   H860      1.0  0.24454  0.91200  0.24943  1.0000
  H   H861      1.0  0.26207  0.92136  0.08626  1.0000
  H   H862      1.0  0.28800  0.90474  0.08006  1.0000
  H   H863      1.0  0.25796  0.90970  0.05036  1.0000
  N   N27       1.0  0.24877  0.83312  0.29419  1.0000
  H   H864      1.0  0.18647  0.83245  0.19693  1.0000
  C   C482      1.0  0.43207  0.85093  0.40163  1.0000
  C   C483      1.0  0.22625  0.80818  0.36995  1.0000
  C   C484      1.0  0.43719  0.82798  0.36515  1.0000
  C   C485      1.0  0.42109  0.98955  0.37464  1.0000
  C   C486      1.0  0.48890  0.88726  0.30999  1.0000
  N   N28       1.0  0.15408  0.72521  0.45637  1.0000
  H   H865      1.0  0.22015  0.68011  0.45710  1.0000
  H   H866      1.0  0.20652  0.81545  0.37951  1.0000
  H   H867      1.0  0.47648  0.96336  0.38953  1.0000
  C   C487      1.0  0.41823  0.97438  0.39502  1.0000
  H   H868      1.0  0.04529  0.81237  0.09838  1.0000
  H   H869      1.0  0.40863  0.85169  0.38863  1.0000
  C   C488      1.0  0.19363  0.70183  0.45667  1.0000
  H   H870      1.0  0.00810  0.91878  0.08496  1.0000
  H   H871      1.0  0.41075  0.82754  0.36243  1.0000
  C   C489      1.0  0.21214  0.74078  0.39039  1.0000
  C   C490      1.0  0.08305  0.99279  0.00098  1.0000
  H   H872      1.0  0.20219  0.70467  0.48128  1.0000
  H   H873      1.0  0.22929  0.72272  0.00134  1.0000
  H   H874      1.0  0.05057  0.96486  0.02515  1.0000
  H   H875      1.0  0.17339  0.82131  0.23094  1.0000
  H   H876      1.0  0.21197  0.75338  0.39686  1.0000
  C   C491      1.0  0.15910  0.70794  0.45090  1.0000
  C   C492      1.0  0.43759  0.98689  0.44445  1.0000
  H   H877      1.0  0.41350  0.87957  0.37382  1.0000
  H   H878      1.0  0.30323  0.98231  0.19450  1.0000
  C   C493      1.0  0.09958  0.84578  0.19631  1.0000
  C   C494      1.0  0.09035  0.83081  0.17836  1.0000
  H   H879      1.0  0.06488  0.84959  0.05766  1.0000
  H   H880      1.0  0.05855  0.74011  0.44101  1.0000
  H   H881      1.0  0.40061  0.96692  0.24139  1.0000
  H   H882      1.0  0.08241  0.81755  0.11538  1.0000
  H   H883      1.0  0.20341  0.73276  0.45182  1.0000
  C   C495      1.0  0.22392  0.82618  0.27147  1.0000
  H   H884      1.0  0.12754  0.75030  0.49141  1.0000
  H   H885      1.0  0.15183  0.70450  0.42603  1.0000
  H   H886      1.0  0.21064  0.70701  0.43932  1.0000
  H   H887      1.0  0.38470  0.83507  0.42620  1.0000
  H   H888      1.0  0.47571  0.83837  0.33599  1.0000
  C   C496      1.0  0.35338  0.96932  0.21905  1.0000
  C   C497      1.0  0.00644  0.81910  0.14488  1.0000
  C   C498      1.0  0.43331  0.88029  0.39175  1.0000
  H   H889      1.0  0.27966  0.76469  0.46042  1.0000
  C   C499      1.0  0.48504  0.77694  0.38542  1.0000
  C   C500      1.0  0.26287  0.99588  0.20963  1.0000
  C   C501      1.0  0.01014  0.88598  0.09182  1.0000
  H   H890      1.0  0.28016  0.98000  0.27993  1.0000
  C   C502      1.0  0.06119  0.72724  0.44309  1.0000
  C   C503      1.0  0.43395  0.95784  0.44014  1.0000
  H   H891      1.0  0.44663  0.95696  0.46358  1.0000
  C   C504      1.0  0.19523  0.68411  0.45264  1.0000
  H   H892      1.0  0.00735  0.97413  0.11874  1.0000
  H   H893      1.0  0.03289  0.98358  0.02714  1.0000
  C   C505      1.0  0.23909  0.74743  0.99929  1.0000
  C   C506      1.0  0.29012  0.98415  0.21738  1.0000
  H   H894      1.0  0.39445  0.95538  0.20556  1.0000
  C   C507      1.0  0.03937  0.97412  0.00989  1.0000
  H   H895      1.0  0.49391  0.88457  0.28436  1.0000
  C   C508      1.0  0.44244  0.94248  0.42234  1.0000
  H   H896      1.0  0.08406  0.98291  0.05035  1.0000
  H   H897      1.0  0.28746  0.95330  0.48917  1.0000
  H   H898      1.0  0.09347  0.71028  0.46292  1.0000
  H   H899      1.0  0.44936  0.83418  0.28304  1.0000
  C   C509      1.0  0.38291  0.95970  0.22782  1.0000
  H   H900      1.0  0.43809  0.92737  0.46432  1.0000
  C   C510      1.0  0.29354  0.99095  0.27430  1.0000
  H   H901      1.0  0.49249  0.96764  0.30394  1.0000
  H   H902      1.0  0.49370  0.84358  0.38487  1.0000
  C   C511      1.0  0.49325  0.92834  0.34971  1.0000
  C   C512      1.0  0.50289  0.96997  0.43311  1.0000
  C   C513      1.0  0.00528  0.79324  0.05975  1.0000
  H   H903      1.0  0.43462  0.91750  0.42600  1.0000
  C   C514      1.0  0.24568  0.99157  0.17815  1.0000
  H   H904      1.0  0.17940  0.67819  0.47019  1.0000
  H   H905      1.0  0.18803  0.68066  0.42781  1.0000
  H   H906      1.0  0.50122  0.79178  0.31164  1.0000
  H   H907      1.0  0.49272  0.81091  0.41575  1.0000
  H   H908      1.0  0.49745  0.96086  0.45113  1.0000
  H   H909      1.0  0.36108  0.97923  0.20378  1.0000
  H   H910      1.0  0.46879  0.94091  0.42148  1.0000
  H   H911      1.0  0.48055  0.98357  0.39615  1.0000
  H   H912      1.0  0.09809  0.96236  0.99650  1.0000
  H   H913      1.0  0.46930  0.97972  0.48489  1.0000
  C   C515      1.0  0.50067  0.81979  0.39813  1.0000
  Fe  Fe57      1.0  0.13406  0.69934  0.57702  1.0000
  S   S114      1.0  0.16950  0.69296  0.53865  1.0000
  S   S115      1.0  0.08516  0.70932  0.56184  1.0000
  Fe  Fe58      1.0  0.18526  0.69575  0.63122  1.0000
  S   S116      1.0  0.22407  0.68957  0.59633  1.0000
  S   S117      1.0  0.18839  0.69605  0.68643  1.0000
  Fe  Fe59      1.0  0.20476  0.70874  0.56413  1.0000
  S   S118      1.0  0.23214  0.72931  0.54090  1.0000
  Fe  Fe60      1.0  0.18602  0.67430  0.57325  1.0000
  S   S119      1.0  0.16840  0.71605  0.60125  1.0000
  S   S120      1.0  0.14808  0.67947  0.60965  1.0000
  Fe  Fe61      1.0  0.39609  0.70098  0.86280  1.0000
  S   S121      1.0  0.37204  0.69658  0.91043  1.0000
  S   S122      1.0  0.44788  0.70677  0.84866  1.0000
  Fe  Fe62      1.0  0.33146  0.69861  0.82502  1.0000
  S   S123      1.0  0.30302  0.69393  0.86965  1.0000
  S   S124      1.0  0.31614  0.70012  0.77210  1.0000
  Fe  Fe63      1.0  0.33250  0.71284  0.89379  1.0000
  S   S125      1.0  0.31317  0.73449  0.92069  1.0000
  Fe  Fe64      1.0  0.34411  0.67803  0.88311  1.0000
  S   S126      1.0  0.35868  0.71848  0.84776  1.0000
  S   S127      1.0  0.37044  0.68148  0.83694  1.0000
  C   C516      1.0  0.07684  0.73632  0.64486  1.0000
  C   C517      1.0  0.26045  0.97973  0.51854  1.0000
  C   C518      1.0  0.04600  0.71055  0.73611  1.0000
  H   H914      1.0  0.30732  0.66831  0.75199  1.0000
  H   H915      1.0  0.05654  0.72941  0.77010  1.0000
  H   H916      1.0  0.32593  0.98862  0.55329  1.0000
  H   H917      1.0  0.12690  0.74266  0.63750  1.0000
  C   C519      1.0  0.28432  0.73897  0.95105  1.0000
  C   C520      1.0  0.28009  0.75467  0.96045  1.0000
  H   H918      1.0  0.09828  0.75557  0.61871  1.0000
  H   H919      1.0  0.29439  0.76367  0.94931  1.0000
  H   H920      1.0  0.30196  0.73644  0.70562  1.0000
  C   C521      1.0  0.14558  0.74663  0.53908  1.0000
  H   H921      1.0  0.36581  0.67435  0.74763  1.0000
  H   H922      1.0  0.24874  0.72582  0.79981  1.0000
  H   H923      1.0  0.20686  0.99103  0.54016  1.0000
  C   C522      1.0  0.07010  0.95301  0.95789  1.0000
  C   C523      1.0  0.22420  0.69675  0.70992  1.0000
  C   C524      1.0  0.22241  0.69546  0.74368  1.0000
  C   C525      1.0  0.25026  0.69618  0.76319  1.0000
  C   C526      1.0  0.28021  0.69836  0.74909  1.0000
  C   C527      1.0  0.28200  0.69947  0.71537  1.0000
  C   C528      1.0  0.25423  0.69862  0.69588  1.0000
  H   H924      1.0  0.19929  0.69396  0.75478  1.0000
  H   H925      1.0  0.24852  0.69522  0.78904  1.0000
  H   H926      1.0  0.30504  0.70117  0.70420  1.0000
  H   H927      1.0  0.25604  0.69965  0.66999  1.0000
  H   H928      1.0  0.28335  0.72162  0.82237  1.0000
  C   C529      1.0  0.48693  0.70065  0.86076  1.0000
  H   H929      1.0  0.15763  0.97288  0.91924  1.0000
  H   H930      1.0  0.25928  0.72671  0.87280  1.0000
  H   H931      1.0  0.14121  0.75896  0.54604  1.0000
  C   C530      1.0  0.03911  0.68851  0.58478  1.0000
  C   C531      1.0  0.04546  0.70296  0.57049  1.0000
  C   C532      1.0  0.14949  0.74546  0.50265  1.0000
  H   H932      1.0  0.05870  0.68073  0.59049  1.0000
  H   H933      1.0  0.12816  0.66733  0.69010  1.0000
  H   H934      1.0  0.04900  0.68706  0.68887  1.0000
  H   H935      1.0  0.04761  0.69765  0.73649  1.0000
  H   H936      1.0  0.47288  0.68934  0.90456  1.0000
  H   H937      1.0  0.05562  0.95658  0.93668  1.0000
  H   H938      1.0  0.25103  0.75818  0.51098  1.0000
  H   H939      1.0  0.20469  0.74438  0.80689  1.0000
  H   H940      1.0  0.31894  0.73744  0.79351  1.0000
  H   H941      1.0  0.05498  0.94638  0.97493  1.0000
  H   H942      1.0  0.30181  0.77449  0.89245  1.0000
  C   C533      1.0  0.16879  0.98007  0.96785  1.0000
  H   H943      1.0  0.10554  0.73665  0.60143  1.0000
  C   C534      1.0  0.19719  0.76548  0.78041  1.0000
  C   C535      1.0  0.26566  0.72752  0.96598  1.0000
  H   H944      1.0  0.00961  0.95941  0.97697  1.0000
  H   H945      1.0  0.10462  0.97192  0.95978  1.0000
  C   C536      1.0  0.05815  0.71647  0.76878  1.0000
  C   C537      1.0  0.24942  0.75807  0.80831  1.0000
  H   H946      1.0  0.16763  0.74261  0.55164  1.0000
  C   C538      1.0  0.25241  0.73325  0.50386  1.0000
  H   H947      1.0  0.04330  0.71145  0.78825  1.0000
  C   C539      1.0  0.28563  0.74157  0.75393  1.0000
  H   H948      1.0  0.09133  0.71721  0.71491  1.0000
  H   H949      1.0  0.49535  0.72280  0.93744  1.0000
  H   H950      1.0  0.32381  0.96355  0.60621  1.0000
  H   H951      1.0  0.25488  0.77099  0.99108  1.0000
  H   H952      1.0  0.05968  0.73042  0.70863  1.0000
  H   H953      1.0  0.18424  0.99497  0.80152  1.0000
  H   H954      1.0  0.11858  0.69333  0.66860  1.0000
  H   H955      1.0  0.32630  0.75058  0.72694  1.0000
  H   H956      1.0  0.08383  0.98572  0.92021  1.0000
  C   C540      1.0  0.08538  0.96721  0.97520  1.0000
  H   H957      1.0  0.23581  0.97369  0.95172  1.0000
  H   H958      1.0  0.27906  0.97424  0.94973  1.0000
  C   C541      1.0  0.33417  0.97404  0.59450  1.0000
  H   H959      1.0  0.28133  0.66858  0.80227  1.0000
  C   C542      1.0  0.25464  0.97644  0.90320  1.0000
  C   C543      1.0  0.10360  0.74318  0.62441  1.0000
  H   H960      1.0  0.27611  0.97259  0.88986  1.0000
  C   C544      1.0  0.22198  0.71333  0.84989  1.0000
  H   H961      1.0  0.24087  0.76337  0.83121  1.0000
  H   H962      1.0  0.33557  0.98371  0.61232  1.0000
  H   H963      1.0  0.08340  0.71287  0.77291  1.0000
  H   H964      1.0  0.08659  0.66510  0.70069  1.0000
  C   C545      1.0  0.06719  0.99450  0.93025  1.0000
  C   C546      1.0  0.23331  0.99511  0.84732  1.0000
  H   H965      1.0  0.50247  0.72329  0.98033  1.0000
  H   H966      1.0  0.01869  0.72629  0.67108  1.0000
  H   H967      1.0  0.20967  0.77313  0.76293  1.0000
  C   C547      1.0  0.31243  0.73958  0.72947  1.0000
  H   H968      1.0  0.36307  0.99123  0.51404  1.0000
  N   N29       1.0  0.05983  0.71103  0.67515  1.0000
  H   H969      1.0  0.22738  0.73815  0.85607  1.0000
  H   H970      1.0  0.24391  0.98419  0.49954  1.0000
  H   H971      1.0  0.27730  0.75218  0.86580  1.0000
  H   H972      1.0  0.11058  0.93746  0.96657  1.0000
  C   C548      1.0  0.20851  0.99354  0.79133  1.0000
  H   H973      1.0  0.17948  0.72526  0.50179  1.0000
  H   H974      1.0  0.10809  0.71821  0.66253  1.0000
  H   H975      1.0  0.31094  0.75734  0.78426  1.0000
  C   C549      1.0  0.24335  0.73173  0.98992  1.0000
  C   C550      1.0  0.06545  0.71777  0.70834  1.0000
  C   C551      1.0  0.49271  0.69237  0.88923  1.0000
  H   H976      1.0  0.02577  0.71481  0.63621  1.0000
  C   C552      1.0  0.24300  0.72794  0.85162  1.0000
  H   H977      1.0  0.20891  0.71195  0.87287  1.0000
  H   H978      1.0  0.10556  0.69221  0.70974  1.0000
  H   H979      1.0  0.08383  0.71249  0.62928  1.0000
  C   C553      1.0  0.16281  0.98271  0.93485  1.0000
  H   H980      1.0  0.07538  0.74347  0.66702  1.0000
  C   C554      1.0  0.17557  0.99290  0.98767  1.0000
  C   C555      1.0  0.32278  0.77259  0.87669  1.0000
  C   C556      1.0  0.21880  0.75198  0.79069  1.0000
  C   C557      1.0  0.10326  0.67068  0.68348  1.0000
  C   C558      1.0  0.25767  0.75888  0.98427  1.0000
  H   H981      1.0  0.02405  0.72396  0.55162  1.0000
  H   H982      1.0  0.26851  0.71541  0.95923  1.0000
  H   H983      1.0  0.28472  0.98079  0.50781  1.0000
  H   H984      1.0  0.17518  0.76080  0.76863  1.0000
  H   H985      1.0  0.06209  0.68931  0.64899  1.0000
  H   H986      1.0  0.20422  0.71429  0.82992  1.0000
  H   H987      1.0  0.33384  0.76591  0.82855  1.0000
  C   C559      1.0  0.31192  0.76713  0.84325  1.0000
  H   H988      1.0  0.31164  0.74228  0.85190  1.0000
  C   C560      1.0  0.04583  0.98722  0.95679  1.0000
  C   C561      1.0  0.26310  0.73004  0.82064  1.0000
  C   C562      1.0  0.06616  0.69369  0.67398  1.0000
  H   H989      1.0  0.25912  0.76806  0.79425  1.0000
  H   H990      1.0  0.03026  0.97854  0.94445  1.0000
  C   C563      1.0  0.02626  0.71445  0.66308  1.0000
  H   H991      1.0  0.29323  0.98929  0.84769  1.0000
  C   C564      1.0  0.25186  0.96222  0.52256  1.0000
  H   H992      1.0  0.35888  0.97125  0.58673  1.0000
  H   H993      1.0  0.33617  0.78376  0.87472  1.0000
  H   H994      1.0  0.23298  0.97111  0.89191  1.0000
  H   H995      1.0  0.25738  0.95707  0.93683  1.0000
  H   H996      1.0  0.05416  0.73769  0.63100  1.0000
  H   H997      1.0  0.23688  0.70279  0.84613  1.0000
  N   N30       1.0  0.25821  0.98957  0.54857  1.0000
  S   S128      1.0  0.16846  0.96055  0.98274  1.0000
  H   H998      1.0  0.21374  0.98088  0.78892  1.0000
  H   H999      1.0  0.27177  0.73056  0.75425  1.0000
  H   H1000     1.0  0.33878  0.76377  0.88800  1.0000
  C   C565      1.0  0.29380  0.75130  0.84498  1.0000
  C   C566      1.0  0.22415  0.98920  0.56033  1.0000
  N   N31       1.0  0.27568  0.74634  0.81494  1.0000
  H   H1001     1.0  0.19008  0.77252  0.80166  1.0000
  C   C567      1.0  0.10013  0.68845  0.68471  1.0000
  C   C568      1.0  0.01950  0.71277  0.56275  1.0000
  H   H1002     1.0  0.32890  0.73006  0.73695  1.0000
  H   H1003     1.0  0.08446  0.93162  0.93391  1.0000
  H   H1004     1.0  0.03246  0.99120  0.89108  1.0000
  H   H1005     1.0  0.28223  0.99234  0.59469  1.0000
  H   H1006     1.0  0.25388  0.94049  0.49555  1.0000
  H   H1007     1.0  0.26414  0.95689  0.54356  1.0000
  H   H1008     1.0  0.11185  0.94772  0.92860  1.0000
  H   H1009     1.0  0.27006  0.75113  0.74497  1.0000
  C   C569      1.0  0.29928  0.74580  0.78762  1.0000
  H   H1010     1.0  0.21818  0.97736  0.56960  1.0000
  H   H1011     1.0  0.09807  0.66626  0.65880  1.0000
  H   H1012     1.0  0.02057  0.71412  0.73392  1.0000
  H   H1013     1.0  0.23846  0.98246  0.84462  1.0000
  H   H1014     1.0  0.17897  0.98687  0.60974  1.0000
  C   C570      1.0  0.09587  0.94180  0.94603  1.0000
  H   H1015     1.0  0.22429  0.74505  0.76897  1.0000
  C   C571      1.0  0.31396  0.97876  0.56524  1.0000
  H   H1016     1.0  0.17015  0.75295  0.49604  1.0000
  H   H1017     1.0  0.29665  0.77639  0.83261  1.0000
  C   C572      1.0  0.08324  0.71883  0.65267  1.0000
  H   H1018     1.0  0.42475  0.66539  0.87386  1.0000
  H   H1019     1.0  0.12496  0.73943  0.54695  1.0000
  N   N32       1.0  0.06309  0.98007  0.98531  1.0000
  H   H1020     1.0  0.26497  0.66412  0.71117  1.0000
  H   H1021     1.0  0.13880  0.72052  0.50520  1.0000
  C   C573      1.0  0.00727  0.68400  0.59124  1.0000
  C   C574      1.0  0.25178  0.99449  0.90326  1.0000
  H   H1022     1.0  0.26877  0.97310  0.58710  1.0000
  H   H1023     1.0  0.31379  0.96874  0.54831  1.0000
  C   C575      1.0  0.27965  0.98344  0.57519  1.0000
  H   H1024     1.0  0.22565  0.96087  0.52595  1.0000
  H   H1025     1.0  0.24543  0.67274  0.84874  1.0000
  C   C576      1.0  0.25690  0.97003  0.93749  1.0000
  C   C577      1.0  0.25865  0.74887  0.49520  1.0000
  H   H1026     1.0  0.20830  0.99594  0.85637  1.0000
  Fe  Fe65      1.0  0.67513  0.30902  0.06708  1.0000
  S   S129      1.0  0.64604  0.30291  0.11038  1.0000
  H   H1027     1.0  0.78837  0.31229  0.20149  1.0000
  Fe  Fe66      1.0  0.70463  0.27617  0.06160  1.0000
  S   S130      1.0  0.67717  0.26772  0.10508  1.0000
  S   S131      1.0  0.74428  0.26168  0.03706  1.0000
  Fe  Fe67      1.0  0.63444  0.28064  0.08406  1.0000
  S   S132      1.0  0.58456  0.26949  0.07802  1.0000
  Fe  Fe68      1.0  0.69082  0.29066  0.12839  1.0000
  S   S133      1.0  0.70491  0.29575  0.18112  1.0000
  S   S134      1.0  0.66119  0.28740  0.03926  1.0000
  S   S135      1.0  0.72062  0.29851  0.08642  1.0000
  Fe  Fe69      1.0  0.88918  0.27559  0.36851  1.0000
  S   S136      1.0  0.86552  0.29278  0.40173  1.0000
  S   S137      1.0  0.93873  0.26486  0.37806  1.0000
  Fe  Fe70      1.0  0.82994  0.27510  0.32218  1.0000
  S   S138      1.0  0.80339  0.29230  0.35224  1.0000
  S   S139      1.0  0.81009  0.26522  0.27479  1.0000
  Fe  Fe71      1.0  0.85026  0.30521  0.35622  1.0000
  H   H1028     1.0  0.72508  0.28846  0.99715  1.0000
  Fe  Fe72      1.0  0.82061  0.27797  0.39498  1.0000
  S   S140      1.0  0.78415  0.27219  0.43488  1.0000
  S   S141      1.0  0.87609  0.28858  0.32359  1.0000
  S   S142      1.0  0.84525  0.26012  0.36430  1.0000
  C   C578      1.0  0.76933  0.25460  0.45285  1.0000
  C   C579      1.0  0.78260  0.23991  0.44672  1.0000
  H   H1029     1.0  0.80281  0.23896  0.43077  1.0000
  C   C580      1.0  0.67554  0.00337  0.45205  1.0000
  H   H1030     1.0  0.92338  0.04391  0.00359  1.0000
  H   H1031     1.0  0.55327  0.99775  0.42489  1.0000
  H   H1032     1.0  0.70752  0.16457  0.03630  1.0000
  H   H1033     1.0  0.76293  0.31833  0.25983  1.0000
  C   C581      1.0  0.78066  0.27381  0.24907  1.0000
  C   C582      1.0  0.75904  0.28498  0.26024  1.0000
  C   C583      1.0  0.73568  0.29127  0.23921  1.0000
  C   C584      1.0  0.73385  0.28669  0.20668  1.0000
  C   C585      1.0  0.75536  0.27547  0.19554  1.0000
  C   C586      1.0  0.77845  0.26901  0.21669  1.0000
  H   H1034     1.0  0.76013  0.28867  0.28515  1.0000
  H   H1035     1.0  0.71882  0.29975  0.24818  1.0000
  H   H1036     1.0  0.75419  0.27175  0.17064  1.0000
  H   H1037     1.0  0.79482  0.26027  0.20781  1.0000
  C   C587      1.0  0.98070  0.28966  0.36726  1.0000
  C   C588      1.0  0.97668  0.27447  0.37885  1.0000
  H   H1038     1.0  0.97219  0.25634  0.25755  1.0000
  H   H1039     1.0  0.96001  0.29617  0.35914  1.0000
  H   H1040     1.0  0.74171  0.32174  0.31597  1.0000
  C   C589      1.0  0.69195  0.16794  0.01562  1.0000
  C   C590      1.0  0.54552  0.27734  0.08421  1.0000
  C   C591      1.0  0.54081  0.29232  0.09675  1.0000
  H   H1041     1.0  0.97846  0.23959  0.30227  1.0000
  H   H1042     1.0  0.56136  0.29934  0.10337  1.0000
  H   H1043     1.0  0.53072  0.01150  0.47816  1.0000
  C   C592      1.0  0.00008  0.24595  0.31140  1.0000
  H   H1044     1.0  0.88469  0.00325  0.00384  1.0000
  H   H1045     1.0  0.78068  0.21515  0.45669  1.0000
  C   C593      1.0  0.51841  0.26819  0.07645  1.0000
  H   H1046     1.0  0.94256  0.29606  0.28160  1.0000
  H   H1047     1.0  0.52171  0.25656  0.06687  1.0000
  H   H1048     1.0  0.81098  0.30419  0.25420  1.0000
  H   H1049     1.0  0.91221  0.01365  0.02894  1.0000
  H   H1050     1.0  0.84654  0.28483  0.99987  1.0000
  C   C594      1.0  0.91072  0.00555  0.00800  1.0000
  H   H1051     1.0  0.81692  0.27162  0.01601  1.0000
  H   H1052     1.0  0.55136  0.32631  0.06335  1.0000
  H   H1053     1.0  0.89051  0.29280  0.21963  1.0000
  H   H1054     1.0  0.95900  0.02499  0.00957  1.0000
  C   C595      1.0  0.82600  0.31458  0.24874  1.0000
  H   H1055     1.0  0.98396  0.21661  0.33879  1.0000
  C   C596      1.0  0.87354  0.29688  0.23821  1.0000
  C   C597      1.0  0.74613  0.31859  0.00098  1.0000
  C   C598      1.0  0.74340  0.25548  0.47427  1.0000
  C   C599      1.0  0.99198  0.26394  0.26680  1.0000
  H   H1056     1.0  0.79761  0.24387  0.01392  1.0000
  H   H1057     1.0  0.68355  0.01966  0.49135  1.0000
  H   H1058     1.0  0.99104  0.25454  0.32901  1.0000
  H   H1059     1.0  0.58636  0.01078  0.41695  1.0000
  H   H1060     1.0  0.54994  0.02561  0.45414  1.0000
  H   H1061     1.0  0.00206  0.26967  0.24526  1.0000
  H   H1062     1.0  0.96253  0.27242  0.30722  1.0000
  H   H1063     1.0  0.83954  0.30382  0.20241  1.0000
  H   H1064     1.0  0.98430  0.23194  0.36872  1.0000
  C   C600      1.0  0.62797  0.05570  0.47339  1.0000
  C   C601      1.0  0.55360  0.01809  0.47574  1.0000
  H   H1065     1.0  0.85961  0.28666  0.24681  1.0000
  C   C602      1.0  0.85130  0.30917  0.22384  1.0000
  H   H1066     1.0  0.74059  0.32665  0.20737  1.0000
  H   H1067     1.0  0.00116  0.25450  0.39867  1.0000
  H   H1068     1.0  0.68521  0.01115  0.43408  1.0000
  C   C603      1.0  0.73083  0.24196  0.48918  1.0000
  H   H1069     1.0  0.96560  0.29228  0.24597  1.0000
  H   H1070     1.0  0.99488  0.28539  0.29647  1.0000
  C   C604      1.0  0.57802  0.00096  0.43220  1.0000
  H   H1071     1.0  0.67023  0.16042  0.01576  1.0000
  H   H1072     1.0  0.83977  0.18618  0.00568  1.0000
  C   C605      1.0  0.00395  0.26616  0.38920  1.0000
  H   H1073     1.0  0.73281  0.26673  0.47926  1.0000
  C   C606      1.0  0.77008  0.22640  0.46169  1.0000
  C   C607      1.0  0.89994  0.03947  0.99476  1.0000
  N   N33       1.0  0.72205  0.24806  0.34853  1.0000
  C   C608      1.0  0.70843  0.24075  0.37845  1.0000
  C   C609      1.0  0.73370  0.26429  0.35681  1.0000
  C   C610      1.0  0.69635  0.24847  0.32276  1.0000
  C   C611      1.0  0.74998  0.23880  0.33591  1.0000
  C   C612      1.0  0.77558  0.23391  0.36121  1.0000
  C   C613      1.0  0.69719  0.22353  0.37501  1.0000
  C   C614      1.0  0.70462  0.25801  0.29216  1.0000
  C   C615      1.0  0.70765  0.27592  0.36815  1.0000
  C   C616      1.0  0.72129  0.29238  0.37222  1.0000
  C   C617      1.0  0.80324  0.22530  0.34525  1.0000
  C   C618      1.0  0.68883  0.21664  0.40782  1.0000
  C   C619      1.0  0.67822  0.25664  0.26659  1.0000
  H   H1074     1.0  0.68707  0.24731  0.38661  1.0000
  H   H1075     1.0  0.72583  0.24167  0.39891  1.0000
  H   H1076     1.0  0.75180  0.26381  0.37652  1.0000
  H   H1077     1.0  0.74670  0.26953  0.33617  1.0000
  H   H1078     1.0  0.67349  0.25303  0.33256  1.0000
  H   H1079     1.0  0.69053  0.23640  0.31455  1.0000
  H   H1080     1.0  0.74163  0.22801  0.32335  1.0000
  H   H1081     1.0  0.76283  0.24559  0.31714  1.0000
  H   H1082     1.0  0.76548  0.22594  0.37954  1.0000
  H   H1083     1.0  0.78542  0.24425  0.37386  1.0000
  H   H1084     1.0  0.67542  0.22288  0.35950  1.0000
  H   H1085     1.0  0.71574  0.21600  0.36423  1.0000
  H   H1086     1.0  0.72715  0.25384  0.28120  1.0000
  H   H1087     1.0  0.70739  0.27059  0.29797  1.0000
  H   H1088     1.0  0.68745  0.27666  0.35076  1.0000
  H   H1089     1.0  0.69816  0.27235  0.39190  1.0000
  H   H1090     1.0  0.70224  0.30038  0.38062  1.0000
  H   H1091     1.0  0.74092  0.29244  0.39049  1.0000
  H   H1092     1.0  0.73046  0.29680  0.34895  1.0000
  H   H1093     1.0  0.79460  0.21431  0.33386  1.0000
  H   H1094     1.0  0.81456  0.23275  0.32662  1.0000
  H   H1095     1.0  0.82167  0.22235  0.36370  1.0000
  H   H1096     1.0  0.67974  0.20453  0.40475  1.0000
  H   H1097     1.0  0.71040  0.21626  0.42366  1.0000
  H   H1098     1.0  0.67006  0.22369  0.41977  1.0000
  H   H1099     1.0  0.68476  0.26371  0.24520  1.0000
  H   H1100     1.0  0.67521  0.24431  0.25877  1.0000
  H   H1101     1.0  0.65516  0.26107  0.27601  1.0000
  C   C620      1.0  0.67459  0.00824  0.48454  1.0000
  C   C621      1.0  0.74416  0.22727  0.48311  1.0000
  H   H1102     1.0  0.68435  0.18028  0.01860  1.0000
  H   H1103     1.0  0.75722  0.17019  0.00145  1.0000
  H   H1104     1.0  0.51621  0.05470  0.48994  1.0000
  C   C622      1.0  0.57943  0.00561  0.46772  1.0000
  H   H1105     1.0  0.88748  0.30195  0.25859  1.0000
  H   H1106     1.0  0.75337  0.00146  0.45217  1.0000
  N   N34       1.0  0.80520  0.32821  0.23870  1.0000
  C   C623      1.0  0.95314  0.28672  0.26650  1.0000
  C   C624      1.0  0.79282  0.32506  0.20488  1.0000
  C   C625      1.0  0.99961  0.22444  0.35341  1.0000
  H   H1107     1.0  0.83922  0.31727  0.27153  1.0000
  C   C626      1.0  0.97651  0.27719  0.28692  1.0000
  H   H1108     1.0  0.60871  0.03404  0.45714  1.0000
  H   H1109     1.0  0.93345  0.27914  0.25729  1.0000
  H   H1110     1.0  0.88607  0.03498  0.01546  1.0000
  H   H1111     1.0  0.84356  0.20668  0.99659  1.0000
  H   H1112     1.0  0.80466  0.30600  0.99894  1.0000
  H   H1113     1.0  0.75472  0.31837  0.15152  1.0000
  H   H1114     1.0  0.60413  0.00953  0.47292  1.0000
  H   H1115     1.0  0.96963  0.32873  0.37167  1.0000
  H   H1116     1.0  0.59321  0.32126  0.06252  1.0000
  H   H1117     1.0  0.86643  0.31899  0.21563  1.0000
  H   H1118     1.0  0.56495  0.04983  0.47832  1.0000
  H   H1119     1.0  0.59206  0.17545  0.48993  1.0000
  H   H1120     1.0  0.55603  0.16452  0.48128  1.0000
  H   H1121     1.0  0.73673  0.31326  0.02347  1.0000
  H   H1122     1.0  0.57578  0.32781  0.09958  1.0000
  C   C627      1.0  0.75083  0.25195  0.99944  1.0000
  H   H1123     1.0  0.77745  0.29266  0.01708  1.0000
  H   H1124     1.0  0.95693  0.32327  0.33158  1.0000
  C   C628      1.0  0.78017  0.24425  0.99452  1.0000
  H   H1125     1.0  0.80040  0.32119  0.30678  1.0000
  H   H1126     1.0  0.81125  0.32834  0.18687  1.0000
  H   H1127     1.0  0.78660  0.19806  0.99493  1.0000
  C   C629      1.0  0.77759  0.32912  0.26179  1.0000
  H   H1128     1.0  0.61407  0.06238  0.45515  1.0000
  H   H1129     1.0  0.78993  0.32569  0.02733  1.0000
  H   H1130     1.0  0.50630  0.30959  0.11127  1.0000
  H   H1131     1.0  0.79870  0.01475  0.00090  1.0000
  H   H1132     1.0  0.92753  0.32833  0.36119  1.0000
  C   C630      1.0  0.50950  0.29804  0.10133  1.0000
  H   H1133     1.0  0.65224  0.05348  0.46374  1.0000
  H   H1134     1.0  0.87758  0.06215  0.00036  1.0000
  C   C631      1.0  0.61146  0.04014  0.48058  1.0000
  H   H1135     1.0  0.00459  0.04210  0.99417  1.0000
  Fe  Fe73      1.0  0.83758  0.03674  0.81748  1.0000
  S   S143      1.0  0.80228  0.04740  0.85113  1.0000
  S   S144      1.0  0.82223  0.02552  0.76994  1.0000
  Fe  Fe74      1.0  0.89481  0.04581  0.86070  1.0000
  S   S145      1.0  0.86275  0.05792  0.89602  1.0000
  S   S146      1.0  0.94607  0.04536  0.87934  1.0000
  Fe  Fe75      1.0  0.83186  0.03646  0.89096  1.0000
  S   S147      1.0  0.81149  0.02565  0.93683  1.0000
  Fe  Fe76      1.0  0.83687  0.06766  0.85292  1.0000
  S   S148      1.0  0.81777  0.09160  0.83873  1.0000
  S   S149      1.0  0.86466  0.02413  0.85708  1.0000
  S   S150      1.0  0.87147  0.05724  0.81780  1.0000
  Fe  Fe77      1.0  0.61732  0.04956  0.60322  1.0000
  S   S151      1.0  0.64572  0.04872  0.55775  1.0000
  S   S152      1.0  0.56728  0.05941  0.59832  1.0000
  Fe  Fe78      1.0  0.67545  0.03998  0.64535  1.0000
  S   S153      1.0  0.70757  0.03819  0.60234  1.0000
  S   S154      1.0  0.68903  0.03914  0.69888  1.0000
  Fe  Fe79      1.0  0.68431  0.06078  0.58655  1.0000
  S   S155      1.0  0.71223  0.08190  0.56891  1.0000
  Fe  Fe80      1.0  0.66570  0.02628  0.57707  1.0000
  C   C632      1.0  0.72121  0.00969  0.82471  1.0000
  S   S156      1.0  0.65464  0.06311  0.63063  1.0000
  S   S157      1.0  0.63493  0.02652  0.62165  1.0000
  Fe  Fe81      1.0  0.68113  0.20544  0.61289  1.0000
  S   S158      1.0  0.71146  0.18925  0.58395  1.0000
  S   S159      1.0  0.69809  0.21658  0.66011  1.0000
  Fe  Fe82      1.0  0.62347  0.20268  0.56552  1.0000
  S   S160      1.0  0.65121  0.18667  0.53300  1.0000
  S   S161      1.0  0.57228  0.20877  0.54916  1.0000
  Fe  Fe83      1.0  0.66684  0.17455  0.57851  1.0000
  S   S162      1.0  0.65433  0.14962  0.59279  1.0000
  Fe  Fe84      1.0  0.69336  0.20305  0.54079  1.0000
  H   H1136     1.0  0.76227  0.21633  0.59945  1.0000
  S   S163      1.0  0.63753  0.19004  0.61055  1.0000
  S   S164      1.0  0.66457  0.21985  0.57030  1.0000
  Fe  Fe85      1.0  0.87939  0.20892  0.84834  1.0000
  S   S165      1.0  0.85630  0.20341  0.89590  1.0000
  S   S166      1.0  0.92960  0.21841  0.83733  1.0000
  Fe  Fe86      1.0  0.82034  0.19762  0.80885  1.0000
  S   S167      1.0  0.79358  0.19087  0.85359  1.0000
  S   S168      1.0  0.80561  0.19099  0.75708  1.0000
  Fe  Fe87      1.0  0.81104  0.21377  0.87512  1.0000
  S   S169      1.0  0.77299  0.22889  0.90062  1.0000
  Fe  Fe88      1.0  0.84024  0.18109  0.87150  1.0000
  S   S170      1.0  0.84648  0.15850  0.89943  1.0000
  S   S171      1.0  0.83517  0.22108  0.82873  1.0000
  S   S172      1.0  0.86599  0.18597  0.82565  1.0000
  C   C633      1.0  0.72861  0.20962  0.68652  1.0000
  C   C634      1.0  0.73051  0.21547  0.71817  1.0000
  C   C635      1.0  0.75410  0.21009  0.74003  1.0000
  C   C636      1.0  0.77631  0.19888  0.73034  1.0000
  C   C637      1.0  0.77482  0.19329  0.69845  1.0000
  C   C638      1.0  0.75109  0.19858  0.67668  1.0000
  H   H1137     1.0  0.71340  0.22411  0.72598  1.0000
  H   H1138     1.0  0.75496  0.21454  0.76442  1.0000
  H   H1139     1.0  0.79214  0.18477  0.69061  1.0000
  H   H1140     1.0  0.75018  0.19415  0.65231  1.0000
  H   H1141     1.0  0.78635  0.26186  0.56668  1.0000
  H   H1142     1.0  0.94024  0.01569  0.91123  1.0000
  H   H1143     1.0  0.52620  0.15259  0.52665  1.0000
  H   H1144     1.0  0.82417  0.26909  0.52068  1.0000
  C   C639      1.0  0.97704  0.02742  0.96096  1.0000
  H   H1145     1.0  0.84164  0.25651  0.57274  1.0000
  H   H1146     1.0  0.69378  0.19226  0.94411  1.0000
  H   H1147     1.0  0.82352  0.21410  0.58216  1.0000
  C   C640      1.0  0.73589  0.24520  0.94411  1.0000
  C   C641      1.0  0.76542  0.23767  0.93906  1.0000
  H   H1148     1.0  0.90125  0.11618  0.84728  1.0000
  H   H1149     1.0  0.71849  0.24561  0.92468  1.0000
  C   C642      1.0  0.96780  0.21410  0.85457  1.0000
  C   C643      1.0  0.97121  0.20741  0.88509  1.0000
  C   C644      1.0  0.67448  0.28939  0.94926  1.0000
  H   H1150     1.0  0.95026  0.20550  0.89962  1.0000
  H   H1151     1.0  0.84788  0.22711  0.66371  1.0000
  H   H1152     1.0  0.71782  0.24039  0.56415  1.0000
  C   C645      1.0  0.53440  0.20381  0.56595  1.0000
  H   H1153     1.0  0.83906  0.23777  0.55378  1.0000
  H   H1154     1.0  0.55252  0.19715  0.61251  1.0000
  C   C646      1.0  0.95881  0.01806  0.98688  1.0000
  C   C647      1.0  0.69598  0.10078  0.57487  1.0000
  C   C648      1.0  0.66699  0.10280  0.59082  1.0000
  C   C649      1.0  0.65478  0.11786  0.59587  1.0000
  C   C650      1.0  0.67111  0.13110  0.58471  1.0000
  C   C651      1.0  0.70008  0.12917  0.56858  1.0000
  C   C652      1.0  0.71253  0.11404  0.56383  1.0000
  H   H1155     1.0  0.65370  0.09277  0.59901  1.0000
  H   H1156     1.0  0.63231  0.11922  0.60822  1.0000
  H   H1157     1.0  0.71285  0.13928  0.55981  1.0000
  H   H1158     1.0  0.73489  0.11258  0.55129  1.0000
  H   H1159     1.0  0.95624  0.12730  0.85476  1.0000
  H   H1160     1.0  0.80804  0.21752  0.54190  1.0000
  H   H1161     1.0  0.58227  0.02805  0.55209  1.0000
  C   C653      1.0  0.53262  0.04798  0.60412  1.0000
  C   C654      1.0  0.53436  0.03223  0.61280  1.0000
  H   H1162     1.0  0.72800  0.17253  0.74528  1.0000
  H   H1163     1.0  0.55741  0.02692  0.61739  1.0000
  C   C655      1.0  0.78762  0.23736  0.96454  1.0000
  C   C656      1.0  0.82717  0.11003  0.85572  1.0000
  C   C657      1.0  0.81748  0.12356  0.83922  1.0000
  C   C658      1.0  0.82378  0.13850  0.85203  1.0000
  C   C659      1.0  0.83946  0.14000  0.88175  1.0000
  C   C660      1.0  0.84913  0.12649  0.89832  1.0000
  C   C661      1.0  0.84321  0.11154  0.88528  1.0000
  H   H1164     1.0  0.80497  0.12248  0.81640  1.0000
  H   H1165     1.0  0.81614  0.14882  0.83912  1.0000
  H   H1166     1.0  0.86112  0.12758  0.92142  1.0000
  H   H1167     1.0  0.85058  0.10120  0.89828  1.0000
  C   C662      1.0  0.82051  0.00764  0.95639  1.0000
  H   H1168     1.0  0.54635  0.99868  0.52768  1.0000
  H   H1169     1.0  0.83732  0.26678  0.97929  1.0000
  H   H1170     1.0  0.76430  0.16566  0.90584  1.0000
  H   H1171     1.0  0.95472  0.03503  0.81250  1.0000
  H   H1172     1.0  0.70929  0.00175  0.90807  1.0000
  C   C663      1.0  0.78582  0.03016  0.74974  1.0000
  C   C664      1.0  0.78051  0.02474  0.71814  1.0000
  C   C665      1.0  0.75130  0.02764  0.70188  1.0000
  C   C666      1.0  0.72695  0.03587  0.71727  1.0000
  C   C667      1.0  0.73230  0.04131  0.74885  1.0000
  C   C668      1.0  0.76164  0.03862  0.76489  1.0000
  H   H1173     1.0  0.79898  0.01810  0.70627  1.0000
  H   H1174     1.0  0.74740  0.02323  0.67773  1.0000
  H   H1175     1.0  0.71360  0.04767  0.76099  1.0000
  H   H1176     1.0  0.76528  0.04285  0.78916  1.0000
  C   C669      1.0  0.57254  0.16336  0.53125  1.0000
  H   H1177     1.0  0.75898  0.02179  0.87208  1.0000
  C   C670      1.0  0.70962  0.16581  0.98387  1.0000
  H   H1178     1.0  0.92879  0.09128  0.83388  1.0000
  H   H1179     1.0  0.85351  0.19235  0.96649  1.0000
  C   C671      1.0  0.58273  0.16318  0.65716  1.0000
  H   H1180     1.0  0.98276  0.01973  0.94034  1.0000
  H   H1181     1.0  0.55406  0.18286  0.50295  1.0000
  H   H1182     1.0  0.70050  0.31099  0.94465  1.0000
  H   H1183     1.0  0.99144  0.18304  0.84120  1.0000
  H   H1184     1.0  0.99574  0.18723  0.75192  1.0000
  H   H1185     1.0  0.80572  0.31202  0.89164  1.0000
  H   H1186     1.0  0.54047  0.00991  0.56336  1.0000
  C   C672      1.0  0.97991  0.04004  0.85681  1.0000
  H   H1187     1.0  0.71060  0.24290  0.50509  1.0000
  H   H1188     1.0  0.69882  0.01877  0.88429  1.0000
  H   H1189     1.0  0.67573  0.25917  0.57735  1.0000
  H   H1190     1.0  0.81289  0.28969  0.95233  1.0000
  H   H1191     1.0  0.70583  0.25794  0.97731  1.0000
  H   H1192     1.0  0.75976  0.19375  0.91183  1.0000
  H   H1193     1.0  0.75677  0.25741  0.61738  1.0000
  C   C673      1.0  0.92245  0.00656  0.91671  1.0000
  H   H1194     1.0  0.77862  0.24595  0.54010  1.0000
  H   H1195     1.0  0.68527  0.30728  0.98399  1.0000
  C   C674      1.0  0.88143  0.05335  0.98112  1.0000
  C   C675      1.0  0.74497  0.19160  0.93349  1.0000
  C   C676      1.0  0.82841  0.24955  0.55429  1.0000
  C   C677      1.0  0.66333  0.99809  0.50825  1.0000
  H   H1196     1.0  0.77283  0.19438  0.54677  1.0000
  H   H1197     1.0  0.92780  0.07813  0.86746  1.0000
  H   H1198     1.0  0.91900  0.12170  0.80954  1.0000
  H   H1199     1.0  0.73989  0.23842  0.62134  1.0000
  C   C678      1.0  0.77053  0.14817  0.94274  1.0000
  H   H1200     1.0  0.58516  0.17590  0.65257  1.0000
  C   C679      1.0  0.99101  0.18881  0.77797  1.0000
  H   H1201     1.0  0.73453  0.13155  0.92542  1.0000
  H   H1202     1.0  0.53339  0.16288  0.64273  1.0000
  C   C680      1.0  0.57704  0.01983  0.53179  1.0000
  H   H1203     1.0  0.77393  0.12346  0.93160  1.0000
  H   H1204     1.0  0.98006  0.17261  0.89255  1.0000
  H   H1205     1.0  0.66971  0.28021  0.96747  1.0000
  H   H1206     1.0  0.99335  0.22280  0.81346  1.0000
  H   H1207     1.0  0.79626  0.21737  0.64113  1.0000
  H   H1208     1.0  0.74309  0.01755  0.94369  1.0000
  C   C681      1.0  0.80232  0.19548  0.97424  1.0000
  C   C682      1.0  0.72860  0.25225  0.97400  1.0000
  C   C683      1.0  0.72464  0.25068  0.57878  1.0000
  H   H1209     1.0  0.00423  0.02852  0.78235  1.0000
  C   C684      1.0  0.73879  0.16072  0.74420  1.0000
  C   C685      1.0  0.79280  0.17998  0.95734  1.0000
  H   H1210     1.0  0.85766  0.04953  0.97170  1.0000
  C   C686      1.0  0.69720  0.30178  0.96304  1.0000
  H   H1211     1.0  0.72923  0.02207  0.82242  1.0000
  C   C687      1.0  0.53142  0.19821  0.59739  1.0000
  H   H1212     1.0  0.67599  0.20484  0.89368  1.0000
  H   H1213     1.0  0.55199  0.14405  0.64403  1.0000
  H   H1214     1.0  0.58177  0.05031  0.51782  1.0000
  H   H1215     1.0  0.81828  0.22422  0.69440  1.0000
  C   C688      1.0  0.79347  0.19604  0.56347  1.0000
  H   H1216     1.0  0.73260  0.25998  0.56209  1.0000
  H   H1217     1.0  0.66717  0.19564  0.72073  1.0000
  C   C689      1.0  0.76273  0.30351  0.91538  1.0000
  H   H1218     1.0  0.66320  0.16780  0.73656  1.0000
  S   S173      1.0  0.66449  0.00288  0.54999  1.0000
  H   H1219     1.0  0.76315  0.16445  0.78994  1.0000
  C   C690      1.0  0.75401  0.16322  0.93003  1.0000
  C   C691      1.0  0.56827  0.17206  0.49939  1.0000
  C   C692      1.0  0.70938  0.19135  0.92274  1.0000
  C   C693      1.0  0.55338  0.12178  0.59713  1.0000
  H   H1220     1.0  0.69464  0.14782  0.74335  1.0000
  H   H1221     1.0  0.56389  0.09730  0.60595  1.0000
  H   H1222     1.0  0.72439  0.15535  0.79337  1.0000
  H   H1223     1.0  0.81051  0.25206  0.62509  1.0000
  N   N35       1.0  0.70590  0.15268  0.69329  1.0000
  C   C694      1.0  0.71571  0.14889  0.72751  1.0000
  C   C695      1.0  0.68456  0.13994  0.67952  1.0000
  C   C696      1.0  0.73612  0.15336  0.67352  1.0000
  C   C697      1.0  0.68988  0.16843  0.69084  1.0000
  C   C698      1.0  0.65936  0.17085  0.71092  1.0000
  H   H1224     1.0  0.98634  0.07647  0.86890  1.0000
  C   C699      1.0  0.73149  0.15339  0.63634  1.0000
  C   C700      1.0  0.66104  0.13174  0.70281  1.0000
  C   C701      1.0  0.63646  0.12186  0.68428  1.0000
  C   C702      1.0  0.64861  0.18790  0.70982  1.0000
  C   C703      1.0  0.76238  0.15791  0.61923  1.0000
  H   H1225     1.0  0.72740  0.13721  0.72823  1.0000
  H   H1226     1.0  0.81073  0.23202  0.96108  1.0000
  H   H1227     1.0  0.67056  0.14452  0.65866  1.0000
  H   H1228     1.0  0.69925  0.13022  0.66966  1.0000
  H   H1229     1.0  0.75196  0.14327  0.67931  1.0000
  H   H1230     1.0  0.75024  0.16397  0.67975  1.0000
  H   H1231     1.0  0.70700  0.17787  0.69740  1.0000
  H   H1232     1.0  0.68282  0.17101  0.66554  1.0000
  N   N36       1.0  0.74354  0.00091  0.84697  1.0000
  H   H1233     1.0  0.63952  0.16375  0.70071  1.0000
  H   H1234     1.0  0.76190  0.16152  0.73138  1.0000
  H   H1235     1.0  0.56254  0.17076  0.59591  1.0000
  H   H1236     1.0  0.71271  0.16165  0.62851  1.0000
  H   H1237     1.0  0.72452  0.14157  0.62776  1.0000
  H   H1238     1.0  0.67459  0.12382  0.71914  1.0000
  H   H1239     1.0  0.64780  0.14006  0.71800  1.0000
  H   H1240     1.0  0.64854  0.11302  0.66911  1.0000
  H   H1241     1.0  0.62067  0.11567  0.70145  1.0000
  H   H1242     1.0  0.62134  0.12938  0.66857  1.0000
  H   H1243     1.0  0.81217  0.00155  0.86867  1.0000
  C   C704      1.0  0.55885  0.00570  0.54639  1.0000
  H   H1244     1.0  0.64410  0.19166  0.68460  1.0000
  H   H1245     1.0  0.76935  0.17007  0.62548  1.0000
  H   H1246     1.0  0.78218  0.14995  0.62609  1.0000
  H   H1247     1.0  0.75859  0.15720  0.59275  1.0000
  N   N37       1.0  0.76580  0.07804  0.67226  1.0000
  C   C705      1.0  0.73054  0.07731  0.66411  1.0000
  C   C706      1.0  0.78202  0.06398  0.65780  1.0000
  C   C707      1.0  0.76900  0.07672  0.70844  1.0000
  C   C708      1.0  0.78164  0.09303  0.66146  1.0000
  C   C709      1.0  0.76763  0.10097  0.63081  1.0000
  C   C710      1.0  0.70924  0.09007  0.67981  1.0000
  C   C711      1.0  0.80358  0.07508  0.72208  1.0000
  C   C712      1.0  0.78206  0.06280  0.62062  1.0000
  C   C713      1.0  0.79612  0.04723  0.60967  1.0000
  C   C714      1.0  0.78906  0.11434  0.61967  1.0000
  C   C715      1.0  0.68873  0.08375  0.70726  1.0000
  C   C716      1.0  0.80479  0.07813  0.75833  1.0000
  H   H1248     1.0  0.72072  0.06556  0.67007  1.0000
  H   H1249     1.0  0.72635  0.07815  0.63781  1.0000
  H   H1250     1.0  0.80769  0.06357  0.66496  1.0000
  H   H1251     1.0  0.77100  0.05310  0.66737  1.0000
  H   H1252     1.0  0.75526  0.06646  0.71719  1.0000
  H   H1253     1.0  0.75826  0.08704  0.72040  1.0000
  H   H1254     1.0  0.78076  0.10205  0.68079  1.0000
  H   H1255     1.0  0.80765  0.09103  0.65749  1.0000
  H   H1256     1.0  0.74370  0.10597  0.63569  1.0000
  H   H1257     1.0  0.76489  0.09270  0.61052  1.0000
  H   H1258     1.0  0.72336  0.10023  0.68855  1.0000
  H   H1259     1.0  0.69256  0.09467  0.66108  1.0000
  H   H1260     1.0  0.82025  0.08337  0.71038  1.0000
  H   H1261     1.0  0.81238  0.06299  0.71822  1.0000
  H   H1262     1.0  0.75765  0.06357  0.61023  1.0000
  H   H1263     1.0  0.79716  0.07219  0.61033  1.0000
  H   H1264     1.0  0.82131  0.04607  0.61813  1.0000
  H   H1265     1.0  0.78181  0.03732  0.61913  1.0000
  H   H1266     1.0  0.79564  0.04661  0.58296  1.0000
  H   H1267     1.0  0.81258  0.10978  0.61176  1.0000
  H   H1268     1.0  0.77753  0.12038  0.59896  1.0000
  H   H1269     1.0  0.79287  0.12291  0.63942  1.0000
  H   H1270     1.0  0.67403  0.09330  0.71742  1.0000
  H   H1271     1.0  0.67224  0.07450  0.69820  1.0000
  H   H1272     1.0  0.70368  0.07877  0.72688  1.0000
  H   H1273     1.0  0.79779  0.09034  0.76385  1.0000
  H   H1274     1.0  0.78861  0.07001  0.77123  1.0000
  H   H1275     1.0  0.82952  0.07629  0.76757  1.0000
  N   N38       1.0  0.97113  0.16005  0.84814  1.0000
  C   C717      1.0  0.94558  0.15007  0.83244  1.0000
  C   C718      1.0  0.97427  0.17496  0.82916  1.0000
  H   H1276     1.0  0.80051  0.20516  0.95663  1.0000
  C   C719      1.0  0.96257  0.16412  0.88235  1.0000
  C   C720      1.0  0.92906  0.17141  0.88740  1.0000
  C   C721      1.0  0.93556  0.13521  0.85118  1.0000
  H   H1277     1.0  0.58770  0.15429  0.59603  1.0000
  H   H1278     1.0  0.97019  0.19676  0.78061  1.0000
  C   C722      1.0  0.76655  0.31353  0.94651  1.0000
  C   C723      1.0  0.92287  0.17402  0.92324  1.0000
  C   C724      1.0  0.53952  0.15905  0.54581  1.0000
  C   C725      1.0  0.70152  0.20533  0.90129  1.0000
  H   H1279     1.0  0.95362  0.14600  0.80840  1.0000
  H   H1280     1.0  0.92366  0.15710  0.82745  1.0000
  H   H1281     1.0  0.95118  0.18141  0.82864  1.0000
  C   C726      1.0  0.90962  0.12621  0.83267  1.0000
  H   H1282     1.0  0.62753  0.03329  0.49649  1.0000
  C   C727      1.0  0.57837  0.04272  0.49614  1.0000
  H   H1283     1.0  0.96451  0.15367  0.89815  1.0000
  C   C728      1.0  0.76056  0.13386  0.92296  1.0000
  H   H1284     1.0  0.90979  0.16377  0.87791  1.0000
  H   H1285     1.0  0.92693  0.18282  0.87509  1.0000
  H   H1286     1.0  0.94457  0.09732  0.87291  1.0000
  H   H1287     1.0  0.00410  0.19809  0.92056  1.0000
  H   H1288     1.0  0.71660  0.20529  0.87939  1.0000
  H   H1289     1.0  0.76501  0.14598  0.96837  1.0000
  H   H1290     1.0  0.92401  0.99781  0.86777  1.0000
  C   C729      1.0  0.77954  0.31118  0.88695  1.0000
  H   H1291     1.0  0.87978  0.02223  0.96246  1.0000
  C   C730      1.0  0.83425  0.25710  0.52152  1.0000
  C   C731      1.0  0.72961  0.29457  0.97395  1.0000
  H   H1292     1.0  0.89929  0.17970  0.92640  1.0000
  H   H1293     1.0  0.92241  0.16268  0.93618  1.0000
  H   H1294     1.0  0.94158  0.18168  0.93409  1.0000
  N   N39       1.0  0.75739  0.17745  0.95133  1.0000
  H   H1295     1.0  0.75832  0.14419  0.77919  1.0000
  H   H1296     1.0  0.75236  0.32433  0.94203  1.0000
  H   H1297     1.0  0.69683  0.01048  0.83482  1.0000
  H   H1298     1.0  0.69290  0.16881  0.96410  1.0000
  H   H1299     1.0  0.71513  0.15322  0.98140  1.0000
  H   H1300     1.0  0.84403  0.99693  0.91621  1.0000
  H   H1301     1.0  0.77575  0.23376  0.65872  1.0000
  H   H1302     1.0  0.80604  0.17966  0.93417  1.0000
  H   H1303     1.0  0.72855  0.16032  0.92530  1.0000
  H   H1304     1.0  0.70360  0.02578  0.94089  1.0000
  C   C732      1.0  0.79219  0.24934  0.56232  1.0000
  H   H1305     1.0  0.74754  0.20233  0.94848  1.0000
  H   H1306     1.0  0.70007  0.26761  0.60903  1.0000
  H   H1307     1.0  0.57729  0.13419  0.56005  1.0000
  H   H1308     1.0  0.76627  0.13562  0.89714  1.0000
  H   H1309     1.0  0.68519  0.02128  0.77420  1.0000
  C   C733      1.0  0.79836  0.22992  0.64746  1.0000
  C   C734      1.0  0.71829  0.00304  0.78994  1.0000
  H   H1310     1.0  0.81413  0.18952  0.55367  1.0000
  H   H1311     1.0  0.82991  0.23565  0.60881  1.0000
  C   C735      1.0  0.82469  0.23138  0.67310  1.0000
  H   H1312     1.0  0.54379  0.10090  0.56821  1.0000
  H   H1313     1.0  0.96324  0.03762  0.95224  1.0000
  H   H1314     1.0  0.78755  0.19114  0.58741  1.0000
  H   H1315     1.0  0.68779  0.00481  0.74744  1.0000
  H   H1316     1.0  0.82739  0.24371  0.68105  1.0000
  H   H1317     1.0  0.80287  0.17035  0.97225  1.0000
  C   C736      1.0  0.74650  0.15579  0.77877  1.0000
  H   H1318     1.0  0.88867  0.13382  0.82771  1.0000
  H   H1319     1.0  0.89827  0.01151  0.91247  1.0000
  C   C737      1.0  0.99561  0.21733  0.83683  1.0000
  H   H1320     1.0  0.77566  0.30402  0.86492  1.0000
  H   H1321     1.0  0.75547  0.22307  0.56013  1.0000
  H   H1322     1.0  0.62612  0.18930  0.72353  1.0000
  C   C738      1.0  0.69467  0.25668  0.59557  1.0000
  H   H1323     1.0  0.91286  0.03235  0.94681  1.0000
  H   H1324     1.0  0.92569  0.13814  0.87512  1.0000
  H   H1325     1.0  0.68532  0.24781  0.61260  1.0000
  N   N40       1.0  0.78149  0.23944  0.59044  1.0000
  C   C739      1.0  0.80630  0.23977  0.61717  1.0000
  C   C740      1.0  0.75118  0.24649  0.60376  1.0000
  C   C741      1.0  0.77380  0.22299  0.57967  1.0000
  C   C742      1.0  0.80205  0.21334  0.56643  1.0000
  C   C743      1.0  0.98417  0.17301  0.79347  1.0000
  H   H1326     1.0  0.70561  0.21642  0.91463  1.0000
  H   H1327     1.0  0.76979  0.32305  0.88250  1.0000
  C   C744      1.0  0.97784  0.03560  0.82443  1.0000
  H   H1328     1.0  0.60571  0.15732  0.65154  1.0000
  C   C745      1.0  0.56258  0.15796  0.60024  1.0000
  H   H1329     1.0  0.58710  0.15284  0.52636  1.0000
  H   H1330     1.0  0.72573  0.32525  0.99044  1.0000
  H   H1331     1.0  0.58647  0.17110  0.54765  1.0000
  H   H1332     1.0  0.57753  0.16148  0.68309  1.0000
  H   H1333     1.0  0.58587  0.10563  0.57309  1.0000
  H   H1334     1.0  0.65135  0.29488  0.94245  1.0000
  H   H1335     1.0  0.52635  0.17023  0.54947  1.0000
  H   H1336     1.0  0.52997  0.12080  0.60927  1.0000
  C   C746      1.0  0.94210  0.08743  0.85572  1.0000
  C   C747      1.0  0.92530  0.00072  0.95194  1.0000
  H   H1337     1.0  0.53192  0.04090  0.54020  1.0000
  C   C748      1.0  0.81100  0.00544  0.98851  1.0000
  H   H1338     1.0  0.66627  0.00301  0.78471  1.0000
  H   H1339     1.0  0.60097  0.01581  0.52416  1.0000
  H   H1340     1.0  0.73610  0.03476  0.91938  1.0000
  C   C749      1.0  0.90417  0.02654  0.96894  1.0000
  C   C750      1.0  0.00183  0.20336  0.89701  1.0000
  H   H1341     1.0  0.73708  0.30224  0.90871  1.0000
  H   H1342     1.0  0.99667  0.10409  0.84740  1.0000
  H   H1343     1.0  0.77244  0.29159  0.91807  1.0000
  H   H1344     1.0  0.68487  0.28389  0.92751  1.0000
  H   H1345     1.0  0.70321  0.18072  0.90878  1.0000
  H   H1346     1.0  0.96447  0.16743  0.77942  1.0000
  H   H1347     1.0  0.51333  0.02345  0.52619  1.0000
  C   C751      1.0  0.68748  0.00838  0.77318  1.0000
  H   H1348     1.0  0.76559  0.00433  0.89410  1.0000
  C   C752      1.0  0.71812  0.01299  0.89828  1.0000
  H   H1349     1.0  0.79688  0.14922  0.94089  1.0000
  N   N41       1.0  0.54022  0.14975  0.57675  1.0000
  C   C753      1.0  0.55550  0.15633  0.63671  1.0000
  C   C754      1.0  0.55232  0.13359  0.56902  1.0000
  H   H1350     1.0  0.97404  0.00777  0.99226  1.0000
  H   H1351     1.0  0.86036  0.25783  0.51695  1.0000
  C   C755      1.0  0.00226  0.15112  0.84878  1.0000
  H   H1352     1.0  0.73579  0.28507  0.95700  1.0000
  C   C756      1.0  0.74823  0.01020  0.87765  1.0000
  C   C757      1.0  0.72580  0.02343  0.92724  1.0000
  N   N42       1.0  0.75692  0.30601  0.97790  1.0000
  H   H1353     1.0  0.50757  0.01111  0.62199  1.0000
  H   H1354     1.0  0.83950  0.99807  0.81493  1.0000
  H   H1355     1.0  0.53823  0.12835  0.54885  1.0000
  H   H1356     1.0  0.78366  0.01184  0.82293  1.0000
  H   H1357     1.0  0.00071  0.14124  0.86608  1.0000
  C   C758      1.0  0.99576  0.09389  0.83078  1.0000
  H   H1358     1.0  0.82303  0.25001  0.50201  1.0000
  N   N43       1.0  0.92516  0.01293  0.97840  1.0000
  H   H1359     1.0  0.89513  0.05897  0.96147  1.0000
  H   H1360     1.0  0.97076  0.07118  0.82979  1.0000
  H   H1361     1.0  0.73882  0.00717  0.77540  1.0000
  H   H1362     1.0  0.57209  0.12531  0.61484  1.0000
  H   H1363     1.0  0.59466  0.00165  0.58396  1.0000
  H   H1364     1.0  0.79188  0.31759  0.94815  1.0000
  C   C759      1.0  0.56228  0.10546  0.58522  1.0000
  C   C760      1.0  0.83694  0.19509  0.98647  1.0000
  C   C761      1.0  0.77567  0.99999  0.83064  1.0000
  H   H1365     1.0  0.78353  0.27566  0.96573  1.0000
  C   C762      1.0  0.80096  0.28465  0.97369  1.0000
  C   C763      1.0  0.74092  0.17569  0.98338  1.0000
  N   N44       1.0  0.55961  0.02826  0.50498  1.0000
  H   H1366     1.0  0.98200  0.09794  0.80934  1.0000
  C   C764      1.0  0.52787  0.03361  0.51830  1.0000
  C   C765      1.0  0.97494  0.08105  0.84664  1.0000
  S   S174      1.0  0.72935  0.20965  0.50096  1.0000
  C   C766      1.0  0.50641  0.20565  0.54711  1.0000
  C   C767      1.0  0.50613  0.02329  0.61533  1.0000
  C   C768      1.0  0.78489  0.29771  0.99351  1.0000
  H   H1367     1.0  0.63053  0.06291  0.49551  1.0000
  H   H1368     1.0  0.50835  0.21009  0.52285  1.0000
  C   C769      1.0  0.50584  0.04306  0.49517  1.0000
  H   H1369     1.0  0.50530  0.14316  0.61289  1.0000
  C   C770      1.0  0.50652  0.14947  0.58966  1.0000
  H   H1370     1.0  0.73548  0.18742  0.99358  1.0000
  C   C771      1.0  0.82703  0.27652  0.99352  1.0000
  Fe  Fe89      1.0  0.90051  0.43283  0.34918  1.0000
  S   S175      1.0  0.87267  0.43230  0.39524  1.0000
  S   S176      1.0  0.95176  0.42441  0.35353  1.0000
  Fe  Fe90      1.0  0.84004  0.43929  0.30796  1.0000
  S   S177      1.0  0.80838  0.43930  0.35138  1.0000
  S   S178      1.0  0.82455  0.43921  0.25493  1.0000
  Fe  Fe91      1.0  0.84765  0.45349  0.37576  1.0000
  S   S179      1.0  0.83635  0.47608  0.40321  1.0000
  Fe  Fe92      1.0  0.83654  0.41815  0.36700  1.0000
  S   S180      1.0  0.81421  0.39597  0.38705  1.0000
  S   S181      1.0  0.87780  0.45489  0.33082  1.0000
  S   S182      1.0  0.86594  0.41737  0.32250  1.0000
  Fe  Fe93      1.0  0.62410  0.43740  0.09129  1.0000
  S   S183      1.0  0.65968  0.43175  0.05252  1.0000
  S   S184      1.0  0.57341  0.43085  0.07719  1.0000
  Fe  Fe94      1.0  0.67694  0.44756  0.13913  1.0000
  S   S185      1.0  0.71507  0.44266  0.10342  1.0000
  S   S186      1.0  0.69040  0.45623  0.18936  1.0000
  Fe  Fe95      1.0  0.68287  0.45460  0.06709  1.0000
  S   S187      1.0  0.70285  0.47559  0.03961  1.0000
  Fe  Fe96      1.0  0.68783  0.42051  0.09287  1.0000
  S   S188      1.0  0.71218  0.39716  0.10146  1.0000
  S   S189      1.0  0.64568  0.46067  0.10377  1.0000
  S   S190      1.0  0.65096  0.42498  0.13046  1.0000
  C   C772      1.0  0.94562  0.38218  0.30183  1.0000
  C   C773      1.0  0.51037  0.38101  0.09801  1.0000
  H   H1371     1.0  0.83687  0.37288  0.26642  1.0000
  H   H1372     1.0  0.67061  0.34471  0.21784  1.0000
  H   H1373     1.0  0.85468  0.37096  0.22702  1.0000
  C   C774      1.0  0.84985  0.48314  0.44147  1.0000
  C   C775      1.0  0.83910  0.49779  0.45232  1.0000
  C   C776      1.0  0.87179  0.47494  0.46064  1.0000
  H   H1374     1.0  0.82201  0.50423  0.43784  1.0000
  H   H1375     1.0  0.88000  0.46359  0.45287  1.0000
  C   C777      1.0  0.78609  0.44311  0.23834  1.0000
  C   C778      1.0  0.77960  0.43859  0.20639  1.0000
  C   C779      1.0  0.75000  0.44203  0.19157  1.0000
  C   C780      1.0  0.72680  0.45047  0.20825  1.0000
  C   C781      1.0  0.73312  0.45486  0.24033  1.0000
  C   C782      1.0  0.76250  0.45109  0.25543  1.0000
  H   H1376     1.0  0.79774  0.43249  0.19292  1.0000
  H   H1377     1.0  0.74542  0.43841  0.16704  1.0000
  H   H1378     1.0  0.71534  0.46138  0.25349  1.0000
  H   H1379     1.0  0.76722  0.45472  0.28000  1.0000
  C   C783      1.0  0.53821  0.45022  0.11722  1.0000
  C   C784      1.0  0.53804  0.43867  0.09333  1.0000
  C   C785      1.0  0.52529  0.48794  0.03039  1.0000
  H   H1380     1.0  0.56070  0.45455  0.12682  1.0000
  C   C786      1.0  0.75656  0.33246  0.31851  1.0000
  C   C787      1.0  0.97438  0.49950  0.38440  1.0000
  H   H1381     1.0  0.97876  0.35015  0.33324  1.0000
  H   H1382     1.0  0.71559  0.50542  0.01024  1.0000
  H   H1383     1.0  0.96389  0.45325  0.31734  1.0000
  C   C788      1.0  0.75686  0.34445  0.02940  1.0000
  C   C789      1.0  0.84593  0.34762  0.35159  1.0000
  C   C790      1.0  0.85188  0.36096  0.33312  1.0000
  C   C791      1.0  0.84176  0.37575  0.34348  1.0000
  C   C792      1.0  0.82574  0.37737  0.37265  1.0000
  C   C793      1.0  0.81896  0.36393  0.39079  1.0000
  C   C794      1.0  0.82902  0.34906  0.38032  1.0000
  H   H1384     1.0  0.86480  0.35987  0.31083  1.0000
  H   H1385     1.0  0.84652  0.38589  0.32895  1.0000
  H   H1386     1.0  0.80633  0.36505  0.41330  1.0000
  H   H1387     1.0  0.82415  0.33882  0.39469  1.0000
  C   C795      1.0  0.68024  0.35013  0.05862  1.0000
  C   C796      1.0  0.69400  0.35089  0.08941  1.0000
  C   C797      1.0  0.70365  0.36539  0.10231  1.0000
  C   C798      1.0  0.69863  0.37928  0.08499  1.0000
  C   C799      1.0  0.68434  0.37854  0.05447  1.0000
  C   C800      1.0  0.67546  0.36399  0.04123  1.0000
  H   H1388     1.0  0.69791  0.34025  0.10286  1.0000
  H   H1389     1.0  0.71501  0.36587  0.12580  1.0000
  H   H1390     1.0  0.68117  0.38914  0.04075  1.0000
  H   H1391     1.0  0.77555  0.35319  0.03584  1.0000
  H   H1392     1.0  0.89736  0.48468  0.38224  1.0000
  C   C801      1.0  0.59651  0.49555  0.10862  1.0000
  H   H1393     1.0  0.62207  0.49422  0.10206  1.0000
  H   H1394     1.0  0.82047  0.38332  0.23271  1.0000
  H   H1395     1.0  0.97186  0.51159  0.44842  1.0000
  H   H1396     1.0  0.58848  0.39370  0.10435  1.0000
  H   H1397     1.0  0.89694  0.48864  0.30750  1.0000
  H   H1398     1.0  0.60876  0.34842  0.07389  1.0000
  H   H1399     1.0  0.90569  0.52339  0.46917  1.0000
  H   H1400     1.0  0.59418  0.50628  0.12345  1.0000
  H   H1401     1.0  0.84189  0.51556  0.48949  1.0000
  H   H1402     1.0  0.97275  0.48033  0.43103  1.0000
  H   H1403     1.0  0.89217  0.39268  0.38211  1.0000
  N   N45       1.0  0.70606  0.39682  0.23486  1.0000
  C   C802      1.0  0.70316  0.38008  0.24594  1.0000
  C   C803      1.0  0.72284  0.40628  0.26081  1.0000
  C   C804      1.0  0.67240  0.40310  0.23136  1.0000
  C   C805      1.0  0.72296  0.39849  0.20301  1.0000
  C   C806      1.0  0.75066  0.38691  0.19622  1.0000
  C   C807      1.0  0.68205  0.36928  0.22436  1.0000
  C   C808      1.0  0.66924  0.42062  0.22272  1.0000
  C   C809      1.0  0.75759  0.40154  0.26974  1.0000
  C   C810      1.0  0.76945  0.41026  0.29972  1.0000
  C   C811      1.0  0.77408  0.39343  0.17161  1.0000
  C   C812      1.0  0.68555  0.35216  0.23401  1.0000
  C   C813      1.0  0.63417  0.42503  0.21709  1.0000
  H   H1404     1.0  0.69292  0.37970  0.27064  1.0000
  H   H1405     1.0  0.72683  0.37445  0.24847  1.0000
  H   H1406     1.0  0.72484  0.41874  0.25356  1.0000
  H   H1407     1.0  0.70840  0.40617  0.28326  1.0000
  H   H1408     1.0  0.65869  0.40110  0.25390  1.0000
  H   H1409     1.0  0.65932  0.39681  0.21179  1.0000
  H   H1410     1.0  0.70584  0.39717  0.18238  1.0000
  H   H1411     1.0  0.73236  0.41061  0.20058  1.0000
  H   H1412     1.0  0.74082  0.37577  0.18659  1.0000
  H   H1413     1.0  0.76471  0.38409  0.21798  1.0000
  H   H1414     1.0  0.65634  0.37223  0.22701  1.0000
  H   H1415     1.0  0.68836  0.37047  0.19861  1.0000
  H   H1416     1.0  0.68259  0.42322  0.20043  1.0000
  H   H1417     1.0  0.67830  0.42822  0.24247  1.0000
  H   H1418     1.0  0.75984  0.38893  0.27506  1.0000
  H   H1419     1.0  0.77390  0.40471  0.24981  1.0000
  H   H1420     1.0  0.79483  0.40719  0.30472  1.0000
  H   H1421     1.0  0.76802  0.42307  0.29609  1.0000
  H   H1422     1.0  0.75513  0.40699  0.32110  1.0000
  H   H1423     1.0  0.78660  0.40387  0.18152  1.0000
  H   H1424     1.0  0.79228  0.38447  0.16570  1.0000
  H   H1425     1.0  0.76138  0.39674  0.14909  1.0000
  C   C814      1.0  0.95185  0.33111  0.35223  1.0000
  C   C815      1.0  0.57712  0.48179  0.05779  1.0000
  H   H1426     1.0  0.62347  0.41802  0.19719  1.0000
  H   H1427     1.0  0.62012  0.42319  0.23933  1.0000
  H   H1428     1.0  0.96061  0.46187  0.38142  1.0000
  C   C816      1.0  0.88555  0.49751  0.32320  1.0000
  C   C817      1.0  0.76054  0.33263  0.19480  1.0000
  H   H1429     1.0  0.86391  0.49233  0.33442  1.0000
  C   C818      1.0  0.85031  0.50425  0.48168  1.0000
  H   H1430     1.0  0.91135  0.39829  0.28020  1.0000
  C   C819      1.0  0.89877  0.39408  0.43304  1.0000
  H   H1431     1.0  0.90344  0.58132  0.49054  1.0000
  C   C820      1.0  0.98600  0.37986  0.35807  1.0000
  C   C821      1.0  0.58389  0.38089  0.10560  1.0000
  C   C822      1.0  0.53610  0.38415  0.07192  1.0000
  C   C823      1.0  0.57570  0.49693  0.07832  1.0000
  H   H1432     1.0  0.55092  0.49935  0.08622  1.0000
  H   H1433     1.0  0.90904  0.40606  0.43300  1.0000
  C   C824      1.0  0.92067  0.38632  0.27610  1.0000
  H   H1434     1.0  0.91849  0.35725  0.37260  1.0000
  C   C825      1.0  0.55930  0.35796  0.07764  1.0000
  H   H1435     1.0  0.80110  0.47406  0.07370  1.0000
  H   H1436     1.0  0.78317  0.52051  0.05355  1.0000
  C   C826      1.0  0.61540  0.37249  0.11460  1.0000
  H   H1437     1.0  0.98934  0.39261  0.35386  1.0000
  H   H1438     1.0  0.87790  0.50750  0.30798  1.0000
  C   C827      1.0  0.95396  0.34813  0.34142  1.0000
  H   H1439     1.0  0.89671  0.51240  0.36299  1.0000
  H   H1440     1.0  0.63258  0.43756  0.21042  1.0000
  H   H1441     1.0  0.80124  0.52553  0.09180  1.0000
  N   N46       1.0  0.77592  0.48264  0.13717  1.0000
  C   C828      1.0  0.74003  0.48214  0.13273  1.0000
  C   C829      1.0  0.79006  0.46785  0.12354  1.0000
  C   C830      1.0  0.78268  0.48279  0.17306  1.0000
  C   C831      1.0  0.79104  0.49693  0.12219  1.0000
  C   C832      1.0  0.77469  0.50354  0.09124  1.0000
  C   C833      1.0  0.72134  0.49514  0.15061  1.0000
  C   C834      1.0  0.81812  0.48065  0.18365  1.0000
  C   C835      1.0  0.78651  0.46532  0.08677  1.0000
  H   H1442     1.0  0.93705  0.34955  0.32084  1.0000
  C   C836      1.0  0.79584  0.51574  0.07502  1.0000
  C   C837      1.0  0.68701  0.49651  0.13803  1.0000
  C   C838      1.0  0.82281  0.48439  0.21940  1.0000
  H   H1443     1.0  0.73044  0.47081  0.14153  1.0000
  H   H1444     1.0  0.73305  0.48243  0.10690  1.0000
  H   H1445     1.0  0.81628  0.46743  0.12808  1.0000
  H   H1446     1.0  0.77973  0.45750  0.13599  1.0000
  H   H1447     1.0  0.76864  0.47348  0.18522  1.0000
  H   H1448     1.0  0.77450  0.49396  0.18391  1.0000
  H   H1449     1.0  0.79177  0.50683  0.13963  1.0000
  H   H1450     1.0  0.81662  0.49457  0.11668  1.0000
  H   H1451     1.0  0.75177  0.50931  0.09725  1.0000
  H   H1452     1.0  0.76901  0.49441  0.07320  1.0000
  H   H1453     1.0  0.72003  0.49231  0.17670  1.0000
  H   H1454     1.0  0.73321  0.50667  0.14827  1.0000
  H   H1455     1.0  0.83422  0.48833  0.16961  1.0000
  H   H1456     1.0  0.82550  0.46830  0.18028  1.0000
  H   H1457     1.0  0.76130  0.46616  0.07858  1.0000
  C   C839      1.0  0.58680  0.37836  0.04569  1.0000
  H   H1458     1.0  0.53697  0.35526  0.06386  1.0000
  H   H1459     1.0  0.97820  0.48425  0.34161  1.0000
  C   C840      1.0  0.98651  0.44817  0.32458  1.0000
  C   C841      1.0  0.83179  0.37218  0.24017  1.0000
  H   H1460     1.0  0.81858  0.51038  0.06693  1.0000
  H   H1461     1.0  0.63490  0.38950  0.00644  1.0000
  H   H1462     1.0  0.68662  0.49885  0.11171  1.0000
  H   H1463     1.0  0.67367  0.48558  0.14303  1.0000
  H   H1464     1.0  0.67475  0.50625  0.15050  1.0000
  H   H1465     1.0  0.80706  0.47688  0.23430  1.0000
  H   H1466     1.0  0.84802  0.48208  0.22663  1.0000
  H   H1467     1.0  0.81739  0.49684  0.22434  1.0000
  H   H1468     1.0  0.84576  0.34181  0.22263  1.0000
  H   H1469     1.0  0.63993  0.39223  0.13674  1.0000
  H   H1470     1.0  0.89398  0.37415  0.40227  1.0000
  H   H1471     1.0  0.56817  0.37936  0.12677  1.0000
  H   H1472     1.0  0.95543  0.37056  0.29592  1.0000
  H   H1473     1.0  0.54047  0.39697  0.07295  1.0000
  H   H1474     1.0  0.80320  0.35907  0.20672  1.0000
  C   C842      1.0  0.80935  0.35844  0.23272  1.0000
  C   C843      1.0  0.90909  0.50317  0.34913  1.0000
  H   H1475     1.0  0.74213  0.34282  0.31159  1.0000
  H   H1476     1.0  0.93119  0.47902  0.43872  1.0000
  H   H1477     1.0  0.95604  0.35527  0.39165  1.0000
  H   H1478     1.0  0.90342  0.50352  0.42365  1.0000
  C   C844      1.0  0.90497  0.38592  0.40098  1.0000
  H   H1479     1.0  0.94158  0.57626  0.47343  1.0000
  C   C845      1.0  0.94449  0.35934  0.36894  1.0000
  H   H1480     1.0  0.90047  0.37787  0.27643  1.0000
  H   H1481     1.0  0.61037  0.36024  0.12166  1.0000
  H   H1482     1.0  0.55419  0.35472  0.10306  1.0000
  C   C846      1.0  0.77177  0.33091  0.01094  1.0000
  H   H1483     1.0  0.95282  0.37960  0.41560  1.0000
  H   H1484     1.0  0.65379  0.37349  0.14994  1.0000
  H   H1485     1.0  0.61608  0.38081  0.16438  1.0000
  H   H1486     1.0  0.73819  0.35033  0.01458  1.0000
  C   C847      1.0  0.95713  0.45032  0.42714  1.0000
  H   H1487     1.0  0.92855  0.48015  0.35549  1.0000
  N   N47       1.0  0.94326  0.49347  0.39779  1.0000
  H   H1488     1.0  0.94323  0.45099  0.44977  1.0000
  H   H1489     1.0  0.90748  0.37677  0.33523  1.0000
  H   H1490     1.0  0.58446  0.50714  0.06454  1.0000
  C   C848      1.0  0.92891  0.50630  0.41817  1.0000
  H   H1491     1.0  0.57373  0.37391  0.02402  1.0000
  H   H1492     1.0  0.92847  0.51752  0.40467  1.0000
  H   H1493     1.0  0.52528  0.50053  0.03723  1.0000
  H   H1494     1.0  0.87253  0.39500  0.43681  1.0000
  C   C849      1.0  0.91949  0.48953  0.37137  1.0000
  H   H1495     1.0  0.76383  0.33372  0.34421  1.0000
  C   C850      1.0  0.94896  0.47939  0.41905  1.0000
  H   H1496     1.0  0.60296  0.47942  0.05361  1.0000
  H   H1497     1.0  0.90932  0.38733  0.45331  1.0000
  C   C851      1.0  0.94147  0.38506  0.39406  1.0000
  H   H1498     1.0  0.93180  0.38598  0.25194  1.0000
  C   C852      1.0  0.63215  0.38028  0.14326  1.0000
  C   C853      1.0  0.94579  0.50974  0.45106  1.0000
  C   C854      1.0  0.93100  0.38275  0.33604  1.0000
  H   H1499     1.0  0.78754  0.36012  0.24724  1.0000
  H   H1500     1.0  0.96535  0.39088  0.30008  1.0000
  N   N48       1.0  0.95098  0.37650  0.36373  1.0000
  H   H1501     1.0  0.92086  0.46042  0.39695  1.0000
  H   H1502     1.0  0.82475  0.44811  0.08282  1.0000
  H   H1503     1.0  0.92540  0.39530  0.33987  1.0000
  H   H1504     1.0  0.95049  0.39731  0.39349  1.0000
  C   C855      1.0  0.50899  0.45622  0.12857  1.0000
  H   H1505     1.0  0.73018  0.33557  0.15263  1.0000
  C   C856      1.0  0.94622  0.46294  0.40348  1.0000
  H   H1506     1.0  0.71076  0.34839  0.23195  1.0000
  H   H1507     1.0  0.57351  0.43438  0.00475  1.0000
  H   H1508     1.0  0.52504  0.38174  0.04786  1.0000
  C   C857      1.0  0.93208  0.52437  0.46687  1.0000
  H   H1509     1.0  0.60258  0.49118  0.00429  1.0000
  N   N49       1.0  0.56718  0.37523  0.07540  1.0000
  H   H1510     1.0  0.66525  0.36345  0.01722  1.0000
  C   C858      1.0  0.88346  0.48153  0.48971  1.0000
  H   H1511     1.0  0.63224  0.37256  0.09430  1.0000
  H   H1512     1.0  0.60517  0.45679  0.02678  1.0000
  H   H1513     1.0  0.95310  0.43860  0.41640  1.0000
  H   H1514     1.0  0.78544  0.43982  0.08927  1.0000
  C   C859      1.0  0.98696  0.43426  0.34217  1.0000
  C   C860      1.0  0.82589  0.34270  0.24007  1.0000
  C   C861      1.0  0.55782  0.46585  0.01251  1.0000
  H   H1515     1.0  0.67757  0.35038  0.25919  1.0000
  H   H1516     1.0  0.56885  0.47187  0.07293  1.0000
  C   C862      1.0  0.57545  0.32940  0.07304  1.0000
  H   H1517     1.0  0.57353  0.50549  0.01239  1.0000
  C   C863      1.0  0.61353  0.39713  0.00701  1.0000
  H   H1518     1.0  0.54637  0.45775  0.02992  1.0000
  C   C864      1.0  0.58433  0.34619  0.06444  1.0000
  H   H1519     1.0  0.74602  0.34009  0.05198  1.0000
  H   H1520     1.0  0.58892  0.48538  0.12332  1.0000
  H   H1521     1.0  0.50847  0.42418  0.06274  1.0000
  H   H1522     1.0  0.83803  0.34367  0.26401  1.0000
  H   H1523     1.0  0.97054  0.51064  0.37121  1.0000
  H   H1524     1.0  0.58536  0.34690  0.03776  1.0000
  H   H1525     1.0  0.60971  0.37189  0.04642  1.0000
  H   H1526     1.0  0.61220  0.40014  0.05831  1.0000
  H   H1527     1.0  0.00144  0.47797  0.37625  1.0000
  H   H1528     1.0  0.93786  0.53492  0.45256  1.0000
  C   C865      1.0  0.59606  0.39560  0.03904  1.0000
  C   C866      1.0  0.79887  0.44923  0.07689  1.0000
  H   H1529     1.0  0.79560  0.44766  0.05050  1.0000
  H   H1530     1.0  0.57472  0.40317  0.03711  1.0000
  H   H1531     1.0  0.75952  0.34519  0.20075  1.0000
  H   H1532     1.0  0.92998  0.50835  0.33677  1.0000
  H   H1533     1.0  0.98307  0.45161  0.43266  1.0000
  N   N50       1.0  0.55910  0.48218  0.02612  1.0000
  H   H1534     1.0  0.51657  0.47788  0.07859  1.0000
  C   C867      1.0  0.57623  0.49326  0.00381  1.0000
  H   H1535     1.0  0.51767  0.38648  0.12122  1.0000
  C   C868      1.0  0.68911  0.48404  0.00274  1.0000
  C   C869      1.0  0.99302  0.48824  0.36233  1.0000
  H   H1536     1.0  0.80045  0.34217  0.30146  1.0000
  H   H1537     1.0  0.94220  0.49996  0.46814  1.0000
  H   H1538     1.0  0.99125  0.50257  0.40425  1.0000
  H   H1539     1.0  0.76106  0.33873  0.25547  1.0000
  C   C870      1.0  0.75425  0.33088  0.15866  1.0000
  S   S191      1.0  0.67005  0.33209  0.04044  1.0000
  H   H1540     1.0  0.53605  0.35192  0.00397  1.0000
  H   H1541     1.0  0.00058  0.47782  0.47779  1.0000
  H   H1542     1.0  0.51182  0.48739  0.00724  1.0000
  H   H1543     1.0  0.94242  0.52576  0.49144  1.0000
  H   H1544     1.0  0.77238  0.33743  0.14467  1.0000
  C   C871      1.0  0.78646  0.33130  0.29777  1.0000
  C   C872      1.0  0.50878  0.43308  0.08124  1.0000
  C   C873      1.0  0.59065  0.45847  0.00453  1.0000
  H   H1545     1.0  0.99450  0.37418  0.33577  1.0000
  H   H1546     1.0  0.62151  0.40940  0.00374  1.0000
  H   H1547     1.0  0.50909  0.46526  0.14681  1.0000
  H   H1548     1.0  0.50650  0.36839  0.10225  1.0000
  S   S192      1.0  0.86070  0.32962  0.33739  1.0000
  C   C874      1.0  0.69965  0.49910  0.99417  1.0000
  S   S193      1.0  0.81472  0.64709  0.60864  1.0000
  C   C875      1.0  0.56523  0.49295  0.96796  1.0000
  Fe  Fe97      1.0  0.66512  0.52939  0.87984  1.0000
  S   S194      1.0  0.66187  0.52944  0.82514  1.0000
  S   S195      1.0  0.65678  0.50594  0.90581  1.0000
  Fe  Fe98      1.0  0.66961  0.56530  0.88213  1.0000
  S   S196      1.0  0.66658  0.56760  0.82866  1.0000
  S   S197      1.0  0.66801  0.58702  0.91357  1.0000
  Fe  Fe99      1.0  0.62762  0.54952  0.83146  1.0000
  S   S198      1.0  0.58198  0.55560  0.80398  1.0000
  Fe  Fe100     1.0  0.70129  0.54757  0.82687  1.0000
  S   S199      1.0  0.74692  0.55150  0.79731  1.0000
  S   S200      1.0  0.62839  0.54843  0.88527  1.0000
  S   S201      1.0  0.70678  0.54628  0.88121  1.0000
  Fe  Fe101     1.0  0.85329  0.55971  0.57350  1.0000
  S   S202      1.0  0.85927  0.56015  0.62711  1.0000
  S   S203      1.0  0.84247  0.58130  0.54369  1.0000
  Fe  Fe102     1.0  0.87359  0.52511  0.56743  1.0000
  S   S204      1.0  0.88127  0.52323  0.62140  1.0000
  S   S205      1.0  0.89030  0.50448  0.53606  1.0000
  Fe  Fe103     1.0  0.83504  0.53668  0.62621  1.0000
  S   S206      1.0  0.79237  0.52984  0.65755  1.0000
  Fe  Fe104     1.0  0.90475  0.54685  0.61799  1.0000
  S   S207      1.0  0.95073  0.55697  0.63872  1.0000
  S   S208      1.0  0.82579  0.53701  0.57233  1.0000
  S   S209      1.0  0.90024  0.54791  0.56434  1.0000
  C   C876      1.0  0.76003  0.54416  0.75952  1.0000
  C   C877      1.0  0.74057  0.53484  0.73969  1.0000
  C   C878      1.0  0.75131  0.53022  0.70899  1.0000
  C   C879      1.0  0.78151  0.53489  0.69761  1.0000
  C   C880      1.0  0.80114  0.54405  0.71759  1.0000
  C   C881      1.0  0.79050  0.54856  0.74840  1.0000
  H   H1549     1.0  0.71711  0.53135  0.74785  1.0000
  H   H1550     1.0  0.73590  0.52314  0.69376  1.0000
  H   H1551     1.0  0.82445  0.54768  0.70928  1.0000
  H   H1552     1.0  0.80583  0.55566  0.76364  1.0000
  H   H1553     1.0  0.51279  0.47923  0.91672  1.0000
  C   C882      1.0  0.91529  0.59574  0.61457  1.0000
  H   H1554     1.0  0.67506  0.60247  0.80677  1.0000
  H   H1555     1.0  0.64420  0.61484  0.85178  1.0000
  H   H1556     1.0  0.96828  0.52655  0.66445  1.0000
  C   C883      1.0  0.54322  0.53492  0.83689  1.0000
  C   C884      1.0  0.54479  0.54768  0.81600  1.0000
  H   H1557     1.0  0.98331  0.58611  0.57836  1.0000
  H   H1558     1.0  0.56507  0.52998  0.84662  1.0000
  H   H1559     1.0  0.55553  0.58276  0.83767  1.0000
  C   C885      1.0  0.65916  0.48291  0.95210  1.0000
  C   C886      1.0  0.66980  0.49795  0.94341  1.0000
  C   C887      1.0  0.68998  0.50605  0.96479  1.0000
  H   H1560     1.0  0.64377  0.47648  0.93568  1.0000
  H   H1561     1.0  0.69841  0.51759  0.95852  1.0000
  H   H1562     1.0  0.55261  0.64989  0.86594  1.0000
  H   H1563     1.0  0.99067  0.52762  0.58488  1.0000
  H   H1564     1.0  0.96325  0.52159  0.55436  1.0000
  H   H1565     1.0  0.60447  0.65739  0.87781  1.0000
  H   H1566     1.0  0.66868  0.65027  0.77990  1.0000
  C   C888      1.0  0.71142  0.63307  0.87792  1.0000
  C   C889      1.0  0.71738  0.61909  0.86135  1.0000
  C   C890      1.0  0.70462  0.60484  0.87225  1.0000
  C   C891      1.0  0.68609  0.60446  0.90010  1.0000
  C   C892      1.0  0.68094  0.61837  0.91720  1.0000
  C   C893      1.0  0.69347  0.63264  0.90610  1.0000
  H   H1567     1.0  0.73170  0.61927  0.83987  1.0000
  H   H1568     1.0  0.70915  0.59415  0.85917  1.0000
  H   H1569     1.0  0.66713  0.61810  0.93907  1.0000
  H   H1570     1.0  0.68967  0.64327  0.91960  1.0000
  C   C894      1.0  0.82547  0.62922  0.59041  1.0000
  C   C895      1.0  0.83298  0.62810  0.55776  1.0000
  C   C896      1.0  0.83807  0.61333  0.54370  1.0000
  C   C897      1.0  0.83647  0.59965  0.56229  1.0000
  C   C898      1.0  0.82986  0.60085  0.59512  1.0000
  C   C899      1.0  0.82418  0.61556  0.60901  1.0000
  H   H1571     1.0  0.83364  0.63853  0.54313  1.0000
  H   H1572     1.0  0.84294  0.61248  0.51822  1.0000
  H   H1573     1.0  0.82846  0.59042  0.60962  1.0000
  H   H1574     1.0  0.81849  0.61640  0.63427  1.0000
  N   N51       1.0  0.74260  0.58365  0.67504  1.0000
  C   C900      1.0  0.74356  0.59732  0.65216  1.0000
  C   C901      1.0  0.74631  0.56882  0.65583  1.0000
  C   C902      1.0  0.71107  0.58391  0.69256  1.0000
  C   C903      1.0  0.76936  0.58456  0.69960  1.0000
  C   C904      1.0  0.80376  0.58483  0.68589  1.0000
  C   C905      1.0  0.74749  0.61368  0.66792  1.0000
  C   C906      1.0  0.70384  0.56957  0.71420  1.0000
  C   C907      1.0  0.71887  0.56497  0.63167  1.0000
  C   C908      1.0  0.72503  0.54945  0.61462  1.0000
  C   C909      1.0  0.82847  0.58825  0.71234  1.0000
  C   C910      1.0  0.74239  0.62666  0.64321  1.0000
  C   C911      1.0  0.67083  0.57081  0.72951  1.0000
  H   H1575     1.0  0.72126  0.59762  0.63728  1.0000
  H   H1576     1.0  0.76316  0.59593  0.63436  1.0000
  H   H1577     1.0  0.76866  0.56919  0.64145  1.0000
  H   H1578     1.0  0.74942  0.55869  0.67210  1.0000
  H   H1579     1.0  0.69075  0.58530  0.67528  1.0000
  H   H1580     1.0  0.70984  0.59428  0.70861  1.0000
  H   H1581     1.0  0.76616  0.59479  0.71579  1.0000
  H   H1582     1.0  0.76861  0.57428  0.71579  1.0000
  H   H1583     1.0  0.80655  0.59378  0.66696  1.0000
  H   H1584     1.0  0.80968  0.57328  0.67537  1.0000
  H   H1585     1.0  0.73008  0.61550  0.68750  1.0000
  H   H1586     1.0  0.77198  0.61510  0.67817  1.0000
  H   H1587     1.0  0.72148  0.56875  0.73421  1.0000
  H   H1588     1.0  0.70424  0.55850  0.70031  1.0000
  H   H1589     1.0  0.69552  0.56392  0.64395  1.0000
  H   H1590     1.0  0.71697  0.57415  0.61294  1.0000
  H   H1591     1.0  0.74819  0.54979  0.60168  1.0000
  H   H1592     1.0  0.72567  0.53972  0.63231  1.0000
  H   H1593     1.0  0.70559  0.54705  0.59686  1.0000
  H   H1594     1.0  0.85290  0.58775  0.70210  1.0000
  H   H1595     1.0  0.82471  0.60007  0.72264  1.0000
  H   H1596     1.0  0.82688  0.57942  0.73182  1.0000
  H   H1597     1.0  0.71726  0.62664  0.63423  1.0000
  H   H1598     1.0  0.74753  0.63820  0.65442  1.0000
  H   H1599     1.0  0.75864  0.62516  0.62245  1.0000
  H   H1600     1.0  0.66657  0.56042  0.74491  1.0000
  H   H1601     1.0  0.66940  0.58137  0.74498  1.0000
  H   H1602     1.0  0.65176  0.57122  0.71071  1.0000
  C   C912      1.0  0.58648  0.44250  0.98859  1.0000
  H   H1603     1.0  0.55587  0.48429  0.87788  1.0000
  C   C913      1.0  0.98775  0.54898  0.53587  1.0000
  H   H1604     1.0  0.89915  0.58749  0.66092  1.0000
  H   H1605     1.0  0.97046  0.58992  0.51698  1.0000
  C   C914      1.0  0.91915  0.65284  0.53621  1.0000
  H   H1606     1.0  0.98474  0.59862  0.61349  1.0000
  C   C915      1.0  0.92152  0.61121  0.59622  1.0000
  C   C916      1.0  0.95235  0.49619  0.59283  1.0000
  H   H1607     1.0  0.54648  0.60231  0.93391  1.0000
  H   H1608     1.0  0.89381  0.65083  0.52890  1.0000
  C   C917      1.0  0.55152  0.64605  0.84046  1.0000
  H   H1609     1.0  0.89717  0.61630  0.59271  1.0000
  H   H1610     1.0  0.94891  0.49571  0.64518  1.0000
  N   N52       1.0  0.77041  0.65106  0.77241  1.0000
  H   H1611     1.0  0.52166  0.36793  0.97975  1.0000
  C   C918      1.0  0.73475  0.64797  0.77018  1.0000
  C   C919      1.0  0.78524  0.63795  0.79182  1.0000
  H   H1612     1.0  0.54240  0.46545  0.99051  1.0000
  H   H1613     1.0  0.64266  0.64830  0.88116  1.0000
  H   H1614     1.0  0.68442  0.62243  0.79628  1.0000
  C   C920      1.0  0.77743  0.62108  0.78005  1.0000
  H   H1615     1.0  0.96277  0.54729  0.52731  1.0000
  H   H1616     1.0  0.94053  0.50774  0.59166  1.0000
  H   H1617     1.0  0.72627  0.64242  0.79285  1.0000
  H   H1618     1.0  0.91505  0.48745  0.62397  1.0000
  C   C921      1.0  0.79408  0.60889  0.80117  1.0000
  H   H1619     1.0  0.57337  0.48208  0.95602  1.0000
  S   S210      1.0  0.72788  0.65068  0.86333  1.0000
  H   H1620     1.0  0.72939  0.63948  0.75051  1.0000
  H   H1621     1.0  0.99692  0.50434  0.61378  1.0000
  H   H1622     1.0  0.77770  0.63878  0.81749  1.0000
  H   H1623     1.0  0.81178  0.63894  0.79217  1.0000
  C   C922      1.0  0.00237  0.47978  0.52975  1.0000
  H   H1624     1.0  0.93344  0.58482  0.56101  1.0000
  H   H1625     1.0  0.64731  0.63410  0.83720  1.0000
  H   H1626     1.0  0.57994  0.63563  0.80349  1.0000
  H   H1627     1.0  0.95192  0.47662  0.62647  1.0000
  H   H1628     1.0  0.66129  0.46425  0.98727  1.0000
  H   H1629     1.0  0.78562  0.61920  0.75505  1.0000
  H   H1630     1.0  0.75135  0.61863  0.78091  1.0000
  C   C923      1.0  0.94158  0.48849  0.62409  1.0000
  C   C924      1.0  0.98687  0.54643  0.63905  1.0000
  H   H1631     1.0  0.62600  0.62680  0.78382  1.0000
  H   H1632     1.0  0.57750  0.57346  0.86978  1.0000
  C   C925      1.0  0.98931  0.53186  0.65405  1.0000
  H   H1633     1.0  0.96690  0.49819  0.52779  1.0000
  H   H1634     1.0  0.94352  0.48885  0.57256  1.0000
  H   H1635     1.0  0.57055  0.61020  0.82123  1.0000
  H   H1636     1.0  0.52682  0.34893  0.96179  1.0000
  C   C926      1.0  0.61829  0.65171  0.92596  1.0000
  C   C927      1.0  0.58422  0.63976  0.82858  1.0000
  H   H1637     1.0  0.82050  0.61019  0.79987  1.0000
  H   H1638     1.0  0.78657  0.61007  0.82666  1.0000
  H   H1639     1.0  0.78752  0.59697  0.79273  1.0000
  H   H1640     1.0  0.61041  0.43749  0.98354  1.0000
  H   H1641     1.0  0.95516  0.64314  0.56724  1.0000
  C   C928      1.0  0.63193  0.62348  0.83605  1.0000
  H   H1642     1.0  0.98630  0.61226  0.54497  1.0000
  C   C929      1.0  0.57922  0.50677  0.94953  1.0000
  C   C930      1.0  0.56628  0.58458  0.86196  1.0000
  H   H1643     1.0  0.94260  0.62466  0.52167  1.0000
  N   N53       1.0  0.59897  0.62695  0.84863  1.0000
  H   H1644     1.0  0.66827  0.60928  0.76629  1.0000
  H   H1645     1.0  0.59350  0.65279  0.93510  1.0000
  H   H1646     1.0  0.56828  0.51789  0.95760  1.0000
  H   H1647     1.0  0.60431  0.46590  0.98779  1.0000
  H   H1648     1.0  0.53745  0.65678  0.79483  1.0000
  H   H1649     1.0  0.53889  0.49360  0.96537  1.0000
  C   C931      1.0  0.93026  0.64027  0.55985  1.0000
  C   C932      1.0  0.98919  0.52195  0.56080  1.0000
  H   H1650     1.0  0.61678  0.62308  0.89709  1.0000
  H   H1651     1.0  0.61183  0.59313  0.84648  1.0000
  C   C933      1.0  0.71242  0.66223  0.76566  1.0000
  H   H1652     1.0  0.52651  0.47091  0.86152  1.0000
  H   H1653     1.0  0.77880  0.64020  0.72612  1.0000
  H   H1654     1.0  0.99908  0.48592  0.59534  1.0000
  H   H1655     1.0  0.60050  0.59923  0.88615  1.0000
  C   C934      1.0  0.61777  0.64792  0.88998  1.0000
  C   C935      1.0  0.57766  0.61272  0.84663  1.0000
  C   C936      1.0  0.90373  0.59881  0.64877  1.0000
  H   H1656     1.0  0.63113  0.64253  0.93976  1.0000
  C   C937      1.0  0.78550  0.65097  0.73953  1.0000
  C   C938      1.0  0.94463  0.59256  0.51355  1.0000
  H   H1657     1.0  0.90282  0.62223  0.53572  1.0000
  C   C939      1.0  0.59163  0.59746  0.86117  1.0000
  H   H1658     1.0  0.93444  0.65297  0.51449  1.0000
  C   C940      1.0  0.63340  0.61747  0.80081  1.0000
  C   C941      1.0  0.92812  0.62386  0.54389  1.0000
  C   C942      1.0  0.51620  0.55396  0.80348  1.0000
  C   C943      1.0  0.66878  0.47599  0.98148  1.0000
  H   H1659     1.0  0.60549  0.50752  0.95340  1.0000
  H   H1660     1.0  0.54713  0.58749  0.87919  1.0000
  H   H1661     1.0  0.60122  0.64974  0.82619  1.0000
  H   H1662     1.0  0.55479  0.61501  0.85914  1.0000
  H   H1663     1.0  0.57457  0.50537  0.92330  1.0000
  H   H1664     1.0  0.57843  0.63159  0.89551  1.0000
  H   H1665     1.0  0.92225  0.60525  0.66287  1.0000
  C   C944      1.0  0.87285  0.49623  0.50045  1.0000
  H   H1666     1.0  0.88118  0.60564  0.64834  1.0000
  C   C945      1.0  0.97444  0.61120  0.56876  1.0000
  H   H1667     1.0  0.61774  0.60716  0.79688  1.0000
  C   C946      1.0  0.51954  0.35517  0.98402  1.0000
  H   H1668     1.0  0.90236  0.59556  0.54273  1.0000
  H   H1669     1.0  0.99282  0.47302  0.55027  1.0000
  H   H1670     1.0  0.93449  0.61939  0.61271  1.0000
  H   H1671     1.0  0.91475  0.64111  0.58133  1.0000
  C   C947      1.0  0.66742  0.61265  0.79208  1.0000
  H   H1672     1.0  0.93683  0.58837  0.61623  1.0000
  H   H1673     1.0  0.81206  0.65050  0.74188  1.0000
  C   C948      1.0  0.92871  0.59546  0.54659  1.0000
  H   H1674     1.0  0.89641  0.58886  0.60186  1.0000
  C   C949      1.0  0.99069  0.59774  0.58757  1.0000
  N   N54       1.0  0.93863  0.61014  0.56430  1.0000
  C   C950      1.0  0.60214  0.63174  0.88353  1.0000
  C   C951      1.0  0.53065  0.48315  0.86944  1.0000
  H   H1675     1.0  0.52718  0.49105  0.84849  1.0000
  H   H1676     1.0  0.53277  0.63689  0.83815  1.0000
  H   H1677     1.0  0.51725  0.56375  0.78714  1.0000
  H   H1678     1.0  0.57311  0.44359  0.96546  1.0000
  N   N55       1.0  0.00290  0.50563  0.56247  1.0000
  C   C952      1.0  0.98930  0.49781  0.59191  1.0000
  H   H1679     1.0  0.51440  0.49941  0.90490  1.0000
  H   H1680     1.0  0.98104  0.62206  0.58195  1.0000
  H   H1681     1.0  0.00469  0.52851  0.51181  1.0000
  C   C953      1.0  0.99324  0.49723  0.53191  1.0000
  H   H1682     1.0  0.92980  0.56811  0.51153  1.0000
  H   H1683     1.0  0.67613  0.65005  0.73688  1.0000
  H   H1684     1.0  0.78399  0.33578  0.98958  1.0000
  H   H1685     1.0  0.79826  0.65337  0.67505  1.0000
  C   C954      1.0  0.51344  0.52811  0.84403  1.0000
  H   H1686     1.0  0.00005  0.55711  0.51924  1.0000
  H   H1687     1.0  0.90068  0.47515  0.50411  1.0000
  H   H1688     1.0  0.51259  0.51797  0.85932  1.0000
  H   H1689     1.0  0.82562  0.66209  0.80943  1.0000
  H   H1690     1.0  0.99457  0.45970  0.49873  1.0000
  H   H1691     1.0  0.53100  0.59955  0.97382  1.0000
  H   H1692     1.0  0.96267  0.47380  0.49734  1.0000
  C   C955      1.0  0.52566  0.59795  0.94776  1.0000
  C   C956      1.0  0.67785  0.65713  0.75927  1.0000
  C   C957      1.0  0.54074  0.66009  0.82052  1.0000
  H   H1693     1.0  0.59733  0.39397  0.98664  1.0000
  H   H1694     1.0  0.52244  0.58526  0.94303  1.0000
  C   C958      1.0  0.50798  0.48747  0.89672  1.0000
  C   C959      1.0  0.98907  0.47238  0.49895  1.0000
  H   H1695     1.0  0.98746  0.55435  0.56025  1.0000
  H   H1696     1.0  0.50793  0.60885  0.88838  1.0000
  H   H1697     1.0  0.94228  0.60269  0.49722  1.0000
  C   C960      1.0  0.92893  0.57870  0.49626  1.0000
  H   H1698     1.0  0.00421  0.50296  0.51071  1.0000
  Fe  Fe105     1.0  0.81894  0.77144  0.07114  1.0000
  S   S211      1.0  0.84261  0.76694  0.11959  1.0000
  H   H1699     1.0  0.53039  0.95312  0.40546  1.0000
  Fe  Fe106     1.0  0.84248  0.80543  0.07222  1.0000
  S   S212      1.0  0.86731  0.80306  0.12005  1.0000
  S   S213      1.0  0.84772  0.82771  0.04330  1.0000
  Fe  Fe107     1.0  0.88520  0.78024  0.10060  1.0000
  S   S214      1.0  0.93545  0.77050  0.11018  1.0000
  Fe  Fe108     1.0  0.82280  0.79007  0.13520  1.0000
  S   S215      1.0  0.80045  0.79786  0.18290  1.0000
  S   S216      1.0  0.86300  0.78323  0.05156  1.0000
  S   S217      1.0  0.79662  0.79399  0.08804  1.0000
  Fe  Fe109     1.0  0.70232  0.78185  0.40841  1.0000
  S   S218      1.0  0.67382  0.76501  0.37801  1.0000
  S   S219      1.0  0.73287  0.77536  0.45346  1.0000
  Fe  Fe110     1.0  0.68137  0.80983  0.36519  1.0000
  S   S220      1.0  0.65161  0.79431  0.33263  1.0000
  S   S221      1.0  0.68206  0.83456  0.34471  1.0000
  Fe  Fe111     1.0  0.63417  0.78305  0.37812  1.0000
  S   S222      1.0  0.58276  0.77721  0.39396  1.0000
  Fe  Fe112     1.0  0.69374  0.77802  0.33506  1.0000
  S   S223      1.0  0.71606  0.76534  0.29205  1.0000
  S   S224      1.0  0.66183  0.79946  0.41079  1.0000
  S   S225      1.0  0.72429  0.79392  0.36537  1.0000
  Fe  Fe113     1.0  0.67311  0.92346  0.37509  1.0000
  S   S226      1.0  0.64445  0.92023  0.32993  1.0000
  S   S227      1.0  0.69302  0.90305  0.40386  1.0000
  Fe  Fe114     1.0  0.66075  0.95874  0.37689  1.0000
  S   S228      1.0  0.63103  0.95780  0.33102  1.0000
  S   S229      1.0  0.66993  0.98224  0.40212  1.0000
  Fe  Fe115     1.0  0.60875  0.93631  0.35256  1.0000
  S   S230      1.0  0.55797  0.92709  0.35776  1.0000
  Fe  Fe116     1.0  0.66971  0.94181  0.31192  1.0000
  S   S231      1.0  0.68505  0.94086  0.25886  1.0000
  S   S232      1.0  0.63608  0.93826  0.39928  1.0000
  S   S233      1.0  0.70086  0.94414  0.35626  1.0000
  Fe  Fe117     1.0  0.83851  0.94958  0.05822  1.0000
  S   S234      1.0  0.86825  0.95841  0.10028  1.0000
  H   H1700     1.0  0.80218  0.91359  0.39189  1.0000
  Fe  Fe118     1.0  0.82756  0.91740  0.09126  1.0000
  S   S235      1.0  0.85727  0.92453  0.13376  1.0000
  S   S236      1.0  0.80588  0.89341  0.10032  1.0000
  Fe  Fe119     1.0  0.83028  0.94706  0.13174  1.0000
  S   S237      1.0  0.81414  0.95571  0.18146  1.0000
  Fe  Fe120     1.0  0.89188  0.93485  0.09892  1.0000
  S   S238      1.0  0.94342  0.92632  0.09804  1.0000
  S   S239      1.0  0.79896  0.93974  0.08980  1.0000
  S   S240      1.0  0.86366  0.92626  0.05632  1.0000
  C   C961      1.0  0.97854  0.93791  0.09977  1.0000
  H   H1701     1.0  0.76664  0.97656  0.47897  1.0000
  H   H1702     1.0  0.83184  0.79381  0.39893  1.0000
  C   C962      1.0  0.97520  0.78903  0.07236  1.0000
  H   H1703     1.0  0.95600  0.95925  0.11478  1.0000
  C   C963      1.0  0.52230  0.93603  0.34398  1.0000
  C   C964      1.0  0.52198  0.95030  0.32759  1.0000
  H   H1704     1.0  0.63632  0.89391  0.27313  1.0000
  H   H1705     1.0  0.54425  0.95636  0.32310  1.0000
  H   H1706     1.0  0.73737  0.88424  0.17618  1.0000
  C   C965      1.0  0.72153  0.94492  0.23821  1.0000
  C   C966      1.0  0.72182  0.94386  0.20437  1.0000
  C   C967      1.0  0.74999  0.94684  0.18678  1.0000
  C   C968      1.0  0.77840  0.95097  0.20275  1.0000
  C   C969      1.0  0.77813  0.95208  0.23663  1.0000
  C   C970      1.0  0.75000  0.94899  0.25427  1.0000
  H   H1707     1.0  0.70000  0.94082  0.19157  1.0000
  H   H1708     1.0  0.74957  0.94626  0.16077  1.0000
  H   H1709     1.0  0.79981  0.95548  0.24929  1.0000
  H   H1710     1.0  0.75026  0.94994  0.28024  1.0000
  H   H1711     1.0  0.77009  0.73998  0.17337  1.0000
  C   C971      1.0  0.66512  0.98835  0.44280  1.0000
  C   C972      1.0  0.65241  0.97850  0.46627  1.0000
  H   H1712     1.0  0.75572  0.73055  0.13688  1.0000
  H   H1713     1.0  0.77582  0.88587  0.15941  1.0000
  S   S241      1.0  0.79233  0.75004  0.04970  1.0000
  C   C973      1.0  0.75693  0.75596  0.13450  1.0000
  C   C974      1.0  0.54320  0.77963  0.37790  1.0000
  C   C975      1.0  0.53724  0.78574  0.34718  1.0000
  N   N56       1.0  0.89496  0.73580  0.01576  1.0000
  H   H1714     1.0  0.55713  0.78912  0.33223  1.0000
  H   H1715     1.0  0.51400  0.89282  0.35380  1.0000
  C   C976      1.0  0.68991  0.88396  0.38764  1.0000
  C   C977      1.0  0.68399  0.88161  0.35484  1.0000
  C   C978      1.0  0.68177  0.86639  0.34230  1.0000
  C   C979      1.0  0.68505  0.85332  0.36244  1.0000
  C   C980      1.0  0.69067  0.85561  0.39538  1.0000
  C   C981      1.0  0.69334  0.87090  0.40788  1.0000
  H   H1716     1.0  0.68152  0.89153  0.33905  1.0000
  H   H1717     1.0  0.67752  0.86472  0.31679  1.0000
  H   H1718     1.0  0.69331  0.84563  0.41109  1.0000
  H   H1719     1.0  0.69792  0.87261  0.43331  1.0000
  C   C982      1.0  0.97289  0.77691  0.09476  1.0000
  C   C983      1.0  0.77289  0.85702  0.20242  1.0000
  H   H1720     1.0  0.92358  0.82808  0.05469  1.0000
  H   H1721     1.0  0.95375  0.79491  0.06417  1.0000
  H   H1722     1.0  0.90305  0.87964  0.03394  1.0000
  C   C984      1.0  0.74000  0.77457  0.26232  1.0000
  C   C985      1.0  0.74402  0.79078  0.26123  1.0000
  C   C986      1.0  0.76292  0.79764  0.23704  1.0000
  C   C987      1.0  0.77823  0.78843  0.21373  1.0000
  C   C988      1.0  0.77475  0.77219  0.21524  1.0000
  C   C989      1.0  0.75550  0.76533  0.23917  1.0000
  H   H1723     1.0  0.73233  0.79806  0.27888  1.0000
  H   H1724     1.0  0.76550  0.81021  0.23630  1.0000
  H   H1725     1.0  0.78716  0.76494  0.19819  1.0000
  H   H1726     1.0  0.75283  0.75277  0.23996  1.0000
  C   C990      1.0  0.83754  0.84597  0.06025  1.0000
  C   C991      1.0  0.82218  0.84701  0.08994  1.0000
  C   C992      1.0  0.81301  0.86167  0.10203  1.0000
  C   C993      1.0  0.81974  0.87543  0.08496  1.0000
  C   C994      1.0  0.83580  0.87444  0.05567  1.0000
  C   C995      1.0  0.84451  0.85974  0.04329  1.0000
  H   H1727     1.0  0.81662  0.83648  0.10315  1.0000
  H   H1728     1.0  0.80028  0.86236  0.12451  1.0000
  H   H1729     1.0  0.84063  0.88495  0.04213  1.0000
  H   H1730     1.0  0.85617  0.85901  0.02021  1.0000
  H   H1731     1.0  0.62859  0.89107  0.43655  1.0000
  C   C996      1.0  0.60428  0.88967  0.42579  1.0000
  H   H1732     1.0  0.61997  0.83309  0.31315  1.0000
  C   C997      1.0  0.88837  0.70583  0.00913  1.0000
  C   C998      1.0  0.50544  0.78723  0.33558  1.0000
  H   H1733     1.0  0.52571  0.86558  0.34691  1.0000
  C   C999      1.0  0.75027  0.75773  0.46907  1.0000
  C   C1000     1.0  0.74192  0.74289  0.45747  1.0000
  H   H1734     1.0  0.90104  0.86253  0.11947  1.0000
  H   H1735     1.0  0.72420  0.74186  0.43845  1.0000
  N   N57       1.0  0.79838  0.75174  0.35508  1.0000
  C   C1001     1.0  0.76375  0.74812  0.36222  1.0000
  C   C1002     1.0  0.80554  0.76842  0.36469  1.0000
  C   C1003     1.0  0.80241  0.75063  0.31898  1.0000
  C   C1004     1.0  0.82130  0.74053  0.37141  1.0000
  C   C1005     1.0  0.75117  0.73237  0.34822  1.0000
  C   C1006     1.0  0.83557  0.75559  0.30575  1.0000
  C   C1007     1.0  0.72131  0.72658  0.36546  1.0000
  C   C1008     1.0  0.83971  0.75031  0.27087  1.0000
  H   H1736     1.0  0.74794  0.75747  0.35244  1.0000
  H   H1737     1.0  0.75907  0.74832  0.38843  1.0000
  H   H1738     1.0  0.83016  0.77182  0.35772  1.0000
  H   H1739     1.0  0.78904  0.77649  0.35158  1.0000
  H   H1740     1.0  0.78403  0.75789  0.30643  1.0000
  H   H1741     1.0  0.79815  0.73846  0.31058  1.0000
  H   H1742     1.0  0.82587  0.73022  0.35572  1.0000
  H   H1743     1.0  0.84514  0.74618  0.37478  1.0000
  H   H1744     1.0  0.74476  0.73392  0.32236  1.0000
  H   H1745     1.0  0.76957  0.72310  0.34983  1.0000
  H   H1746     1.0  0.85540  0.75056  0.32030  1.0000
  H   H1747     1.0  0.83784  0.76852  0.30595  1.0000
  H   H1748     1.0  0.84697  0.71530  0.40554  1.0000
  H   H1749     1.0  0.70171  0.73521  0.36307  1.0000
  H   H1750     1.0  0.71305  0.71544  0.35443  1.0000
  H   H1751     1.0  0.72655  0.72447  0.39134  1.0000
  H   H1752     1.0  0.83890  0.73737  0.26908  1.0000
  H   H1753     1.0  0.82061  0.75534  0.25533  1.0000
  H   H1754     1.0  0.86321  0.75441  0.26182  1.0000
  H   H1755     1.0  0.80640  0.79196  0.43362  1.0000
  C   C1009     1.0  0.97838  0.95365  0.10891  1.0000
  H   H1756     1.0  0.78033  0.93972  0.40192  1.0000
  C   C1010     1.0  0.77609  0.93056  0.42029  1.0000
  C   C1011     1.0  0.94772  0.84423  0.08774  1.0000
  H   H1757     1.0  0.50788  0.98109  0.44605  1.0000
  H   H1758     1.0  0.99947  0.83115  0.13807  1.0000
  H   H1759     1.0  0.93650  0.81200  0.18854  1.0000
  H   H1760     1.0  0.87271  0.91534  0.20195  1.0000
  H   H1761     1.0  0.52107  0.77063  0.42074  1.0000
  H   H1762     1.0  0.74921  0.71797  0.46168  1.0000
  H   H1763     1.0  0.73373  0.96235  0.41868  1.0000
  H   H1764     1.0  0.72489  0.93356  0.41598  1.0000
  C   C1012     1.0  0.76059  0.89054  0.17901  1.0000
  C   C1013     1.0  0.75492  0.99047  0.43803  1.0000
  H   H1765     1.0  0.55077  0.84244  0.32784  1.0000
  H   H1766     1.0  0.70832  0.90517  0.14692  1.0000
  H   H1767     1.0  0.73195  0.87606  0.22921  1.0000
  H   H1768     1.0  0.85858  0.73310  0.42643  1.0000
  C   C1014     1.0  0.93982  0.85880  0.06696  1.0000
  H   H1769     1.0  0.70023  0.95702  0.48479  1.0000
  H   H1770     1.0  0.56357  0.89391  0.37427  1.0000
  H   H1771     1.0  0.90349  0.89617  0.06127  1.0000
  H   H1772     1.0  0.59832  0.82680  0.34837  1.0000
  H   H1773     1.0  0.80851  0.84494  0.17333  1.0000
  H   H1774     1.0  0.82363  0.76621  0.41417  1.0000
  H   H1775     1.0  0.77340  0.76536  0.14268  1.0000
  H   H1776     1.0  0.82996  0.71998  0.44406  1.0000
  H   H1777     1.0  0.94505  0.80583  0.14813  1.0000
  H   H1778     1.0  0.58434  0.82143  0.30870  1.0000
  N   N58       1.0  0.70582  0.77309  0.13451  1.0000
  C   C1015     1.0  0.72334  0.78738  0.14663  1.0000
  C   C1016     1.0  0.72266  0.75879  0.14727  1.0000
  C   C1017     1.0  0.70553  0.77337  0.09817  1.0000
  C   C1018     1.0  0.67172  0.77284  0.14618  1.0000
  C   C1019     1.0  0.66731  0.77498  0.18307  1.0000
  C   C1020     1.0  0.70795  0.80333  0.13807  1.0000
  C   C1021     1.0  0.69317  0.75831  0.08119  1.0000
  C   C1022     1.0  0.63200  0.77403  0.19212  1.0000
  C   C1023     1.0  0.72730  0.81681  0.15264  1.0000
  C   C1024     1.0  0.69472  0.75997  0.04458  1.0000
  H   H1779     1.0  0.74799  0.78774  0.13692  1.0000
  H   H1780     1.0  0.72667  0.78684  0.17317  1.0000
  H   H1781     1.0  0.72508  0.75944  0.17391  1.0000
  H   H1782     1.0  0.70808  0.74811  0.14258  1.0000
  H   H1783     1.0  0.72986  0.77606  0.08884  1.0000
  H   H1784     1.0  0.69017  0.78304  0.08919  1.0000
  H   H1785     1.0  0.65717  0.78190  0.13367  1.0000
  H   H1786     1.0  0.66008  0.76155  0.13968  1.0000
  H   H1787     1.0  0.67633  0.78652  0.19135  1.0000
  H   H1788     1.0  0.68010  0.76581  0.19687  1.0000
  H   H1789     1.0  0.70728  0.80510  0.11162  1.0000
  H   H1790     1.0  0.68324  0.80420  0.14737  1.0000
  H   H1791     1.0  0.66794  0.75590  0.08763  1.0000
  H   H1792     1.0  0.70778  0.74800  0.08780  1.0000
  H   H1793     1.0  0.62186  0.76243  0.18561  1.0000
  H   H1794     1.0  0.62961  0.77566  0.21855  1.0000
  H   H1795     1.0  0.61807  0.78333  0.17978  1.0000
  H   H1796     1.0  0.75198  0.81692  0.14287  1.0000
  H   H1797     1.0  0.71575  0.82810  0.14656  1.0000
  H   H1798     1.0  0.72862  0.81572  0.17928  1.0000
  H   H1799     1.0  0.71968  0.76238  0.03698  1.0000
  H   H1800     1.0  0.68675  0.74892  0.03288  1.0000
  H   H1801     1.0  0.67901  0.76959  0.03613  1.0000
  H   H1802     1.0  0.86073  0.74692  0.04687  1.0000
  H   H1803     1.0  0.68379  0.92421  0.45990  1.0000
  C   C1025     1.0  0.83024  0.90069  0.20422  1.0000
  H   H1804     1.0  0.58630  0.89756  0.32317  1.0000
  N   N59       1.0  0.73935  0.94640  0.45867  1.0000
  H   H1805     1.0  0.93396  0.74405  0.04605  1.0000
  N   N60       1.0  0.95427  0.87395  0.07893  1.0000
  H   H1806     1.0  0.73716  0.99109  0.41799  1.0000
  C   C1026     1.0  0.53345  0.96498  0.41595  1.0000
  C   C1027     1.0  0.90961  0.98381  0.04945  1.0000
  H   H1807     1.0  0.91340  0.85962  0.06444  1.0000
  C   C1028     1.0  0.81096  0.73370  0.40447  1.0000
  H   H1808     1.0  0.79098  0.72526  0.40124  1.0000
  H   H1809     1.0  0.92881  0.91253  0.01998  1.0000
  H   H1810     1.0  0.75746  0.75561  0.10792  1.0000
  H   H1811     1.0  0.54644  0.83046  0.38558  1.0000
  C   C1029     1.0  0.84937  0.91513  0.21449  1.0000
  C   C1030     1.0  0.91648  0.89017  0.04169  1.0000
  C   C1031     1.0  0.80401  0.77221  0.40099  1.0000
  C   C1032     1.0  0.77018  0.74041  0.14664  1.0000
  C   C1033     1.0  0.74791  0.97653  0.45985  1.0000
  H   H1812     1.0  0.72426  0.89511  0.29609  1.0000
  C   C1034     1.0  0.83842  0.72500  0.42097  1.0000
  H   H1813     1.0  0.78083  0.76864  0.41097  1.0000
  H   H1814     1.0  0.96119  0.89754  0.06122  1.0000
  C   C1035     1.0  0.74279  0.93274  0.43587  1.0000
  H   H1815     1.0  0.63973  0.94075  0.47954  1.0000
  H   H1816     1.0  0.64342  0.96713  0.45938  1.0000
  C   C1036     1.0  0.95047  0.81486  0.16670  1.0000
  H   H1817     1.0  0.80268  0.74279  0.42132  1.0000
  H   H1818     1.0  0.77402  0.96019  0.43235  1.0000
  H   H1819     1.0  0.80516  0.89748  0.24880  1.0000
  H   H1820     1.0  0.77911  0.83243  0.19140  1.0000
  C   C1037     1.0  0.53912  0.87352  0.33059  1.0000
  H   H1821     1.0  0.95172  0.99168  0.02582  1.0000
  H   H1822     1.0  0.75983  0.91415  0.38334  1.0000
  C   C1038     1.0  0.70438  0.94757  0.46711  1.0000
  C   C1039     1.0  0.77462  0.74487  0.01167  1.0000
  H   H1823     1.0  0.79519  0.73901  0.13840  1.0000
  H   H1824     1.0  0.92039  0.97246  0.05654  1.0000
  H   H1825     1.0  0.62044  0.87257  0.39184  1.0000
  H   H1826     1.0  0.55377  0.96462  0.43338  1.0000
  H   H1827     1.0  0.61083  0.89025  0.23868  1.0000
  H   H1828     1.0  0.90480  0.87896  0.16823  1.0000
  C   C1040     1.0  0.90414  0.87530  0.11623  1.0000
  H   H1829     1.0  0.89206  0.90393  0.00524  1.0000
  C   C1041     1.0  0.76078  0.94376  0.48771  1.0000
  C   C1042     1.0  0.61108  0.89339  0.26463  1.0000
  C   C1043     1.0  0.89172  0.88323  0.14660  1.0000
  H   H1830     1.0  0.80951  0.98975  0.02946  1.0000
  H   H1831     1.0  0.88860  0.87888  0.09598  1.0000
  H   H1832     1.0  0.77444  0.90503  0.41986  1.0000
  H   H1833     1.0  0.97223  0.84008  0.08217  1.0000
  H   H1834     1.0  0.62174  0.89252  0.37812  1.0000
  C   C1044     1.0  0.80812  0.78969  0.40734  1.0000
  H   H1835     1.0  0.73728  0.92158  0.44842  1.0000
  C   C1045     1.0  0.75607  0.72933  0.47090  1.0000
  C   C1046     1.0  0.53664  0.82217  0.40349  1.0000
  H   H1836     1.0  0.61500  0.85928  0.34123  1.0000
  H   H1837     1.0  0.89464  0.89608  0.14487  1.0000
  H   H1838     1.0  0.93265  0.82013  0.09386  1.0000
  H   H1839     1.0  0.85407  0.91504  0.24086  1.0000
  C   C1047     1.0  0.95087  0.88620  0.05300  1.0000
  H   H1840     1.0  0.60018  0.90514  0.26735  1.0000
  H   H1841     1.0  0.83607  0.92591  0.20814  1.0000
  C   C1048     1.0  0.79420  0.84296  0.19536  1.0000
  C   C1049     1.0  0.59581  0.83089  0.32309  1.0000
  H   H1842     1.0  0.53411  0.89851  0.31746  1.0000
  H   H1843     1.0  0.76062  0.88085  0.25969  1.0000
  C   C1050     1.0  0.79328  0.87184  0.20955  1.0000
  C   C1051     1.0  0.87111  0.73518  0.04270  1.0000
  H   H1844     1.0  0.91247  0.99211  0.06987  1.0000
  C   C1052     1.0  0.92465  0.83076  0.08088  1.0000
  C   C1053     1.0  0.79851  0.89952  0.22309  1.0000
  H   H1845     1.0  0.98168  0.76022  0.03071  1.0000
  H   H1846     1.0  0.95603  0.77490  0.01263  1.0000
  C   C1054     1.0  0.52020  0.88907  0.32906  1.0000
  H   H1847     1.0  0.55823  0.87503  0.39129  1.0000
  H   H1848     1.0  0.75682  0.85882  0.18132  1.0000
  C   C1055     1.0  0.60720  0.88377  0.39122  1.0000
  H   H1849     1.0  0.58534  0.85367  0.36885  1.0000
  H   H1850     1.0  0.82558  0.90117  0.17790  1.0000
  N   N61       1.0  0.77523  0.88710  0.21168  1.0000
  C   C1056     1.0  0.74960  0.88513  0.23677  1.0000
  C   C1057     1.0  0.00113  0.76936  0.10492  1.0000
  H   H1851     1.0  0.99213  0.80329  0.18462  1.0000
  H   H1852     1.0  0.59065  0.88121  0.44060  1.0000
  C   C1058     1.0  0.58855  0.85859  0.34424  1.0000
  H   H1853     1.0  0.61886  0.88471  0.32727  1.0000
  H   H1854     1.0  0.92929  0.71802  0.03003  1.0000
  H   H1855     1.0  0.76565  0.72111  0.02624  1.0000
  C   C1059     1.0  0.88445  0.72995  0.07599  1.0000
  C   C1060     1.0  0.98971  0.87125  0.08425  1.0000
  H   H1856     1.0  0.86583  0.88058  0.14929  1.0000
  H   H1857     1.0  0.95327  0.87484  0.13133  1.0000
  H   H1858     1.0  0.78899  0.79645  0.39503  1.0000
  H   H1859     1.0  0.83896  0.73436  0.09966  1.0000
  C   C1061     1.0  0.94523  0.75106  0.99769  1.0000
  C   C1062     1.0  0.57559  0.84570  0.32112  1.0000
  H   H1860     1.0  0.57529  0.84959  0.29574  1.0000
  C   C1063     1.0  0.57379  0.88194  0.37491  1.0000
  S   S242      1.0  0.83958  0.96050  0.00744  1.0000
  C   C1064     1.0  0.93979  0.87952  0.11021  1.0000
  H   H1861     1.0  0.79549  0.93108  0.43870  1.0000
  H   H1862     1.0  0.74414  0.91440  0.19041  1.0000
  H   H1863     1.0  0.69014  0.95104  0.44543  1.0000
  H   H1864     1.0  0.69317  0.90702  0.27877  1.0000
  H   H1865     1.0  0.94260  0.82645  0.15776  1.0000
  H   H1866     1.0  0.84443  0.75818  0.00193  1.0000
  C   C1065     1.0  0.74895  0.96101  0.44076  1.0000
  H   H1867     1.0  0.78753  0.91130  0.22282  1.0000
  H   H1868     1.0  0.77798  0.91371  0.16450  1.0000
  H   H1869     1.0  0.71255  0.90225  0.22445  1.0000
  H   H1870     1.0  0.74204  0.90303  0.12023  1.0000
  N   N62       1.0  0.57361  0.87470  0.34169  1.0000
  C   C1066     1.0  0.59317  0.88509  0.32005  1.0000
  H   H1871     1.0  0.54161  0.82662  0.42818  1.0000
  H   H1872     1.0  0.74393  0.91018  0.24996  1.0000
  H   H1873     1.0  0.75817  0.85391  0.22360  1.0000
  H   H1874     1.0  0.94815  0.85623  0.04208  1.0000
  H   H1875     1.0  0.94223  0.89245  0.11237  1.0000
  C   C1067     1.0  0.75493  0.90792  0.17036  1.0000
  C   C1068     1.0  0.73262  0.90957  0.14117  1.0000
  H   H1876     1.0  0.78545  0.94799  0.48259  1.0000
  C   C1069     1.0  0.72919  0.89969  0.24476  1.0000
  C   C1070     1.0  0.70877  0.89677  0.27447  1.0000
  H   H1877     1.0  0.96478  0.88267  0.03140  1.0000
  C   C1071     1.0  0.59229  0.88122  0.28370  1.0000
  H   H1878     1.0  0.90030  0.83380  0.08930  1.0000
  H   H1879     1.0  0.86703  0.72295  0.12292  1.0000
  H   H1880     1.0  0.81135  0.87245  0.19003  1.0000
  H   H1881     1.0  0.84561  0.89041  0.20933  1.0000
  H   H1882     1.0  0.60360  0.86973  0.27934  1.0000
  H   H1883     1.0  0.94676  0.84699  0.11382  1.0000
  H   H1884     1.0  0.73069  0.92206  0.13434  1.0000
  H   H1885     1.0  0.54925  0.81086  0.40071  1.0000
  H   H1886     1.0  0.69339  0.88629  0.27103  1.0000
  H   H1887     1.0  0.59222  0.90121  0.42621  1.0000
  H   H1888     1.0  0.80693  0.86968  0.23233  1.0000
  H   H1889     1.0  0.81061  0.84060  0.21598  1.0000
  C   C1072     1.0  0.77820  0.91486  0.40285  1.0000
  H   H1890     1.0  0.56753  0.88120  0.27391  1.0000
  H   H1891     1.0  0.59398  0.99083  0.42792  1.0000
  H   H1892     1.0  0.90914  0.75901  0.03146  1.0000
  H   H1893     1.0  0.84577  0.71420  0.08938  1.0000
  C   C1073     1.0  0.98623  0.81500  0.17496  1.0000
  C   C1074     1.0  0.98810  0.95957  0.02352  1.0000
  C   C1075     1.0  0.92025  0.74777  0.02424  1.0000
  H   H1894     1.0  0.00133  0.94912  0.03211  1.0000
  H   H1895     1.0  0.89038  0.68079  0.00131  1.0000
  H   H1896     1.0  0.89767  0.73981  0.08750  1.0000
  C   C1076     1.0  0.85735  0.72508  0.09833  1.0000
  H   H1897     1.0  0.53950  0.97324  0.39630  1.0000
  H   H1898     1.0  0.90101  0.71994  0.07429  1.0000
  C   C1077     1.0  0.91699  0.90135  0.01306  1.0000
  H   H1899     1.0  0.96438  0.95568  0.01416  1.0000
  H   H1900     1.0  0.53724  0.86803  0.30645  1.0000
  H   H1901     1.0  0.92417  0.98079  0.00069  1.0000
  H   H1902     1.0  0.98422  0.96757  0.04418  1.0000
  H   H1903     1.0  0.85018  0.72772  0.03588  1.0000
  H   H1904     1.0  0.99360  0.86310  0.10470  1.0000
  H   H1905     1.0  0.72427  0.97851  0.47088  1.0000
  H   H1906     1.0  0.88369  0.98191  0.04463  1.0000
  C   C1078     1.0  0.51683  0.77535  0.39693  1.0000
  C   C1079     1.0  0.81712  0.99127  0.00483  1.0000
  H   H1907     1.0  0.77931  0.98958  0.42781  1.0000
  C   C1080     1.0  0.68891  0.93236  0.48016  1.0000
  H   H1908     1.0  0.87576  0.70409  0.03224  1.0000
  H   H1909     1.0  0.99867  0.89332  0.11048  1.0000
  H   H1910     1.0  0.57549  0.99493  0.48227  1.0000
  C   C1081     1.0  0.91101  0.72021  0.01089  1.0000
  C   C1082     1.0  0.90709  0.69090  0.00225  1.0000
  C   C1083     1.0  0.92614  0.99000  0.01944  1.0000
  H   H1911     1.0  0.92512  0.68876  0.02158  1.0000
  C   C1084     1.0  0.76324  0.72951  0.00695  1.0000
  H   H1912     1.0  0.99966  0.75996  0.12220  1.0000
  H   H1913     1.0  0.99022  0.82376  0.19432  1.0000
  H   H1914     1.0  0.99787  0.81141  0.12479  1.0000
  C   C1085     1.0  0.96882  0.76375  0.00834  1.0000
  H   H1915     1.0  0.00039  0.86555  0.06271  1.0000
  H   H1916     1.0  0.76357  0.93104  0.49258  1.0000
  Fe  Fe121     1.0  0.82932  0.67168  0.59388  1.0000
  S   S243      1.0  0.86228  0.68243  0.63044  1.0000
  Fe  Fe122     1.0  0.82330  0.70297  0.55692  1.0000
  S   S244      1.0  0.85715  0.71534  0.59170  1.0000
  S   S245      1.0  0.79516  0.71260  0.51268  1.0000
  Fe  Fe123     1.0  0.88801  0.69356  0.58902  1.0000
  S   S246      1.0  0.94180  0.68756  0.59359  1.0000
  Fe  Fe124     1.0  0.82903  0.70281  0.63037  1.0000
  S   S247      1.0  0.81582  0.71340  0.67900  1.0000
  S   S248      1.0  0.85588  0.68181  0.55195  1.0000
  S   S249      1.0  0.79425  0.69154  0.59619  1.0000
  Fe  Fe125     1.0  0.68853  0.69898  0.81839  1.0000
  S   S250      1.0  0.73114  0.69503  0.85037  1.0000
  S   S251      1.0  0.69102  0.70186  0.76370  1.0000
  Fe  Fe126     1.0  0.64064  0.69261  0.87361  1.0000
  S   S252      1.0  0.68093  0.68769  0.90908  1.0000
  S   S253      1.0  0.59004  0.68881  0.89364  1.0000
  Fe  Fe127     1.0  0.70518  0.70898  0.88839  1.0000
  S   S254      1.0  0.72657  0.73055  0.91449  1.0000
  Fe  Fe128     1.0  0.70339  0.67421  0.86839  1.0000
  S   S255      1.0  0.66385  0.71446  0.85452  1.0000
  S   S256      1.0  0.66171  0.67762  0.83491  1.0000
  H   H1917     1.0  0.76598  0.66554  0.81474  1.0000
  H   H1918     1.0  0.78862  0.72825  0.61011  1.0000
  H   H1919     1.0  0.77518  0.73911  0.64447  1.0000
  H   H1920     1.0  0.74768  0.71560  0.58831  1.0000
  C   C1086     1.0  0.55058  0.69278  0.87928  1.0000
  C   C1087     1.0  0.54477  0.70079  0.85057  1.0000
  H   H1921     1.0  0.60864  0.79488  0.89695  1.0000
  H   H1922     1.0  0.56459  0.70405  0.83547  1.0000
  H   H1923     1.0  0.71255  0.66942  0.78795  1.0000
  C   C1088     1.0  0.74513  0.73555  0.95226  1.0000
  H   H1924     1.0  0.55380  0.73485  0.85032  1.0000
  H   H1925     1.0  0.72897  0.94471  0.52969  1.0000
  H   H1926     1.0  0.61127  0.76760  0.87891  1.0000
  H   H1927     1.0  0.92087  0.66447  0.54784  1.0000
  C   C1089     1.0  0.98128  0.69383  0.58362  1.0000
  C   C1090     1.0  0.58935  0.78661  0.90380  1.0000
  H   H1928     1.0  0.63397  0.74446  0.92967  1.0000
  H   H1929     1.0  0.72678  0.76125  0.54455  1.0000
  H   H1930     1.0  0.96800  0.71598  0.56333  1.0000
  C   C1091     1.0  0.84183  0.98118  0.95683  1.0000
  H   H1931     1.0  0.76491  0.67619  0.77855  1.0000
  H   H1932     1.0  0.72766  0.75400  0.65472  1.0000
  H   H1933     1.0  0.80372  0.69588  0.79817  1.0000
  C   C1092     1.0  0.64827  0.71985  0.96734  1.0000
  C   C1093     1.0  0.72678  0.70389  0.74112  1.0000
  C   C1094     1.0  0.72659  0.69986  0.70823  1.0000
  C   C1095     1.0  0.75398  0.70215  0.68910  1.0000
  C   C1096     1.0  0.78169  0.70882  0.70254  1.0000
  C   C1097     1.0  0.78191  0.71271  0.73547  1.0000
  C   C1098     1.0  0.75480  0.71010  0.75475  1.0000
  H   H1934     1.0  0.70503  0.69508  0.69742  1.0000
  H   H1935     1.0  0.75341  0.69908  0.66384  1.0000
  H   H1936     1.0  0.80312  0.71796  0.74609  1.0000
  H   H1937     1.0  0.75522  0.71341  0.77990  1.0000
  C   C1099     1.0  0.77858  0.73029  0.49639  1.0000
  C   C1100     1.0  0.78234  0.74006  0.61889  1.0000
  H   H1938     1.0  0.69546  0.74841  0.70339  1.0000
  H   H1939     1.0  0.58092  0.78979  0.92823  1.0000
  H   H1940     1.0  0.96142  0.71933  0.68161  1.0000
  C   C1101     1.0  0.69919  0.74792  0.58004  1.0000
  H   H1941     1.0  0.89303  0.73838  0.96375  1.0000
  H   H1942     1.0  0.64313  0.97530  0.51689  1.0000
  C   C1102     1.0  0.73145  0.72363  0.57511  1.0000
  H   H1943     1.0  0.69588  0.75879  0.59430  1.0000
  H   H1944     1.0  0.80463  0.68581  0.83646  1.0000
  N   N63       1.0  0.72474  0.73789  0.59531  1.0000
  H   H1945     1.0  0.72379  0.70417  0.52133  1.0000
  C   C1103     1.0  0.65717  0.93560  0.49682  1.0000
  H   H1946     1.0  0.76539  0.74937  0.57379  1.0000
  H   H1947     1.0  0.92487  0.72028  0.98813  1.0000
  H   H1948     1.0  0.78366  0.93774  0.54970  1.0000
  C   C1104     1.0  0.70733  0.74570  0.65288  1.0000
  H   H1949     1.0  0.83137  0.74470  0.63353  1.0000
  H   H1950     1.0  0.82188  0.75080  0.59303  1.0000
  H   H1951     1.0  0.76797  0.95501  0.56870  1.0000
  C   C1105     1.0  0.81263  0.75008  0.61798  1.0000
  H   H1952     1.0  0.56710  0.98571  0.57735  1.0000
  C   C1106     1.0  0.75520  0.74735  0.59808  1.0000
  H   H1953     1.0  0.63076  0.66301  0.93004  1.0000
  H   H1954     1.0  0.85354  0.97175  0.94428  1.0000
  H   H1955     1.0  0.62290  0.76950  0.92050  1.0000
  H   H1956     1.0  0.77931  0.67614  0.72867  1.0000
  H   H1957     1.0  0.80776  0.76202  0.62714  1.0000
  H   H1958     1.0  0.74308  0.96346  0.51783  1.0000
  H   H1959     1.0  0.80439  0.74618  0.52729  1.0000
  C   C1107     1.0  0.70582  0.75327  0.54502  1.0000
  H   H1960     1.0  0.73057  0.72402  0.63855  1.0000
  C   C1108     1.0  0.71345  0.73256  0.62790  1.0000
  H   H1961     1.0  0.74479  0.72684  0.55309  1.0000
  C   C1109     1.0  0.79885  0.66483  0.68756  1.0000
  H   H1962     1.0  0.69052  0.72603  0.62556  1.0000
  H   H1963     1.0  0.86507  0.75911  0.93113  1.0000
  H   H1964     1.0  0.65578  0.75451  0.52971  1.0000
  H   H1965     1.0  0.68939  0.70895  0.58578  1.0000
  H   H1966     1.0  0.94766  0.70034  0.66860  1.0000
  H   H1967     1.0  0.59930  0.72452  0.81730  1.0000
  H   H1968     1.0  0.53707  0.73372  0.90060  1.0000
  H   H1969     1.0  0.52314  0.70925  0.95586  1.0000
  H   H1970     1.0  0.69076  0.69293  0.53661  1.0000
  C   C1110     1.0  0.74870  0.72485  0.97751  1.0000
  H   H1971     1.0  0.68265  0.73007  0.68616  1.0000
  H   H1972     1.0  0.79089  0.67394  0.67027  1.0000
  H   H1973     1.0  0.64082  0.72474  0.99087  1.0000
  H   H1974     1.0  0.75032  0.75925  0.60758  1.0000
  C   C1111     1.0  0.98763  0.70827  0.56930  1.0000
  H   H1975     1.0  0.66986  0.72618  0.95889  1.0000
  C   C1112     1.0  0.83230  0.97896  0.98896  1.0000
  H   H1976     1.0  0.66099  0.96379  0.86787  1.0000
  C   C1113     1.0  0.55638  0.73120  0.91848  1.0000
  C   C1114     1.0  0.87736  0.73996  0.98502  1.0000
  H   H1977     1.0  0.93360  0.75510  0.97510  1.0000
  C   C1115     1.0  0.77682  0.66613  0.79037  1.0000
  C   C1116     1.0  0.70212  0.73894  0.68647  1.0000
  H   H1978     1.0  0.00021  0.69889  0.69709  1.0000
  C   C1117     1.0  0.62111  0.72106  0.94253  1.0000
  C   C1118     1.0  0.84710  0.75955  0.95063  1.0000
  H   H1979     1.0  0.84128  0.68958  0.81522  1.0000
  C   C1119     1.0  0.80329  0.99280  0.85096  1.0000
  H   H1980     1.0  0.71878  0.99009  0.78966  1.0000
  H   H1981     1.0  0.82813  0.75071  0.94573  1.0000
  H   H1982     1.0  0.59845  0.98929  0.54882  1.0000
  C   C1120     1.0  0.96625  0.70946  0.66501  1.0000
  H   H1983     1.0  0.62249  0.74175  0.87574  1.0000
  H   H1984     1.0  0.56909  0.76130  0.93828  1.0000
  H   H1985     1.0  0.55890  0.73107  0.97173  1.0000
  H   H1986     1.0  0.66258  0.66764  0.75628  1.0000
  H   H1987     1.0  0.85692  0.73181  0.98092  1.0000
  H   H1988     1.0  0.68475  0.72071  0.55013  1.0000
  C   C1121     1.0  0.60229  0.76994  0.90347  1.0000
  C   C1122     1.0  0.81248  0.67082  0.79476  1.0000
  H   H1989     1.0  0.66075  0.94369  0.51749  1.0000
  C   C1123     1.0  0.69531  0.98170  0.85464  1.0000
  H   H1990     1.0  0.74209  0.98059  0.87788  1.0000
  H   H1991     1.0  0.75377  0.75935  0.93786  1.0000
  H   H1992     1.0  0.85177  0.98423  0.84528  1.0000
  H   H1993     1.0  0.60510  0.74352  0.96042  1.0000
  H   H1994     1.0  0.69887  0.95628  0.85448  1.0000
  C   C1124     1.0  0.67731  0.76214  0.53089  1.0000
  H   H1995     1.0  0.52854  0.68234  0.92078  1.0000
  H   H1996     1.0  0.64699  0.92448  0.50594  1.0000
  C   C1125     1.0  0.65202  0.98324  0.49882  1.0000
  H   H1997     1.0  0.71061  0.74328  0.52879  1.0000
  N   N64       1.0  0.58551  0.74110  0.91202  1.0000
  H   H1998     1.0  0.83584  0.77128  0.95052  1.0000
  H   H1999     1.0  0.56194  0.71866  0.91493  1.0000
  C   C1126     1.0  0.51319  0.70477  0.84150  1.0000
  H   H2000     1.0  0.57180  0.75391  0.84925  1.0000
  C   C1127     1.0  0.70196  0.71374  0.56457  1.0000
  H   H2001     1.0  0.88163  0.76574  0.98684  1.0000
  C   C1128     1.0  0.59354  0.73715  0.81835  1.0000
  H   H2002     1.0  0.72905  0.69229  0.55695  1.0000
  C   C1129     1.0  0.52434  0.68846  0.89838  1.0000
  H   H2003     1.0  0.79541  0.98230  0.86433  1.0000
  C   C1130     1.0  0.54118  0.73309  0.95215  1.0000
  H   H2004     1.0  0.82443  0.97828  0.81365  1.0000
  H   H2005     1.0  0.68553  0.75235  0.64605  1.0000
  C   C1131     1.0  0.59816  0.73673  0.87933  1.0000
  H   H2006     1.0  0.72451  0.73349  0.69561  1.0000
  H   H2007     1.0  0.70503  0.92629  0.49738  1.0000
  C   C1132     1.0  0.77661  0.95008  0.54560  1.0000
  H   H2008     1.0  0.65477  0.70739  0.97081  1.0000
  H   H2009     1.0  0.67552  0.74192  0.58065  1.0000
  C   C1133     1.0  0.77688  0.66463  0.71674  1.0000
  H   H2010     1.0  0.55871  0.66966  0.82234  1.0000
  C   C1134     1.0  0.83143  0.98808  0.82984  1.0000
  C   C1135     1.0  0.81560  0.68648  0.81223  1.0000
  H   H2011     1.0  0.55416  0.76015  0.89846  1.0000
  C   C1136     1.0  0.75637  0.75093  0.95709  1.0000
  H   H2012     1.0  0.57752  0.73998  0.79767  1.0000
  H   H2013     1.0  0.94702  0.99327  0.95394  1.0000
  H   H2014     1.0  0.69550  0.96493  0.89414  1.0000
  C   C1137     1.0  0.57693  0.74123  0.84990  1.0000
  H   H2015     1.0  0.96431  0.71364  0.63976  1.0000
  C   C1138     1.0  0.57603  0.75806  0.91337  1.0000
  H   H2016     1.0  0.91937  0.69174  0.97871  1.0000
  H   H2017     1.0  0.60136  0.72386  0.87777  1.0000
  H   H2018     1.0  0.77381  0.99297  0.80811  1.0000
  H   H2019     1.0  0.74165  0.97603  0.83640  1.0000
  H   H2020     1.0  0.82387  0.66756  0.69500  1.0000
  H   H2021     1.0  0.53104  0.74496  0.95497  1.0000
  H   H2022     1.0  0.62959  0.71562  0.91998  1.0000
  C   C1139     1.0  0.61158  0.73833  0.93680  1.0000
  C   C1140     1.0  0.68731  0.96568  0.86865  1.0000
  C   C1141     1.0  0.75002  0.95107  0.52016  1.0000
  C   C1142     1.0  0.71211  0.69995  0.54363  1.0000
  C   C1143     1.0  0.86301  0.75663  0.98336  1.0000
  H   H2023     1.0  0.00185  0.69194  0.65669  1.0000
  H   H2024     1.0  0.74016  0.71301  0.97439  1.0000
  H   H2025     1.0  0.56927  0.78783  0.88625  1.0000
  H   H2026     1.0  0.68531  0.98204  0.82981  1.0000
  C   C1144     1.0  0.73209  0.98451  0.85426  1.0000
  H   H2027     1.0  0.68247  0.99058  0.86885  1.0000
  H   H2028     1.0  0.82436  0.67204  0.77111  1.0000
  H   H2029     1.0  0.51764  0.66458  0.82975  1.0000
  H   H2030     1.0  0.67203  0.77267  0.54554  1.0000
  H   H2031     1.0  0.60069  0.71410  0.95167  1.0000
  H   H2032     1.0  0.79786  0.95692  0.53798  1.0000
  H   H2033     1.0  0.61605  0.74397  0.81590  1.0000
  H   H2034     1.0  0.95928  0.74041  0.99238  1.0000
  C   C1145     1.0  0.83637  0.99546  0.94077  1.0000
  C   C1146     1.0  0.51388  0.72138  0.95662  1.0000
  C   C1147     1.0  0.92684  0.99324  0.89267  1.0000
  C   C1148     1.0  0.78694  0.74513  0.50800  1.0000
  H   H2035     1.0  0.99187  0.97762  0.98805  1.0000
  H   H2036     1.0  0.77940  0.76744  0.98959  1.0000
  H   H2037     1.0  0.50904  0.71117  0.81941  1.0000
  H   H2038     1.0  0.90852  0.98400  0.89645  1.0000
  H   H2039     1.0  0.90466  0.99258  0.95465  1.0000
  H   H2040     1.0  0.68297  0.76598  0.50603  1.0000
  H   H2041     1.0  0.95114  0.98813  0.89514  1.0000
  H   H2042     1.0  0.77973  0.77006  0.50366  1.0000
  H   H2043     1.0  0.71989  0.66978  0.74560  1.0000
  C   C1149     1.0  0.77103  0.75557  0.98646  1.0000
  C   C1150     1.0  0.58123  0.99496  0.56527  1.0000
  H   H2044     1.0  0.75209  0.66316  0.70743  1.0000
  C   C1151     1.0  0.99941  0.70262  0.67168  1.0000
  H   H2045     1.0  0.00269  0.67278  0.60222  1.0000
  C   C1152     1.0  0.77296  0.75869  0.49440  1.0000
  H   H2046     1.0  0.98683  0.76573  0.98927  1.0000
  H   H2047     1.0  0.87016  0.70720  0.98973  1.0000
  H   H2048     1.0  0.92978  0.89607  0.99243  1.0000
