data_image0
_chemical_formula_structural       FeSCFeS2FeSFeS3FeS2FeS2FeSFeS3FeSHFeS2FeSFeS3FeS2FeS2FeSFeS3CHSHC3H3C2H2C7H4C2HCH3C6H5C2H2C2H3C6HNH2C6H6NHC4H4CH11CH6CH2NC12H27C2H2CH2NHC2H3C4H2C2H5NC2H3C2H5C2H2C2H5CHCH2CH6C2H4CHNC2H2C6H13NC12H31CHC2H4CH4C2H3CH2C7HNCHCH3CH6CHC2HCHCHCH3C3H6CHCH7SCH8CH4CH2FeS2FeS2FeCFeS3FeS2FeS2FeHFeS3C2H3C6H4C2H3NC2H2C2HSH5C2H2CH4CH3CH3C3H2CH5CHCH4CH3CH3CH12CH6CH4CH2C2H3CH3NC12H6C2H4CHCH3CH3C2H3CHCH3CH4C3H10NC3HNHCH4C2FeS2FeS2FeSFeS3FeS2FeS2FeSFeS3C6H4C3H2CH4C6H4C6H4CH5CHNCHCHCH2SH2CH2C2H2CH2CHCH2SCH2CH5CH2C4H5CH2CHCH6CH6C2H2CNCH7C2HCH4CH3NC2H3C3H5CH15NCH2CHC2H2C3H2CH4C3H2CHCHCH3CH2C5H7CH2NH3CHC2H4CHCHCH5CH6CHCH4CHNH2CHCH2FeS2FeS2FeSFeS3FeS2FeS2FeSFeS3C2H3C2H4C6H5C2HC2HC7H4C6H11CHCH2CH5CHCH8CH7CHCH6CH5CH3C2NCHCHCH3C2H5C2HC2H3CH2CHCH2CH2CHCH2CHCH2CHNC11H17CH2CHCH3CH4NSCH4CH4CHC2HCH4CHFeS2FeCSH2FeS3FeS2FeS2CHFeS3HC2H2C6H2CHCHC2HC2HCHC2H9CSCH3CH2FeH6CH3C2H5NC9HC2H19CH11CHCFeH12CHNH2C2H2CH2CHCH3CH3C2HCHC2H2CH4CH3CFeS2FeS2FeSFeS3FeS2FeS2FeSFeS3FeS2FeS2FeSFeS3FeS2FeS2FeSFeS3CH2CH3C2H2C4HC2HCHC6H4CHCH2C6H4CHCHCHC6H4C6H4C2H2C2H3NHC3H6C3H2C2NC12H29CNH3C2HCH2CHNH2CHCH7C2HCH4CH4CH6CH3CH3C2NH3CH3CHC2H2C2HC2H5CH2CNHCHCH3CH14CH2CH2CH2CH4CH5C3H4CNHCHCHC2H2CH2C3H2CHC3H3CH2CH3C2H2C2H7CHCHCH4CH6CHCH2CHCH5CNCHCHCHCH4CHC2H2C3NHCH5C2HCH2CH3FeSHFeS2FeSFeS3FeS2FeS2FeSFeS3FeS2FeS2FeSFeS3FeS2FeS2FeSFeS3HCH4C2H2C6H4CHC2HCH6C6H4C2NH2C6H4C6H4C4H4C2HCNC7H15CHCH2CH2C3H2NHCHCH2C2H2CH5CH9CNH4CHC2H5SCH2C2HCHCH3C7H10NC12H22CH2CHCH3CH2CH7C3H3CH5CH2CH4CH5CH2NHNHCHCHCH5CH2C2HCHCH7CHC2HCH4CH5CHCHC2H2CH6CH2CH4CH3C5HFeS2FeS2FeHFeS3FeSHFeS2FeSFeS3CHC2HC6H4C4H2CH2CH2C2H5C3HCHCH2CHC2HCH8CH2CHNH6NH2CH3CH2C4HC2H2CH5CH2C2H5CH7NH2CHCH2C2HCH3CHCH2C2H10NC7H5CH2C3H4CH9FeS2FeS2FeSFeS3FeS2FeS2FeSFeS3C4HC6H4C6H4C6H4C2H2C5HC2H4C3H5C3HCHCH2NH4CH2CHCH14C2H4CHNC12H31CH11C2H6C2H3CH2CH3C3H2SHCH7C2H4CH5SC2H2CH4NC2H2NHCH3C4H3CH2C2H4C4HCH4CNC2H4CHCFeS2FeS2FeSFeS3FeS2FeS2FeSFeS3C2HCHC6H2CH2C2H2C3H2C6H4C6H4CHCH8CH10NH3CHC3H3SHCHC2HCH4C4H2C2H8CHCH3CH3NC2H2NCHCH4CHCH2CH9CH5C2H3CH3CH2CHCH11CH2CSHNHCHC2HC3HC2H4CH2CHC2H8CH5CH3C2HCH3CHCNHCHCH2CH4C2HCH5CH2CH9C3H7CH3CH6FeSCFeS2FeSFeS3FeS2FeS2FeSFeHS2C2H2C7H5CHCH2CHC5H3CH2CH4CHCH3CH4CH2CH2C2HCHCH4CHCH3CH2C2H6NC3HCHCH2CH2CH7C2H3C2H2CH4C2H13CNC4HNCH5CH4CHC2HCH3C2HCH2CHC2H5CH5C3H6C3H2FeS2FeS2FeSFeS3FeS2FeS2FeSFeS3FeS2FeS2FeSFeS3FeS2FeS2FeSFeS3CHC2H4CH3CHCH2C6H5C3HCH2C6H4C4HCH7C6H4C6H4CH4C2H2C3HCH2CHC2HC2H3CH3CHCH3C5NH2CH5CH3CH2C3H5CHCH3CHCH2CH2NC12H26CH3CH3CHCH4NCH3NH3CH5CH7NH3CNH2C2H3CH3C2H2CH5CH3CH2C2H9C2HCH2CHCHCHCH5CNH2C2H2C4HC2H9CHCH4C2HC4HCH3C2H9NHCH2C2H4C2H6C2H2C
_chemical_formula_sum              "Fe128 S256 C1152 H2048 N64"
_cell_length_a       37.2293
_cell_length_b       79.7976
_cell_length_c       47.5073
_cell_angle_alpha    89.6184
_cell_angle_beta     89.5882
_cell_angle_gamma    88.7205

_space_group_name_H-M_alt    "P 1"
_space_group_IT_number       1

loop_
  _space_group_symop_operation_xyz
  'x, y, z'

loop_
  _atom_site_type_symbol
  _atom_site_label
  _atom_site_symmetry_multiplicity
  _atom_site_fract_x
  _atom_site_fract_y
  _atom_site_fract_z
  _atom_site_occupancy
  Fe  Fe1       1.0  0.31119  0.01650  0.37975  1.0000
  S   S1        1.0  0.35890  0.03129  0.39246  1.0000
  C   C1        1.0  0.16322  0.25383  0.45098  1.0000
  Fe  Fe2       1.0  0.31147  0.03132  0.31873  1.0000
  S   S2        1.0  0.36095  0.04607  0.32819  1.0000
  S   S3        1.0  0.29193  0.03909  0.27451  1.0000
  Fe  Fe3       1.0  0.38224  0.02337  0.35078  1.0000
  S   S4        1.0  0.43846  0.01196  0.35236  1.0000
  Fe  Fe4       1.0  0.33305  0.05286  0.36861  1.0000
  S   S5        1.0  0.33874  0.08044  0.37938  1.0000
  S   S6        1.0  0.33553  0.00778  0.33837  1.0000
  S   S7        1.0  0.28278  0.03895  0.35891  1.0000
  Fe  Fe5       1.0  0.19532  0.15707  0.37041  1.0000
  S   S8        1.0  0.23370  0.17522  0.35100  1.0000
  S   S9        1.0  0.20185  0.12951  0.38213  1.0000
  Fe  Fe6       1.0  0.13101  0.18229  0.36887  1.0000
  S   S10       1.0  0.16528  0.20246  0.34959  1.0000
  S   S11       1.0  0.07213  0.18110  0.38398  1.0000
  Fe  Fe7       1.0  0.18880  0.18215  0.32102  1.0000
  S   S12       1.0  0.18608  0.18151  0.27237  1.0000
  Fe  Fe8       1.0  0.20799  0.19419  0.38113  1.0000
  S   S13       1.0  0.24379  0.21228  0.40600  1.0000
  S   S14       1.0  0.15207  0.16270  0.33905  1.0000
  S   S15       1.0  0.17233  0.17539  0.40183  1.0000
  Fe  Fe9       1.0  0.18539  0.01258  0.06795  1.0000
  S   S16       1.0  0.17400  0.03962  0.05673  1.0000
  H   H1        1.0  0.33069  0.17886  0.46966  1.0000
  Fe  Fe10      1.0  0.18638  0.02103  0.13242  1.0000
  S   S17       1.0  0.17235  0.04818  0.12475  1.0000
  S   S18       1.0  0.19417  0.00996  0.17668  1.0000
  Fe  Fe11      1.0  0.13358  0.03899  0.09227  1.0000
  S   S19       1.0  0.07868  0.05052  0.08215  1.0000
  Fe  Fe12      1.0  0.21375  0.04633  0.09023  1.0000
  S   S20       1.0  0.25974  0.06472  0.09023  1.0000
  S   S21       1.0  0.14384  0.01194  0.10281  1.0000
  S   S22       1.0  0.22907  0.01919  0.09880  1.0000
  Fe  Fe13      1.0  0.28184  0.16342  0.07283  1.0000
  S   S23       1.0  0.25656  0.18803  0.08684  1.0000
  S   S24       1.0  0.24235  0.14286  0.06323  1.0000
  Fe  Fe14      1.0  0.35883  0.17671  0.07705  1.0000
  S   S25       1.0  0.33774  0.20171  0.09199  1.0000
  S   S26       1.0  0.41797  0.16874  0.06856  1.0000
  Fe  Fe15      1.0  0.29951  0.18730  0.12011  1.0000
  S   S27       1.0  0.29541  0.19193  0.16815  1.0000
  Fe  Fe16      1.0  0.29644  0.20014  0.05711  1.0000
  S   S28       1.0  0.28866  0.22352  0.02787  1.0000
  S   S29       1.0  0.32322  0.16229  0.10686  1.0000
  S   S30       1.0  0.31888  0.17550  0.04137  1.0000
  C   C2        1.0  0.26914  0.22845  0.99407  1.0000
  H   H2        1.0  0.00655  0.05942  0.06656  1.0000
  S   S31       1.0  0.18201  0.98988  0.03797  1.0000
  H   H3        1.0  0.20353  0.26526  0.99845  1.0000
  C   C3        1.0  0.25310  0.21644  0.97711  1.0000
  C   C4        1.0  0.46137  0.17721  0.07474  1.0000
  C   C5        1.0  0.46609  0.19242  0.08862  1.0000
  H   H4        1.0  0.42741  0.19059  0.00967  1.0000
  H   H5        1.0  0.44293  0.19924  0.09674  1.0000
  H   H6        1.0  0.45471  0.08983  0.36085  1.0000
  C   C6        1.0  0.03574  0.02566  0.10461  1.0000
  C   C7        1.0  0.03744  0.04057  0.08905  1.0000
  H   H7        1.0  0.04113  0.00358  0.05586  1.0000
  H   H8        1.0  0.06009  0.02000  0.11302  1.0000
  C   C8        1.0  0.44349  0.07841  0.35146  1.0000
  C   C9        1.0  0.25428  0.08649  0.08322  1.0000
  C   C10       1.0  0.22173  0.09337  0.07359  1.0000
  C   C11       1.0  0.21863  0.11065  0.06755  1.0000
  C   C12       1.0  0.24786  0.12125  0.07132  1.0000
  C   C13       1.0  0.28021  0.11444  0.08155  1.0000
  C   C14       1.0  0.28340  0.09712  0.08737  1.0000
  H   H9        1.0  0.19911  0.08534  0.07034  1.0000
  H   H10       1.0  0.19349  0.11582  0.05970  1.0000
  H   H11       1.0  0.30293  0.12246  0.08445  1.0000
  H   H12       1.0  0.30870  0.09189  0.09475  1.0000
  C   C15       1.0  0.25046  0.21788  0.44213  1.0000
  C   C16       1.0  0.30612  0.13426  0.44220  1.0000
  H   H13       1.0  0.00742  0.00008  0.00952  1.0000
  C   C17       1.0  0.27852  0.22872  0.44889  1.0000
  H   H14       1.0  0.47758  0.24186  0.04032  1.0000
  H   H15       1.0  0.47626  0.08853  0.40931  1.0000
  H   H16       1.0  0.29539  0.23350  0.43216  1.0000
  C   C18       1.0  0.21734  0.18405  0.24382  1.0000
  C   C19       1.0  0.20464  0.18353  0.21595  1.0000
  C   C20       1.0  0.22800  0.18565  0.19262  1.0000
  C   C21       1.0  0.26465  0.18833  0.19671  1.0000
  C   C22       1.0  0.27737  0.18872  0.22459  1.0000
  C   C23       1.0  0.25403  0.18654  0.24795  1.0000
  H   H17       1.0  0.17633  0.18187  0.21235  1.0000
  H   H18       1.0  0.21746  0.18580  0.17151  1.0000
  H   H19       1.0  0.30554  0.19094  0.22817  1.0000
  H   H20       1.0  0.26441  0.18705  0.26912  1.0000
  H   H21       1.0  0.99550  0.14688  0.28813  1.0000
  C   C24       1.0  0.02869  0.18619  0.37025  1.0000
  C   C25       1.0  0.02227  0.20018  0.35293  1.0000
  H   H22       1.0  0.06193  0.12123  0.32234  1.0000
  H   H23       1.0  0.04429  0.20809  0.34703  1.0000
  C   C26       1.0  0.47596  0.02026  0.33463  1.0000
  C   C27       1.0  0.47234  0.03337  0.31512  1.0000
  H   H24       1.0  0.00371  0.16579  0.39237  1.0000
  H   H25       1.0  0.44583  0.03782  0.30915  1.0000
  H   H26       1.0  0.07151  0.20119  0.26084  1.0000
  C   C28       1.0  0.26404  0.03064  0.24806  1.0000
  C   C29       1.0  0.24638  0.01546  0.25137  1.0000
  C   C30       1.0  0.22480  0.00940  0.22947  1.0000
  C   C31       1.0  0.22055  0.01841  0.20406  1.0000
  C   C32       1.0  0.23810  0.03362  0.20085  1.0000
  C   C33       1.0  0.25986  0.03960  0.22261  1.0000
  H   H27       1.0  0.24935  0.00837  0.27074  1.0000
  N   N1        1.0  0.46050  0.06338  0.39811  1.0000
  H   H28       1.0  0.23518  0.04066  0.18141  1.0000
  H   H29       1.0  0.27395  0.05116  0.21952  1.0000
  C   C34       1.0  0.30066  0.09407  0.37973  1.0000
  C   C35       1.0  0.30492  0.11137  0.37542  1.0000
  C   C36       1.0  0.27496  0.12249  0.37602  1.0000
  C   C37       1.0  0.24064  0.11636  0.38137  1.0000
  C   C38       1.0  0.23656  0.09911  0.38597  1.0000
  C   C39       1.0  0.26637  0.08800  0.38503  1.0000
  H   H30       1.0  0.33144  0.11616  0.37147  1.0000
  H   H31       1.0  0.27840  0.13576  0.37251  1.0000
  H   H32       1.0  0.21011  0.09429  0.39025  1.0000
  H   H33       1.0  0.26290  0.07475  0.38882  1.0000
  H   H34       1.0  0.00649  0.18499  0.28205  1.0000
  H   H35       1.0  0.12328  0.16567  0.19839  1.0000
  N   N2        1.0  0.41498  0.22540  0.02028  1.0000
  H   H36       1.0  0.43912  0.05202  0.36073  1.0000
  C   C40       1.0  0.45430  0.22004  0.01862  1.0000
  C   C41       1.0  0.00550  0.04785  0.07852  1.0000
  C   C42       1.0  0.40110  0.22398  0.05009  1.0000
  C   C43       1.0  0.41796  0.23576  0.07187  1.0000
  H   H37       1.0  0.28113  0.99132  0.98890  1.0000
  H   H38       1.0  0.20334  0.00953  0.98785  1.0000
  H   H39       1.0  0.04294  0.15774  0.24255  1.0000
  H   H40       1.0  0.17840  0.28435  0.00649  1.0000
  C   C44       1.0  0.39837  0.23494  0.10020  1.0000
  H   H41       1.0  0.17382  0.29145  0.46198  1.0000
  H   H42       1.0  0.38537  0.09208  0.44260  1.0000
  H   H43       1.0  0.46033  0.21005  0.03455  1.0000
  H   H44       1.0  0.32855  0.18658  0.42352  1.0000
  H   H45       1.0  0.06869  0.12936  0.35719  1.0000
  H   H46       1.0  0.10964  0.23091  0.98766  1.0000
  H   H47       1.0  0.37136  0.22578  0.05072  1.0000
  H   H48       1.0  0.40587  0.21105  0.05832  1.0000
  H   H49       1.0  0.41682  0.24901  0.06484  1.0000
  H   H50       1.0  0.40251  0.02422  0.16606  1.0000
  H   H51       1.0  0.38612  0.19180  0.02932  1.0000
  C   C45       1.0  0.45767  0.06222  0.36650  1.0000
  H   H52       1.0  0.11153  0.15752  0.24763  1.0000
  H   H53       1.0  0.15897  0.24261  0.46447  1.0000
  H   H54       1.0  0.33465  0.03558  0.21687  1.0000
  H   H55       1.0  0.19945  0.04872  0.33577  1.0000
  H   H56       1.0  0.41082  0.24366  0.11521  1.0000
  H   H57       1.0  0.36959  0.23866  0.09783  1.0000
  C   C46       1.0  0.37005  0.24978  0.00796  1.0000
  H   H58       1.0  0.20696  0.20377  0.45950  1.0000
  H   H59       1.0  0.44202  0.07550  0.45189  1.0000
  N   N3        1.0  0.24216  0.08987  0.29131  1.0000
  C   C47       1.0  0.21537  0.09016  0.26760  1.0000
  C   C48       1.0  0.23916  0.10644  0.30640  1.0000
  C   C49       1.0  0.27939  0.08701  0.27934  1.0000
  C   C50       1.0  0.23452  0.07598  0.31210  1.0000
  C   C51       1.0  0.19518  0.07498  0.32278  1.0000
  C   C52       1.0  0.21342  0.07383  0.25021  1.0000
  C   C53       1.0  0.31027  0.08667  0.30116  1.0000
  C   C54       1.0  0.25450  0.12184  0.29049  1.0000
  C   C55       1.0  0.24046  0.13833  0.30308  1.0000
  C   C56       1.0  0.19137  0.06107  0.34481  1.0000
  C   C57       1.0  0.18019  0.07390  0.23153  1.0000
  C   C58       1.0  0.34692  0.08504  0.28665  1.0000
  H   H60       1.0  0.22161  0.10018  0.25214  1.0000
  H   H61       1.0  0.18801  0.09355  0.27561  1.0000
  H   H62       1.0  0.21058  0.10939  0.31188  1.0000
  H   H63       1.0  0.25300  0.10568  0.32698  1.0000
  H   H64       1.0  0.28536  0.09648  0.26275  1.0000
  H   H65       1.0  0.28120  0.07473  0.26846  1.0000
  H   H66       1.0  0.24265  0.06353  0.30339  1.0000
  H   H67       1.0  0.25143  0.07726  0.33112  1.0000
  H   H68       1.0  0.17677  0.07208  0.30530  1.0000
  H   H69       1.0  0.18624  0.08695  0.33260  1.0000
  H   H70       1.0  0.23728  0.07286  0.23618  1.0000
  H   H71       1.0  0.21260  0.06243  0.26362  1.0000
  H   H72       1.0  0.30781  0.07573  0.31554  1.0000
  H   H73       1.0  0.31016  0.09817  0.31411  1.0000
  H   H74       1.0  0.28426  0.12167  0.29189  1.0000
  H   H75       1.0  0.24760  0.12196  0.26791  1.0000
  H   H76       1.0  0.25252  0.14909  0.29177  1.0000
  H   H77       1.0  0.21079  0.13947  0.30108  1.0000
  H   H78       1.0  0.44628  0.23182  0.07572  1.0000
  H   H79       1.0  0.20830  0.06355  0.36342  1.0000
  H   H80       1.0  0.16295  0.06047  0.35194  1.0000
  H   H81       1.0  0.17948  0.08512  0.21761  1.0000
  H   H82       1.0  0.18079  0.06252  0.21814  1.0000
  H   H83       1.0  0.15536  0.07376  0.24464  1.0000
  H   H84       1.0  0.34876  0.07326  0.27430  1.0000
  H   H85       1.0  0.35150  0.09594  0.27251  1.0000
  H   H86       1.0  0.36833  0.08461  0.30282  1.0000
  C   C59       1.0  0.46835  0.04607  0.40995  1.0000
  C   C60       1.0  0.28485  0.16869  0.42813  1.0000
  H   H87       1.0  0.11087  0.05132  0.00659  1.0000
  H   H88       1.0  0.35809  0.05694  0.17934  1.0000
  C   C61       1.0  0.39389  0.21367  0.00218  1.0000
  H   H89       1.0  0.00041  0.20882  0.41256  1.0000
  H   H90       1.0  0.44223  0.09028  0.31029  1.0000
  N   N4        1.0  0.28460  0.16405  0.45901  1.0000
  H   H91       1.0  0.46057  0.21418  0.99786  1.0000
  C   C62       1.0  0.41915  0.06938  0.44159  1.0000
  C   C63       1.0  0.24611  0.16290  0.46900  1.0000
  H   H92       1.0  0.26584  0.17942  0.42421  1.0000
  H   H93       1.0  0.27448  0.15847  0.41496  1.0000
  H   H94       1.0  0.34954  0.07530  0.13846  1.0000
  C   C64       1.0  0.35308  0.05085  0.15885  1.0000
  C   C65       1.0  0.18418  0.15047  0.46564  1.0000
  C   C66       1.0  0.15019  0.03997  0.97900  1.0000
  C   C67       1.0  0.38514  0.02241  0.25652  1.0000
  H   H95       1.0  0.13774  0.24145  0.41600  1.0000
  H   H96       1.0  0.32318  0.13812  0.42415  1.0000
  C   C68       1.0  0.40631  0.98928  0.42759  1.0000
  C   C69       1.0  0.42402  0.06905  0.40911  1.0000
  H   H97       1.0  0.38870  0.01303  0.27374  1.0000
  H   H98       1.0  0.22293  0.15047  0.43207  1.0000
  H   H99       1.0  0.32237  0.03085  0.14168  1.0000
  H   H100      1.0  0.48250  0.24209  0.00275  1.0000
  H   H101      1.0  0.10650  0.99127  0.02034  1.0000
  N   N5        1.0  0.34749  0.02081  0.17973  1.0000
  C   C70       1.0  0.05399  0.22453  0.98922  1.0000
  C   C71       1.0  0.31291  0.00062  0.46330  1.0000
  H   H102      1.0  0.18412  0.08758  0.16521  1.0000
  H   H103      1.0  0.41684  0.05643  0.45005  1.0000
  H   H104      1.0  0.40269  0.06097  0.40057  1.0000
  C   C72       1.0  0.38067  0.18409  0.98651  1.0000
  C   C73       1.0  0.38187  0.01435  0.16618  1.0000
  H   H105      1.0  0.04256  0.17984  0.24167  1.0000
  H   H106      1.0  0.41732  0.08196  0.40149  1.0000
  H   H107      1.0  0.13294  0.01694  0.01412  1.0000
  H   H108      1.0  0.43931  0.06783  0.30952  1.0000
  H   H109      1.0  0.40036  0.22210  0.10927  1.0000
  C   C74       1.0  0.11312  0.03996  0.99314  1.0000
  C   C75       1.0  0.00240  0.01808  0.10940  1.0000
  H   H110      1.0  0.48798  0.01238  0.40394  1.0000
  H   H111      1.0  0.48373  0.05840  0.35681  1.0000
  C   C76       1.0  0.09530  0.16604  0.20667  1.0000
  C   C77       1.0  0.37908  0.00737  0.13601  1.0000
  H   H112      1.0  0.32249  0.10823  0.43633  1.0000
  H   H113      1.0  0.36482  0.01622  0.12165  1.0000
  H   H114      1.0  0.37920  0.04775  0.14857  1.0000
  H   H115      1.0  0.35787  0.24967  0.02934  1.0000
  H   H116      1.0  0.23340  0.13662  0.46135  1.0000
  C   C78       1.0  0.19929  0.26205  0.45845  1.0000
  H   H117      1.0  0.36449  0.21628  0.00431  1.0000
  C   C79       1.0  0.26999  0.24510  0.98385  1.0000
  H   H118      1.0  0.30286  0.30118  0.45772  1.0000
  H   H119      1.0  0.38042  0.03606  0.20651  1.0000
  C   C80       1.0  0.16327  0.24783  0.42048  1.0000
  H   H120      1.0  0.25212  0.20358  0.98440  1.0000
  H   H121      1.0  0.14024  0.26276  0.45388  1.0000
  H   H122      1.0  0.23905  0.29538  0.45745  1.0000
  H   H123      1.0  0.36899  0.03316  0.26484  1.0000
  H   H124      1.0  0.41221  0.00222  0.42045  1.0000
  H   H125      1.0  0.28973  0.19054  0.46792  1.0000
  C   C81       1.0  0.48270  0.23387  0.02173  1.0000
  C   C82       1.0  0.35709  0.02762  0.20833  1.0000
  H   H126      1.0  0.30465  0.03901  0.17324  1.0000
  H   H127      1.0  0.03930  0.02695  0.02832  1.0000
  H   H128      1.0  0.46697  0.04607  0.43328  1.0000
  H   H129      1.0  0.48194  0.07751  0.31660  1.0000
  C   C83       1.0  0.22315  0.14928  0.45530  1.0000
  H   H130      1.0  0.41207  0.02684  0.25009  1.0000
  N   N6        1.0  0.07752  0.01264  0.00303  1.0000
  C   C84       1.0  0.07926  0.99727  0.02179  1.0000
  C   C85       1.0  0.32189  0.17386  0.41601  1.0000
  H   H131      1.0  0.30440  0.11275  0.47073  1.0000
  H   H132      1.0  0.28213  0.25458  0.99660  1.0000
  C   C86       1.0  0.06680  0.15206  0.29382  1.0000
  C   C87       1.0  0.07772  0.18222  0.29496  1.0000
  C   C88       1.0  0.05895  0.14851  0.32541  1.0000
  C   C89       1.0  0.07067  0.20040  0.28411  1.0000
  C   C90       1.0  0.07439  0.13141  0.33445  1.0000
  C   C91       1.0  0.09887  0.21227  0.29514  1.0000
  H   H133      1.0  0.09639  0.15051  0.29099  1.0000
  H   H134      1.0  0.44751  0.03721  0.40282  1.0000
  H   H135      1.0  0.10666  0.17896  0.29151  1.0000
  H   H136      1.0  0.07451  0.18265  0.31821  1.0000
  H   H137      1.0  0.07123  0.15804  0.33882  1.0000
  H   H138      1.0  0.02968  0.14850  0.32995  1.0000
  H   H139      1.0  0.30842  0.00274  0.13862  1.0000
  H   H140      1.0  0.36508  0.99524  0.13657  1.0000
  H   H141      1.0  0.22243  0.07332  0.16571  1.0000
  H   H142      1.0  0.04403  0.20520  0.29143  1.0000
  H   H143      1.0  0.09321  0.22517  0.28718  1.0000
  H   H144      1.0  0.09828  0.21253  0.31849  1.0000
  H   H145      1.0  0.12617  0.20830  0.28783  1.0000
  N   N7        1.0  0.23820  0.13213  0.16422  1.0000
  C   C92       1.0  0.22337  0.11653  0.15121  1.0000
  C   C93       1.0  0.22863  0.14699  0.14561  1.0000
  C   C94       1.0  0.27874  0.13029  0.16410  1.0000
  C   C95       1.0  0.22528  0.13494  0.19412  1.0000
  C   C96       1.0  0.18693  0.12900  0.20175  1.0000
  C   C97       1.0  0.23627  0.09963  0.16454  1.0000
  C   C98       1.0  0.29959  0.14520  0.17638  1.0000
  C   C99       1.0  0.18817  0.15153  0.14269  1.0000
  C   C100      1.0  0.18194  0.16533  0.12069  1.0000
  C   C101      1.0  0.17469  0.13571  0.23040  1.0000
  C   C102      1.0  0.21169  0.08532  0.15681  1.0000
  C   C103      1.0  0.33974  0.14102  0.17849  1.0000
  H   H146      1.0  0.23075  0.11595  0.12848  1.0000
  H   H147      1.0  0.19362  0.11685  0.15127  1.0000
  H   H148      1.0  0.24097  0.15857  0.15343  1.0000
  H   H149      1.0  0.24007  0.14505  0.12408  1.0000
  H   H150      1.0  0.28888  0.12805  0.14223  1.0000
  H   H151      1.0  0.28744  0.11917  0.17670  1.0000
  H   H152      1.0  0.24357  0.12844  0.20934  1.0000
  H   H153      1.0  0.22684  0.14850  0.19941  1.0000
  H   H154      1.0  0.18655  0.11512  0.20288  1.0000
  H   H155      1.0  0.16664  0.13304  0.18611  1.0000
  H   H156      1.0  0.26360  0.09629  0.15646  1.0000
  H   H157      1.0  0.23756  0.10039  0.18781  1.0000
  H   H158      1.0  0.28971  0.14866  0.19770  1.0000
  H   H159      1.0  0.29697  0.15635  0.16263  1.0000
  H   H160      1.0  0.17240  0.14065  0.13608  1.0000
  H   H161      1.0  0.17756  0.15645  0.16298  1.0000
  H   H162      1.0  0.15285  0.16862  0.11958  1.0000
  H   H163      1.0  0.19667  0.17677  0.12624  1.0000
  H   H164      1.0  0.19095  0.16101  0.09957  1.0000
  H   H165      1.0  0.19319  0.13134  0.24721  1.0000
  H   H166      1.0  0.17378  0.14964  0.23019  1.0000
  H   H167      1.0  0.14739  0.13117  0.23541  1.0000
  H   H168      1.0  0.39399  0.00401  0.17896  1.0000
  H   H169      1.0  0.21025  0.08401  0.13360  1.0000
  H   H170      1.0  0.26437  0.27658  0.44932  1.0000
  H   H171      1.0  0.35103  0.13776  0.15745  1.0000
  H   H172      1.0  0.35397  0.15215  0.18633  1.0000
  H   H173      1.0  0.34463  0.13042  0.19332  1.0000
  H   H174      1.0  0.22032  0.25190  0.45823  1.0000
  H   H175      1.0  0.08618  0.01001  0.06258  1.0000
  H   H176      1.0  0.16584  0.25858  0.40566  1.0000
  C   C104      1.0  0.06998  0.00005  0.05330  1.0000
  H   H177      1.0  0.11007  0.17986  0.24314  1.0000
  C   C105      1.0  0.40941  0.24286  0.00837  1.0000
  C   C106      1.0  0.10705  0.02412  0.01203  1.0000
  H   H178      1.0  0.34888  0.17799  0.37604  1.0000
  H   H179      1.0  0.24762  0.13908  0.32565  1.0000
  H   H180      1.0  0.10159  0.02904  0.03349  1.0000
  H   H181      1.0  0.33011  0.05869  0.11865  1.0000
  C   C107      1.0  0.38460  0.07885  0.44997  1.0000
  H   H182      1.0  0.06931  0.25715  0.98494  1.0000
  H   H183      1.0  0.30670  0.06713  0.14907  1.0000
  H   H184      1.0  0.30237  0.18454  0.37665  1.0000
  H   H185      1.0  0.43185  0.99484  0.13659  1.0000
  C   C108      1.0  0.04225  0.02213  0.00643  1.0000
  C   C109      1.0  0.39879  0.19469  0.00877  1.0000
  H   H186      1.0  0.33554  0.99494  0.18963  1.0000
  H   H187      1.0  0.08068  0.17675  0.19657  1.0000
  H   H188      1.0  0.31667  0.01357  0.45737  1.0000
  C   C110      1.0  0.45241  0.07843  0.32005  1.0000
  H   H189      1.0  0.34359  0.16502  0.42280  1.0000
  H   H190      1.0  0.08234  0.15415  0.20091  1.0000
  C   C111      1.0  0.32177  0.17468  0.38390  1.0000
  C   C112      1.0  0.09572  0.16814  0.23862  1.0000
  C   C113      1.0  0.32159  0.11765  0.45346  1.0000
  C   C114      1.0  0.05698  0.16879  0.25100  1.0000
  C   C115      1.0  0.33357  0.06375  0.14018  1.0000
  C   C116      1.0  0.30075  0.98932  0.44323  1.0000
  C   C117      1.0  0.33031  0.03496  0.16295  1.0000
  H   H191      1.0  0.31461  0.16241  0.37486  1.0000
  N   N8        1.0  0.05423  0.16897  0.28270  1.0000
  C   C118      1.0  0.01573  0.17274  0.29101  1.0000
  H   H192      1.0  0.05508  0.14173  0.28149  1.0000
  C   C119      1.0  0.41635  0.00391  0.12332  1.0000
  H   H193      1.0  0.20595  0.27051  0.44052  1.0000
  H   H194      1.0  0.42521  0.25214  0.01996  1.0000
  H   H195      1.0  0.10400  0.13085  0.33131  1.0000
  C   C120      1.0  0.29496  0.00328  0.15938  1.0000
  H   H196      1.0  0.18585  0.23876  0.41675  1.0000
  H   H197      1.0  0.48902  0.15654  0.05438  1.0000
  H   H198      1.0  0.41375  0.07932  0.35356  1.0000
  H   H199      1.0  0.33421  0.15058  0.46955  1.0000
  H   H200      1.0  0.27916  0.13183  0.43382  1.0000
  H   H201      1.0  0.12382  0.26845  0.99298  1.0000
  C   C121      1.0  0.19314  0.99768  0.98089  1.0000
  H   H202      1.0  0.21139  0.99760  0.23218  1.0000
  C   C122      1.0  0.99924  0.17651  0.37865  1.0000
  C   C123      1.0  0.00810  0.01248  0.99893  1.0000
  H   H203      1.0  0.40881  0.99601  0.47105  1.0000
  C   C124      1.0  0.48836  0.07568  0.40737  1.0000
  H   H204      1.0  0.34116  0.00878  0.23982  1.0000
  C   C125      1.0  0.22897  0.21189  0.46418  1.0000
  H   H205      1.0  0.38282  0.17064  0.99266  1.0000
  C   C126      1.0  0.25716  0.28552  0.46640  1.0000
  H   H206      1.0  0.17229  0.16310  0.46128  1.0000
  H   H207      1.0  0.04830  0.23142  0.00906  1.0000
  H   H208      1.0  0.43146  0.01572  0.12131  1.0000
  C   C127      1.0  0.36837  0.26787  0.99718  1.0000
  C   C128      1.0  0.19295  0.27731  0.98966  1.0000
  C   C129      1.0  0.29182  0.29374  0.47548  1.0000
  H   H209      1.0  0.23197  0.17523  0.46595  1.0000
  H   H210      1.0  0.16802  0.14107  0.45449  1.0000
  H   H211      1.0  0.36086  0.07280  0.44069  1.0000
  H   H212      1.0  0.17181  0.03875  0.99488  1.0000
  H   H213      1.0  0.38150  0.07875  0.47324  1.0000
  H   H214      1.0  0.00135  0.00654  0.12142  1.0000
  C   C130      1.0  0.36624  0.01442  0.23164  1.0000
  H   H215      1.0  0.06019  0.21121  0.99460  1.0000
  C   C131      1.0  0.30547  0.14798  0.46531  1.0000
  H   H216      1.0  0.14913  0.25086  0.98107  1.0000
  H   H217      1.0  0.41360  0.99848  0.10199  1.0000
  H   H218      1.0  0.27407  0.01342  0.15811  1.0000
  H   H219      1.0  0.38392  0.00411  0.22378  1.0000
  H   H220      1.0  0.30291  0.00969  0.20216  1.0000
  H   H221      1.0  0.16081  0.99168  0.44359  1.0000
  H   H222      1.0  0.01331  0.17429  0.31417  1.0000
  S   S32       1.0  0.28835  0.99581  0.40842  1.0000
  C   C132      1.0  0.32105  0.00684  0.18395  1.0000
  H   H223      1.0  0.04161  0.03364  0.99317  1.0000
  H   H224      1.0  0.40070  0.21567  0.97953  1.0000
  H   H225      1.0  0.45052  0.98831  0.45607  1.0000
  H   H226      1.0  0.37673  0.98776  0.42738  1.0000
  H   H227      1.0  0.33996  0.27243  0.99687  1.0000
  H   H228      1.0  0.35315  0.24236  0.99375  1.0000
  H   H229      1.0  0.21608  0.28483  0.98246  1.0000
  H   H230      1.0  0.38371  0.27616  0.01118  1.0000
  C   C133      1.0  0.49218  0.16834  0.06505  1.0000
  H   H231      1.0  0.41983  0.24331  0.98632  1.0000
  H   H232      1.0  0.35173  0.18765  0.98476  1.0000
  H   H233      1.0  0.99654  0.21032  0.45022  1.0000
  H   H234      1.0  0.34932  0.11926  0.46132  1.0000
  C   C134      1.0  0.30153  0.17825  0.47480  1.0000
  H   H235      1.0  0.13093  0.98738  0.47265  1.0000
  H   H236      1.0  0.06054  0.98757  0.01479  1.0000
  Fe  Fe17      1.0  0.29998  0.25326  0.56050  1.0000
  S   S33       1.0  0.32230  0.27634  0.54031  1.0000
  S   S34       1.0  0.27113  0.23259  0.53541  1.0000
  Fe  Fe18      1.0  0.31235  0.26763  0.62108  1.0000
  S   S35       1.0  0.33518  0.29141  0.60320  1.0000
  S   S36       1.0  0.31298  0.26722  0.66968  1.0000
  Fe  Fe19      1.0  0.28993  0.29095  0.57238  1.0000
  C   C135      1.0  0.20043  0.30400  0.65730  1.0000
  Fe  Fe20      1.0  0.36621  0.27465  0.57317  1.0000
  S   S37       1.0  0.42399  0.28151  0.56041  1.0000
  S   S38       1.0  0.26553  0.26800  0.59155  1.0000
  S   S39       1.0  0.34562  0.25067  0.59216  1.0000
  Fe  Fe21      1.0  0.20580  0.26632  0.87967  1.0000
  S   S40       1.0  0.18378  0.29130  0.89469  1.0000
  S   S41       1.0  0.21948  0.24264  0.90672  1.0000
  Fe  Fe22      1.0  0.19593  0.27685  0.81634  1.0000
  S   S42       1.0  0.17275  0.30220  0.82792  1.0000
  S   S43       1.0  0.19660  0.26841  0.77002  1.0000
  Fe  Fe23      1.0  0.21703  0.30283  0.85991  1.0000
  H   H237      1.0  0.15100  0.24028  0.79708  1.0000
  Fe  Fe24      1.0  0.14083  0.28867  0.86140  1.0000
  S   S44       1.0  0.08201  0.29575  0.87210  1.0000
  S   S45       1.0  0.24179  0.27791  0.84667  1.0000
  S   S46       1.0  0.16112  0.26333  0.84802  1.0000
  C   C136      1.0  0.03637  0.27102  0.85198  1.0000
  C   C137      1.0  0.03948  0.28668  0.86478  1.0000
  H   H238      1.0  0.17913  0.25692  0.58199  1.0000
  H   H239      1.0  0.06034  0.26409  0.84564  1.0000
  H   H240      1.0  0.29530  0.14223  0.48518  1.0000
  C   C138      1.0  0.27933  0.26884  0.69662  1.0000
  C   C139      1.0  0.28932  0.27387  0.72381  1.0000
  C   C140      1.0  0.26424  0.27436  0.74630  1.0000
  C   C141      1.0  0.22878  0.26955  0.74203  1.0000
  C   C142      1.0  0.21863  0.26478  0.71475  1.0000
  C   C143      1.0  0.24362  0.26448  0.69219  1.0000
  H   H241      1.0  0.31687  0.27720  0.72759  1.0000
  H   H242      1.0  0.27259  0.27803  0.76709  1.0000
  H   H243      1.0  0.19134  0.26097  0.71115  1.0000
  H   H244      1.0  0.23551  0.26040  0.67156  1.0000
  C   C144      1.0  0.46789  0.27417  0.57037  1.0000
  C   C145      1.0  0.47354  0.26129  0.59012  1.0000
  H   H245      1.0  0.14762  0.25665  0.91793  1.0000
  H   H246      1.0  0.45071  0.25503  0.59923  1.0000
  H   H247      1.0  0.27961  0.30677  0.69101  1.0000
  N   N9        1.0  0.10876  0.25972  0.95162  1.0000
  C   C146      1.0  0.23893  0.23769  0.94052  1.0000
  C   C147      1.0  0.23821  0.22103  0.95066  1.0000
  H   H248      1.0  0.31943  0.20269  0.51282  1.0000
  H   H249      1.0  0.22596  0.21154  0.93799  1.0000
  C   C148      1.0  0.23601  0.21638  0.49239  1.0000
  C   C149      1.0  0.26398  0.22729  0.49915  1.0000
  H   H250      1.0  0.21933  0.21150  0.50916  1.0000
  S   S47       1.0  0.24889  0.31141  0.56032  1.0000
  H   H251      1.0  0.27083  0.18130  0.51414  1.0000
  H   H252      1.0  0.33547  0.24551  0.87097  1.0000
  H   H253      1.0  0.32646  0.00439  0.50694  1.0000
  H   H254      1.0  0.31220  0.28399  0.48133  1.0000
  H   H255      1.0  0.14036  0.23820  0.93739  1.0000
  C   C150      1.0  0.20514  0.30369  0.62489  1.0000
  C   C151      1.0  0.13658  0.26291  0.97382  1.0000
  H   H256      1.0  0.42108  0.30489  0.62381  1.0000
  H   H257      1.0  0.14472  0.23280  0.87997  1.0000
  C   C152      1.0  0.27870  0.31082  0.66869  1.0000
  H   H258      1.0  0.04314  0.30158  0.93042  1.0000
  H   H259      1.0  0.10639  0.99007  0.92500  1.0000
  H   H260      1.0  0.09579  0.25485  0.89003  1.0000
  H   H261      1.0  0.00962  0.30757  0.88252  1.0000
  C   C153      1.0  0.31838  0.99535  0.49146  1.0000
  H   H262      1.0  0.04349  0.98855  0.96746  1.0000
  H   H263      1.0  0.11424  0.00761  0.96825  1.0000
  H   H264      1.0  0.43089  0.99614  0.56556  1.0000
  C   C154      1.0  0.18657  0.28864  0.61234  1.0000
  H   H265      1.0  0.29159  0.18516  0.80980  1.0000
  H   H266      1.0  0.24288  0.99360  0.54076  1.0000
  H   H267      1.0  0.07217  0.27322  0.92400  1.0000
  C   C155      1.0  0.49368  0.30082  0.63490  1.0000
  C   C156      1.0  0.12612  0.24945  0.92851  1.0000
  C   C157      1.0  0.31584  0.31745  0.66138  1.0000
  H   H268      1.0  0.15269  0.24677  0.55577  1.0000
  H   H269      1.0  0.35251  0.18593  0.51694  1.0000
  C   C158      1.0  0.11744  0.22963  0.88759  1.0000
  H   H270      1.0  0.11505  0.28196  0.92571  1.0000
  H   H271      1.0  0.32196  0.22824  0.82990  1.0000
  H   H272      1.0  0.25776  0.16935  0.84675  1.0000
  H   H273      1.0  0.19296  0.30580  0.75617  1.0000
  H   H274      1.0  0.19343  0.31503  0.61465  1.0000
  C   C159      1.0  0.20924  0.31712  0.70301  1.0000
  H   H275      1.0  0.31201  0.23924  0.72915  1.0000
  C   C160      1.0  0.07900  0.28890  0.96020  1.0000
  H   H276      1.0  0.39397  0.18572  0.96571  1.0000
  H   H277      1.0  0.29162  0.24301  0.77828  1.0000
  H   H278      1.0  0.00009  0.25219  0.83735  1.0000
  H   H279      1.0  0.27212  0.99065  0.95172  1.0000
  C   C161      1.0  0.17944  0.25202  0.56020  1.0000
  H   H280      1.0  0.28682  0.30227  0.49356  1.0000
  H   H281      1.0  0.09128  0.22427  0.95475  1.0000
  H   H282      1.0  0.00687  0.01074  0.97580  1.0000
  C   C162      1.0  0.07218  0.99055  0.96254  1.0000
  H   H283      1.0  0.18003  0.20847  0.82685  1.0000
  H   H284      1.0  0.30908  0.19847  0.83626  1.0000
  H   H285      1.0  0.12622  0.22646  0.81970  1.0000
  C   C163      1.0  0.17515  0.28664  0.48403  1.0000
  H   H286      1.0  0.25633  0.26253  0.95006  1.0000
  H   H287      1.0  0.12918  0.30990  0.51182  1.0000
  H   H288      1.0  0.24131  0.28368  0.51042  1.0000
  H   H289      1.0  0.05618  0.28371  0.97231  1.0000
  H   H290      1.0  0.24297  0.23440  0.84733  1.0000
  H   H291      1.0  0.21471  0.99545  0.57168  1.0000
  H   H292      1.0  0.24488  0.16014  0.49194  1.0000
  H   H293      1.0  0.25679  0.23493  0.75628  1.0000
  H   H294      1.0  0.14367  0.21891  0.78653  1.0000
  H   H295      1.0  0.20015  0.24182  0.55899  1.0000
  H   H296      1.0  0.30545  0.16935  0.85314  1.0000
  H   H297      1.0  0.31221  0.25774  0.84452  1.0000
  C   C164      1.0  0.00773  0.29545  0.87267  1.0000
  H   H298      1.0  0.28860  0.25071  0.87585  1.0000
  H   H299      1.0  0.19191  0.28832  0.58934  1.0000
  H   H300      1.0  0.27588  0.18283  0.87346  1.0000
  H   H301      1.0  0.16683  0.27595  0.54207  1.0000
  H   H302      1.0  0.21442  0.27113  0.54513  1.0000
  H   H303      1.0  0.16443  0.29999  0.70902  1.0000
  C   C165      1.0  0.16810  0.27420  0.96484  1.0000
  H   H304      1.0  0.18732  0.22947  0.83807  1.0000
  H   H305      1.0  0.33727  0.22567  0.75250  1.0000
  H   H306      1.0  0.15706  0.28965  0.61574  1.0000
  H   H307      1.0  0.31952  0.18995  0.54419  1.0000
  C   C166      1.0  0.17154  0.31295  0.71498  1.0000
  H   H308      1.0  0.27424  0.29966  0.65551  1.0000
  H   H309      1.0  0.29872  0.22119  0.86137  1.0000
  C   C167      1.0  0.32412  0.18978  0.52107  1.0000
  C   C168      1.0  0.00206  0.26430  0.84726  1.0000
  H   H310      1.0  0.46656  0.28616  0.66834  1.0000
  H   H311      1.0  0.26188  0.24493  0.81843  1.0000
  H   H312      1.0  0.30216  0.21730  0.73073  1.0000
  C   C169      1.0  0.09426  0.27584  0.93895  1.0000
  H   H313      1.0  0.48605  0.31265  0.62375  1.0000
  H   H314      1.0  0.45607  0.30845  0.66830  1.0000
  H   H315      1.0  0.10028  0.22704  0.86917  1.0000
  N   N10       1.0  0.25311  0.21854  0.81117  1.0000
  C   C170      1.0  0.27913  0.21650  0.78681  1.0000
  C   C171      1.0  0.25061  0.20229  0.82763  1.0000
  C   C172      1.0  0.21654  0.22268  0.79892  1.0000
  C   C173      1.0  0.26309  0.23280  0.83012  1.0000
  C   C174      1.0  0.29989  0.23113  0.84495  1.0000
  C   C175      1.0  0.28266  0.23183  0.76674  1.0000
  C   C176      1.0  0.18387  0.22151  0.81936  1.0000
  C   C177      1.0  0.28537  0.19125  0.83031  1.0000
  C   C178      1.0  0.28068  0.17736  0.85226  1.0000
  C   C179      1.0  0.30947  0.24730  0.85992  1.0000
  C   C180      1.0  0.31025  0.22821  0.74344  1.0000
  C   C181      1.0  0.14915  0.22713  0.80471  1.0000
  H   H316      1.0  0.27116  0.20566  0.77372  1.0000
  H   H317      1.0  0.30662  0.21330  0.79416  1.0000
  H   H318      1.0  0.23974  0.20482  0.84919  1.0000
  H   H319      1.0  0.23110  0.19385  0.81751  1.0000
  H   H320      1.0  0.21101  0.21429  0.78083  1.0000
  H   H321      1.0  0.21584  0.23565  0.79021  1.0000
  C   C182      1.0  0.06518  0.30468  0.94502  1.0000
  C   C183      1.0  0.18804  0.26611  0.53937  1.0000
  H   H322      1.0  0.30485  0.16481  0.51560  1.0000
  H   H323      1.0  0.07438  0.23988  0.91242  1.0000
  H   H324      1.0  0.33634  0.30725  0.66425  1.0000
  H   H325      1.0  0.20457  0.00247  0.93690  1.0000
  C   C184      1.0  0.07761  0.98864  0.93077  1.0000
  H   H326      1.0  0.19695  0.27680  0.62201  1.0000
  C   C185      1.0  0.25515  0.24969  0.95739  1.0000
  H   H327      1.0  0.40427  0.29280  0.65310  1.0000
  H   H328      1.0  0.18988  0.29858  0.52446  1.0000
  H   H329      1.0  0.21548  0.29299  0.66609  1.0000
  C   C186      1.0  0.17099  0.31375  0.74709  1.0000
  H   H330      1.0  0.38282  0.99427  0.56072  1.0000
  H   H331      1.0  0.25540  0.26460  0.49552  1.0000
  H   H332      1.0  0.11949  0.21812  0.90080  1.0000
  C   C187      1.0  0.42730  0.29426  0.63835  1.0000
  C   C188      1.0  0.10076  0.24407  0.90455  1.0000
  H   H333      1.0  0.20875  0.30822  0.49404  1.0000
  H   H334      1.0  0.18446  0.26812  0.94804  1.0000
  H   H335      1.0  0.15995  0.25573  0.50523  1.0000
  C   C189      1.0  0.29851  0.17757  0.50738  1.0000
  H   H336      1.0  0.15313  0.02959  0.96369  1.0000
  C   C190      1.0  0.18803  0.25959  0.50883  1.0000
  H   H337      1.0  0.17164  0.30152  0.66181  1.0000
  H   H338      1.0  0.06114  0.99812  0.91912  1.0000
  H   H339      1.0  0.05381  0.25099  0.95178  1.0000
  C   C191      1.0  0.19393  0.99359  0.95193  1.0000
  H   H340      1.0  0.43014  0.28258  0.62591  1.0000
  H   H341      1.0  0.07312  0.01761  0.95817  1.0000
  H   H342      1.0  0.15844  0.28661  0.95708  1.0000
  H   H343      1.0  0.08719  0.31056  0.93281  1.0000
  C   C192      1.0  0.46161  0.29735  0.65489  1.0000
  C   C193      1.0  0.07808  0.25060  0.96537  1.0000
  C   C194      1.0  0.08477  0.00793  0.97261  1.0000
  H   H344      1.0  0.23405  0.30281  0.61920  1.0000
  H   H345      1.0  0.14715  0.28302  0.48927  1.0000
  H   H346      1.0  0.14501  0.30908  0.75530  1.0000
  H   H347      1.0  0.22679  0.30631  0.70941  1.0000
  H   H348      1.0  0.20481  0.24789  0.50820  1.0000
  H   H349      1.0  0.09985  0.29279  0.97521  1.0000
  H   H350      1.0  0.15370  0.05198  0.96746  1.0000
  H   H351      1.0  0.05461  0.31388  0.96061  1.0000
  H   H352      1.0  0.18260  0.14789  0.48861  1.0000
  H   H353      1.0  0.30691  0.24175  0.48167  1.0000
  N   N11       1.0  0.21127  0.31988  0.67159  1.0000
  C   C195      1.0  0.23873  0.27607  0.49112  1.0000
  C   C196      1.0  0.08598  0.23204  0.97367  1.0000
  C   C197      1.0  0.18441  0.30204  0.50233  1.0000
  H   H354      1.0  0.43614  0.98778  0.51531  1.0000
  N   N12       1.0  0.20018  0.27147  0.48599  1.0000
  H   H355      1.0  0.14808  0.31949  0.48048  1.0000
  C   C198      1.0  0.15386  0.31515  0.50228  1.0000
  H   H356      1.0  0.09280  0.04174  0.97646  1.0000
  H   H357      1.0  0.02970  0.22502  0.97575  1.0000
  H   H358      1.0  0.37938  0.26866  0.97543  1.0000
  H   H359      1.0  0.49422  0.29196  0.54330  1.0000
  C   C199      1.0  0.40793  0.98753  0.56713  1.0000
  C   C200      1.0  0.28513  0.23346  0.47705  1.0000
  Fe  Fe25      1.0  0.16697  0.51318  0.39659  1.0000
  S   S48       1.0  0.12488  0.53390  0.39222  1.0000
  S   S49       1.0  0.15669  0.49214  0.42946  1.0000
  Fe  Fe26      1.0  0.19973  0.52198  0.33740  1.0000
  S   S50       1.0  0.15846  0.54215  0.32961  1.0000
  S   S51       1.0  0.24558  0.51724  0.30577  1.0000
  Fe  Fe27      1.0  0.16907  0.54977  0.37413  1.0000
  S   S52       1.0  0.16785  0.57822  0.37745  1.0000
  Fe  Fe28      1.0  0.11810  0.52479  0.34827  1.0000
  S   S53       1.0  0.06434  0.52083  0.32740  1.0000
  S   S54       1.0  0.21226  0.53002  0.38186  1.0000
  S   S55       1.0  0.15854  0.50366  0.35242  1.0000
  Fe  Fe29      1.0  0.36888  0.53370  0.12262  1.0000
  S   S56       1.0  0.32765  0.51353  0.12381  1.0000
  S   S57       1.0  0.42439  0.52671  0.13950  1.0000
  Fe  Fe30      1.0  0.31572  0.55903  0.09651  1.0000
  S   S58       1.0  0.27164  0.54017  0.09455  1.0000
  S   S59       1.0  0.31466  0.58669  0.08385  1.0000
  Fe  Fe31      1.0  0.28877  0.53355  0.13910  1.0000
  S   S60       1.0  0.24481  0.53340  0.17331  1.0000
  Fe  Fe32      1.0  0.31461  0.52165  0.07918  1.0000
  S   S61       1.0  0.31624  0.49923  0.04822  1.0000
  S   S62       1.0  0.33114  0.55309  0.14122  1.0000
  S   S63       1.0  0.35741  0.54118  0.07799  1.0000
  C   C201      1.0  0.27551  0.59976  0.08449  1.0000
  C   C202      1.0  0.24110  0.59319  0.08676  1.0000
  C   C203      1.0  0.21057  0.60393  0.08523  1.0000
  C   C204      1.0  0.21412  0.62133  0.08190  1.0000
  C   C205      1.0  0.24853  0.62794  0.08035  1.0000
  C   C206      1.0  0.27905  0.61721  0.08156  1.0000
  H   H360      1.0  0.23796  0.57980  0.08895  1.0000
  H   H361      1.0  0.18404  0.59868  0.08634  1.0000
  H   H362      1.0  0.25157  0.64130  0.07800  1.0000
  H   H363      1.0  0.30558  0.62241  0.08004  1.0000
  C   C207      1.0  0.46420  0.54560  0.10211  1.0000
  C   C208      1.0  0.46360  0.53187  0.12052  1.0000
  C   C209      1.0  0.02111  0.53240  0.37101  1.0000
  H   H364      1.0  0.44008  0.55319  0.09905  1.0000
  H   H365      1.0  0.10442  0.58702  0.34371  1.0000
  C   C210      1.0  0.02290  0.52657  0.34336  1.0000
  H   H366      1.0  0.33953  0.53663  0.24424  1.0000
  H   H367      1.0  0.01152  0.59956  0.39254  1.0000
  H   H368      1.0  0.07792  0.48519  0.41881  1.0000
  H   H369      1.0  0.04545  0.53333  0.38305  1.0000
  C   C211      1.0  0.24448  0.52152  0.26886  1.0000
  C   C212      1.0  0.21498  0.52950  0.25600  1.0000
  C   C213      1.0  0.21569  0.53305  0.22683  1.0000
  C   C214      1.0  0.24588  0.52878  0.21009  1.0000
  C   C215      1.0  0.27543  0.52086  0.22297  1.0000
  C   C216      1.0  0.27466  0.51723  0.25214  1.0000
  H   H370      1.0  0.19150  0.53283  0.26845  1.0000
  H   H371      1.0  0.19255  0.53906  0.21709  1.0000
  H   H372      1.0  0.29870  0.51735  0.21039  1.0000
  H   H373      1.0  0.29758  0.51099  0.26179  1.0000
  C   C217      1.0  0.20475  0.59159  0.38195  1.0000
  C   C218      1.0  0.20190  0.60821  0.37209  1.0000
  C   C219      1.0  0.22948  0.61964  0.37688  1.0000
  C   C220      1.0  0.25998  0.61462  0.39206  1.0000
  C   C221      1.0  0.26308  0.59790  0.40153  1.0000
  C   C222      1.0  0.23573  0.58639  0.39631  1.0000
  H   H374      1.0  0.17817  0.61232  0.36079  1.0000
  H   H375      1.0  0.22685  0.63242  0.36933  1.0000
  H   H376      1.0  0.28659  0.59391  0.41326  1.0000
  H   H377      1.0  0.23804  0.57368  0.40428  1.0000
  C   C223      1.0  0.31417  0.49440  0.01146  1.0000
  H   H378      1.0  0.18639  0.43577  0.99909  1.0000
  H   H379      1.0  0.39745  0.55624  0.01669  1.0000
  H   H380      1.0  0.33417  0.46912  0.01791  1.0000
  H   H381      1.0  0.30930  0.62308  0.33972  1.0000
  H   H382      1.0  0.31027  0.59061  0.28343  1.0000
  C   C224      1.0  0.16715  0.48513  0.46450  1.0000
  H   H383      1.0  0.46361  0.51106  0.98933  1.0000
  N   N13       1.0  0.28866  0.56867  0.30406  1.0000
  C   C225      1.0  0.40650  0.50749  0.98612  1.0000
  H   H384      1.0  0.33683  0.55147  0.21557  1.0000
  C   C226      1.0  0.40157  0.48381  0.09515  1.0000
  H   H385      1.0  0.06786  0.60792  0.40518  1.0000
  C   C227      1.0  0.42522  0.55710  0.02492  1.0000
  H   H386      1.0  0.28281  0.44878  0.00803  1.0000
  H   H387      1.0  0.01413  0.45491  0.39555  1.0000
  S   S64       1.0  0.17493  0.63420  0.07857  1.0000
  H   H388      1.0  0.12510  0.62086  0.16656  1.0000
  H   H389      1.0  0.41596  0.47173  0.09105  1.0000
  C   C228      1.0  0.07966  0.56634  0.30127  1.0000
  H   H390      1.0  0.27551  0.45755  0.45326  1.0000
  H   H391      1.0  0.21398  0.41789  0.00500  1.0000
  C   C229      1.0  0.25913  0.64179  0.14563  1.0000
  C   C230      1.0  0.00571  0.44578  0.44878  1.0000
  H   H392      1.0  0.44983  0.49068  0.99871  1.0000
  H   H393      1.0  0.26802  0.56900  0.34707  1.0000
  C   C231      1.0  0.08531  0.47192  0.36348  1.0000
  H   H394      1.0  0.16474  0.58484  0.30817  1.0000
  H   H395      1.0  0.27857  0.64155  0.18807  1.0000
  C   C232      1.0  0.30270  0.50604  0.99108  1.0000
  H   H396      1.0  0.37352  0.48312  0.08747  1.0000
  C   C233      1.0  0.07476  0.58534  0.34405  1.0000
  H   H397      1.0  0.01814  0.60606  0.35742  1.0000
  H   H398      1.0  0.06114  0.57445  0.28867  1.0000
  S   S65       1.0  0.29458  0.62880  0.39977  1.0000
  C   C234      1.0  0.30985  0.55986  0.25381  1.0000
  H   H399      1.0  0.04240  0.56279  0.33513  1.0000
  H   H400      1.0  0.26149  0.63537  0.02114  1.0000
  C   C235      1.0  0.31220  0.54957  0.37806  1.0000
  H   H401      1.0  0.40601  0.50995  0.08665  1.0000
  H   H402      1.0  0.08191  0.46216  0.32074  1.0000
  H   H403      1.0  0.33786  0.54660  0.38896  1.0000
  H   H404      1.0  0.14350  0.64793  0.01332  1.0000
  H   H405      1.0  0.20548  0.63702  0.01055  1.0000
  C   C236      1.0  0.04549  0.47815  0.36519  1.0000
  H   H406      1.0  0.05621  0.45844  0.41114  1.0000
  H   H407      1.0  0.26475  0.47749  0.46925  1.0000
  C   C237      1.0  0.32143  0.61285  0.32686  1.0000
  C   C238      1.0  0.15244  0.47005  0.47454  1.0000
  C   C239      1.0  0.28462  0.56091  0.33296  1.0000
  C   C240      1.0  0.02095  0.59499  0.37161  1.0000
  H   H408      1.0  0.43857  0.52036  0.20126  1.0000
  H   H409      1.0  0.08857  0.45915  0.37259  1.0000
  H   H410      1.0  0.32826  0.61806  0.30581  1.0000
  H   H411      1.0  0.26964  0.60443  0.31586  1.0000
  H   H412      1.0  0.28397  0.55585  0.24484  1.0000
  C   C241      1.0  0.22514  0.62654  0.21855  1.0000
  H   H413      1.0  0.36661  0.55515  0.24459  1.0000
  H   H414      1.0  0.43901  0.56732  0.01348  1.0000
  C   C242      1.0  0.17143  0.63679  0.17235  1.0000
  H   H415      1.0  0.47324  0.54670  0.19574  1.0000
  C   C243      1.0  0.48206  0.50858  0.04188  1.0000
  H   H416      1.0  0.29461  0.51857  0.99744  1.0000
  H   H417      1.0  0.08955  0.63709  0.40022  1.0000
  H   H418      1.0  0.08275  0.50091  0.46295  1.0000
  H   H419      1.0  0.10344  0.48037  0.37478  1.0000
  H   H420      1.0  0.20130  0.50547  0.47518  1.0000
  H   H421      1.0  0.07721  0.55321  0.29398  1.0000
  C   C244      1.0  0.10630  0.63246  0.38233  1.0000
  H   H422      1.0  0.22680  0.58768  0.32329  1.0000
  H   H423      1.0  0.19167  0.59180  0.27884  1.0000
  H   H424      1.0  0.20519  0.45291  0.03142  1.0000
  H   H425      1.0  0.35332  0.61611  0.02292  1.0000
  H   H426      1.0  0.25879  0.43283  0.02576  1.0000
  H   H427      1.0  0.20881  0.61587  0.22610  1.0000
  C   C245      1.0  0.44429  0.52854  0.21947  1.0000
  C   C246      1.0  0.25202  0.64047  0.17772  1.0000
  H   H428      1.0  0.42387  0.56037  0.04761  1.0000
  H   H429      1.0  0.26919  0.63063  0.28290  1.0000
  C   C247      1.0  0.32470  0.47818  0.00249  1.0000
  N   N14       1.0  0.05974  0.58914  0.37309  1.0000
  C   C248      1.0  0.34010  0.55016  0.23873  1.0000
  H   H430      1.0  0.08542  0.51852  0.43905  1.0000
  H   H431      1.0  0.09624  0.48365  0.32275  1.0000
  H   H432      1.0  0.27853  0.61855  0.23510  1.0000
  H   H433      1.0  0.33672  0.54748  0.33738  1.0000
  H   H434      1.0  0.04444  0.54914  0.43019  1.0000
  H   H435      1.0  0.23114  0.46913  0.01511  1.0000
  H   H436      1.0  0.06675  0.50162  0.39494  1.0000
  C   C249      1.0  0.32628  0.61840  0.01374  1.0000
  C   C250      1.0  0.02867  0.46394  0.40886  1.0000
  H   H437      1.0  0.39840  0.52630  0.03187  1.0000
  C   C251      1.0  0.42162  0.49625  0.04841  1.0000
  H   H438      1.0  0.02171  0.57855  0.42335  1.0000
  H   H439      1.0  0.14345  0.62941  0.13433  1.0000
  H   H440      1.0  0.13497  0.46311  0.46102  1.0000
  H   H441      1.0  0.20801  0.63791  0.22222  1.0000
  C   C252      1.0  0.20779  0.42784  0.98912  1.0000
  H   H442      1.0  0.25062  0.44984  0.06932  1.0000
  H   H443      1.0  0.32051  0.64176  0.03541  1.0000
  H   H444      1.0  0.02179  0.51386  0.42442  1.0000
  N   N15       1.0  0.23384  0.62477  0.18763  1.0000
  C   C253      1.0  0.19944  0.62209  0.17181  1.0000
  C   C254      1.0  0.25873  0.60989  0.18228  1.0000
  H   H445      1.0  0.13246  0.62763  0.39054  1.0000
  H   H446      1.0  0.32632  0.61339  0.99199  1.0000
  H   H447      1.0  0.27422  0.63063  0.13783  1.0000
  C   C255      1.0  0.24813  0.59314  0.19663  1.0000
  C   C256      1.0  0.27281  0.57871  0.18698  1.0000
  C   C257      1.0  0.24988  0.46111  0.05550  1.0000
  H   H448      1.0  0.25946  0.40268  0.98583  1.0000
  H   H449      1.0  0.18548  0.61098  0.18035  1.0000
  H   H450      1.0  0.20519  0.61903  0.14931  1.0000
  H   H451      1.0  0.26056  0.60729  0.15928  1.0000
  H   H452      1.0  0.28672  0.61264  0.18861  1.0000
  C   C258      1.0  0.31999  0.55689  0.34889  1.0000
  H   H453      1.0  0.48869  0.48321  0.06002  1.0000
  H   H454      1.0  0.44694  0.52068  0.23876  1.0000
  H   H455      1.0  0.27033  0.64087  0.23463  1.0000
  H   H456      1.0  0.30031  0.54344  0.28924  1.0000
  H   H457      1.0  0.25023  0.59395  0.21986  1.0000
  H   H458      1.0  0.22029  0.58973  0.19137  1.0000
  H   H459      1.0  0.26495  0.56693  0.19769  1.0000
  H   H460      1.0  0.27031  0.57683  0.16391  1.0000
  H   H461      1.0  0.30126  0.58120  0.19206  1.0000
  H   H462      1.0  0.29684  0.53785  0.37627  1.0000
  H   H463      1.0  0.23391  0.47115  0.06624  1.0000
  H   H464      1.0  0.42110  0.53738  0.22227  1.0000
  H   H465      1.0  0.43054  0.48320  0.04339  1.0000
  H   H466      1.0  0.99709  0.58056  0.33776  1.0000
  H   H467      1.0  0.08762  0.55695  0.44058  1.0000
  N   N16       1.0  0.44356  0.50878  0.03215  1.0000
  C   C259      1.0  0.42760  0.52605  0.03684  1.0000
  H   H468      1.0  0.42914  0.52937  0.05944  1.0000
  H   H469      1.0  0.33571  0.56839  0.35183  1.0000
  C   C260      1.0  0.44280  0.50421  0.00137  1.0000
  H   H470      1.0  0.30649  0.61143  0.02663  1.0000
  C   C261      1.0  0.44596  0.54055  0.02071  1.0000
  C   C262      1.0  0.25212  0.57124  0.29073  1.0000
  H   H471      1.0  0.23636  0.65185  0.18422  1.0000
  H   H472      1.0  0.24313  0.55924  0.28146  1.0000
  C   C263      1.0  0.05465  0.49243  0.40990  1.0000
  C   C264      1.0  0.24598  0.62799  0.26918  1.0000
  C   C265      1.0  0.30912  0.58480  0.30471  1.0000
  H   H473      1.0  0.31291  0.57330  0.24865  1.0000
  H   H474      1.0  0.39307  0.49702  0.04186  1.0000
  C   C266      1.0  0.06690  0.51096  0.45206  1.0000
  H   H475      1.0  0.49329  0.65060  0.38359  1.0000
  H   H476      1.0  0.47361  0.54228  0.02863  1.0000
  H   H477      1.0  0.23178  0.46133  0.46906  1.0000
  H   H478      1.0  0.18229  0.64816  0.16215  1.0000
  C   C267      1.0  0.42090  0.49829  0.08086  1.0000
  C   C268      1.0  0.01221  0.46372  0.43883  1.0000
  C   C269      1.0  0.09819  0.47106  0.33287  1.0000
  H   H479      1.0  0.03109  0.43818  0.44801  1.0000
  H   H480      1.0  0.16318  0.64000  0.19413  1.0000
  C   C270      1.0  0.31730  0.63721  0.01355  1.0000
  H   H481      1.0  0.06118  0.62420  0.35874  1.0000
  C   C271      1.0  0.25778  0.62853  0.23831  1.0000
  H   H482      1.0  0.17821  0.57013  0.28118  1.0000
  C   C272      1.0  0.03790  0.50337  0.43377  1.0000
  H   H483      1.0  0.26951  0.54904  0.33139  1.0000
  H   H484      1.0  0.29656  0.55873  0.39103  1.0000
  H   H485      1.0  0.33726  0.64323  0.99965  1.0000
  C   C273      1.0  0.18678  0.58115  0.29342  1.0000
  H   H486      1.0  0.05426  0.51923  0.46820  1.0000
  H   H487      1.0  0.27764  0.46565  0.05244  1.0000
  C   C274      1.0  0.07001  0.56734  0.33253  1.0000
  C   C275      1.0  0.06475  0.57403  0.39209  1.0000
  C   C276      1.0  0.31017  0.55642  0.28611  1.0000
  C   C277      1.0  0.27819  0.64063  0.00387  1.0000
  C   C278      1.0  0.22051  0.57677  0.31028  1.0000
  H   H488      1.0  0.12675  0.46673  0.33212  1.0000
  H   H489      1.0  0.99690  0.56993  0.37149  1.0000
  H   H490      1.0  0.33877  0.55589  0.29278  1.0000
  H   H491      1.0  0.40061  0.48590  0.11825  1.0000
  H   H492      1.0  0.05124  0.56299  0.38362  1.0000
  H   H493      1.0  0.22474  0.63767  0.27339  1.0000
  H   H494      1.0  0.06356  0.59446  0.32838  1.0000
  C   C279      1.0  0.13733  0.63207  0.15679  1.0000
  H   H495      1.0  0.09377  0.57032  0.39281  1.0000
  H   H496      1.0  0.08811  0.55843  0.34398  1.0000
  N   N17       1.0  0.03005  0.48079  0.39443  1.0000
  H   H497      1.0  0.31976  0.39045  0.97829  1.0000
  H   H498      1.0  0.10396  0.61544  0.34786  1.0000
  H   H499      1.0  0.04332  0.49001  0.35276  1.0000
  C   C280      1.0  0.05831  0.55986  0.43975  1.0000
  H   H500      1.0  0.02997  0.46883  0.35336  1.0000
  C   C281      1.0  0.05111  0.57595  0.42283  1.0000
  C   C282      1.0  0.29461  0.59873  0.32447  1.0000
  H   H501      1.0  0.06497  0.58618  0.43375  1.0000
  H   H502      1.0  0.44825  0.49873  0.08980  1.0000
  H   H503      1.0  0.11736  0.64260  0.15775  1.0000
  H   H504      1.0  0.21379  0.56639  0.32488  1.0000
  C   C283      1.0  0.23284  0.45717  0.02718  1.0000
  H   H505      1.0  0.01990  0.49630  0.44783  1.0000
  C   C284      1.0  0.47850  0.53837  0.21415  1.0000
  H   H506      1.0  0.10814  0.59852  0.39209  1.0000
  C   C285      1.0  0.08100  0.60320  0.38558  1.0000
  H   H507      1.0  0.25369  0.58033  0.27291  1.0000
  H   H508      1.0  0.33771  0.58221  0.31032  1.0000
  H   H509      1.0  0.27315  0.63277  0.98503  1.0000
  H   H510      1.0  0.10776  0.57021  0.29759  1.0000
  H   H511      1.0  0.11161  0.64317  0.36794  1.0000
  C   C286      1.0  0.08698  0.61876  0.36639  1.0000
  H   H512      1.0  0.34634  0.60832  0.33748  1.0000
  H   H513      1.0  0.28954  0.59398  0.34601  1.0000
  H   H514      1.0  0.23348  0.64304  0.13398  1.0000
  H   H515      1.0  0.04816  0.56146  0.46162  1.0000
  H   H516      1.0  0.48417  0.51450  0.06293  1.0000
  H   H517      1.0  0.23557  0.61546  0.27472  1.0000
  C   C287      1.0  0.26091  0.46375  0.47095  1.0000
  H   H518      1.0  0.44762  0.53817  0.99779  1.0000
  C   C288      1.0  0.28215  0.41140  0.98377  1.0000
  H   H519      1.0  0.38388  0.50203  0.99788  1.0000
  H   H520      1.0  0.03130  0.46927  0.45382  1.0000
  H   H521      1.0  0.40082  0.52113  0.98366  1.0000
  H   H522      1.0  0.29289  0.41394  0.00498  1.0000
  C   C289      1.0  0.25546  0.44365  0.01105  1.0000
  H   H523      1.0  0.48296  0.54627  0.23285  1.0000
  N   N18       1.0  0.24068  0.43803  0.98313  1.0000
  H   H524      1.0  0.17406  0.39675  0.98530  1.0000
  H   H525      1.0  0.14041  0.41355  0.98577  1.0000
  C   C290      1.0  0.20102  0.65078  0.00864  1.0000
  H   H526      1.0  0.15931  0.64711  0.97739  1.0000
  C   C291      1.0  0.16266  0.65341  0.99795  1.0000
  H   H527      1.0  0.99501  0.50035  0.37798  1.0000
  H   H528      1.0  0.99576  0.44587  0.47084  1.0000
  Fe  Fe33      1.0  0.18060  0.44267  0.58280  1.0000
  S   S66       1.0  0.16647  0.41679  0.56853  1.0000
  S   S67       1.0  0.19657  0.46455  0.55354  1.0000
  Fe  Fe34      1.0  0.17754  0.43241  0.64641  1.0000
  S   S68       1.0  0.16182  0.40623  0.63565  1.0000
  S   S69       1.0  0.17878  0.43797  0.69393  1.0000
  Fe  Fe35      1.0  0.20422  0.40704  0.60212  1.0000
  S   S70       1.0  0.24970  0.38740  0.60094  1.0000
  Fe  Fe36      1.0  0.12495  0.41806  0.60342  1.0000
  S   S71       1.0  0.07024  0.40649  0.59717  1.0000
  S   S72       1.0  0.22179  0.43286  0.61415  1.0000
  S   S73       1.0  0.13712  0.44435  0.61637  1.0000
  Fe  Fe37      1.0  0.31449  0.44002  0.83078  1.0000
  S   S74       1.0  0.33335  0.41486  0.84753  1.0000
  S   S75       1.0  0.30823  0.44116  0.78249  1.0000
  Fe  Fe38      1.0  0.31627  0.45582  0.89095  1.0000
  S   S76       1.0  0.33368  0.43140  0.91057  1.0000
  S   S77       1.0  0.30801  0.48005  0.91687  1.0000
  Fe  Fe39      1.0  0.37211  0.42915  0.87383  1.0000
  S   S78       1.0  0.42859  0.41971  0.88453  1.0000
  Fe  Fe40      1.0  0.29350  0.41933  0.88231  1.0000
  S   S79       1.0  0.25145  0.40075  0.89689  1.0000
  S   S80       1.0  0.35658  0.45414  0.85505  1.0000
  S   S81       1.0  0.27283  0.44400  0.86477  1.0000
  C   C292      1.0  0.46845  0.42556  0.86684  1.0000
  C   C293      1.0  0.46827  0.43709  0.84452  1.0000
  H   H529      1.0  0.25733  0.33569  0.67558  1.0000
  H   H530      1.0  0.44303  0.44249  0.83727  1.0000
  H   H531      1.0  0.40853  0.48592  0.95848  1.0000
  C   C294      1.0  0.31118  0.48515  0.95347  1.0000
  C   C295      1.0  0.30110  0.50141  0.96240  1.0000
  H   H532      1.0  0.30267  0.39906  0.94583  1.0000
  H   H533      1.0  0.17274  0.42030  0.83147  1.0000
  H   H534      1.0  0.29177  0.51053  0.94698  1.0000
  H   H535      1.0  0.36208  0.37142  0.81278  1.0000
  C   C296      1.0  0.25330  0.37938  0.88660  1.0000
  C   C297      1.0  0.22323  0.36928  0.89106  1.0000
  C   C298      1.0  0.22409  0.35219  0.88342  1.0000
  C   C299      1.0  0.25523  0.34501  0.87147  1.0000
  C   C300      1.0  0.28527  0.35512  0.86715  1.0000
  C   C301      1.0  0.28428  0.37221  0.87450  1.0000
  H   H536      1.0  0.19917  0.37468  0.90050  1.0000
  H   H537      1.0  0.20079  0.34457  0.88691  1.0000
  H   H538      1.0  0.30953  0.34969  0.85804  1.0000
  H   H539      1.0  0.30774  0.37975  0.87119  1.0000
  H   H540      1.0  0.17391  0.32688  0.75407  1.0000
  C   C302      1.0  0.02785  0.41658  0.60235  1.0000
  C   C303      1.0  0.08835  0.42636  0.73111  1.0000
  H   H541      1.0  0.04824  0.44137  0.60669  1.0000
  C   C304      1.0  0.19926  0.34696  0.80715  1.0000
  C   C305      1.0  0.18345  0.47236  0.51950  1.0000
  H   H542      1.0  0.22564  0.41060  0.50163  1.0000
  C   C306      1.0  0.24784  0.40364  0.51239  1.0000
  C   C307      1.0  0.21531  0.43910  0.71805  1.0000
  C   C308      1.0  0.20777  0.44111  0.74696  1.0000
  C   C309      1.0  0.23567  0.44182  0.76696  1.0000
  C   C310      1.0  0.27166  0.44058  0.75832  1.0000
  C   C311      1.0  0.27917  0.43875  0.72936  1.0000
  C   C312      1.0  0.25128  0.43800  0.70937  1.0000
  H   H543      1.0  0.18015  0.44229  0.75395  1.0000
  H   H544      1.0  0.22938  0.44359  0.78900  1.0000
  H   H545      1.0  0.30685  0.43793  0.72231  1.0000
  H   H546      1.0  0.25767  0.43667  0.68724  1.0000
  C   C313      1.0  0.24757  0.36591  0.59180  1.0000
  C   C314      1.0  0.27845  0.35562  0.59510  1.0000
  C   C315      1.0  0.27892  0.33878  0.58632  1.0000
  C   C316      1.0  0.24857  0.33209  0.57384  1.0000
  C   C317      1.0  0.21739  0.34225  0.57112  1.0000
  C   C318      1.0  0.21674  0.35904  0.58029  1.0000
  H   H547      1.0  0.30245  0.36081  0.60393  1.0000
  H   H548      1.0  0.30316  0.33114  0.58833  1.0000
  H   H549      1.0  0.19377  0.33719  0.56151  1.0000
  H   H550      1.0  0.19278  0.36680  0.57764  1.0000
  H   H551      1.0  0.02840  0.46840  0.57270  1.0000
  H   H552      1.0  0.42978  0.50441  0.94407  1.0000
  H   H553      1.0  0.20746  0.33692  0.79224  1.0000
  H   H554      1.0  0.38419  0.41573  0.48480  1.0000
  H   H555      1.0  0.20421  0.45862  0.97236  1.0000
  H   H556      1.0  0.20500  0.40633  0.84798  1.0000
  H   H557      1.0  0.21558  0.49439  0.52298  1.0000
  C   C319      1.0  0.26371  0.41453  0.53614  1.0000
  H   H558      1.0  0.08655  0.42025  0.78987  1.0000
  C   C320      1.0  0.29160  0.44017  0.55176  1.0000
  H   H559      1.0  0.47144  0.44684  0.93319  1.0000
  H   H560      1.0  0.10147  0.45026  0.75086  1.0000
  C   C321      1.0  0.32340  0.47360  0.97377  1.0000
  H   H561      1.0  0.33187  0.46115  0.96734  1.0000
  H   H562      1.0  0.21546  0.35533  0.67901  1.0000
  H   H563      1.0  0.10162  0.44068  0.79976  1.0000
  H   H564      1.0  0.10599  0.47142  0.65844  1.0000
  H   H565      1.0  0.26827  0.40010  0.49634  1.0000
  C   C322      1.0  0.02459  0.43378  0.60736  1.0000
  H   H566      1.0  0.13057  0.42717  0.77898  1.0000
  C   C323      1.0  0.07709  0.41866  0.68250  1.0000
  H   H567      1.0  0.16401  0.37554  0.67933  1.0000
  H   H568      1.0  0.32260  0.32799  0.67538  1.0000
  H   H569      1.0  0.15780  0.32987  0.66218  1.0000
  H   H570      1.0  0.43087  0.47747  0.90855  1.0000
  H   H571      1.0  0.00611  0.43327  0.66914  1.0000
  H   H572      1.0  0.02188  0.42152  0.72992  1.0000
  H   H573      1.0  0.04579  0.39172  0.65360  1.0000
  H   H574      1.0  0.06658  0.44705  0.65111  1.0000
  C   C324      1.0  0.47056  0.46042  0.92785  1.0000
  H   H575      1.0  0.24057  0.41917  0.54913  1.0000
  H   H576      1.0  0.19887  0.34138  0.82860  1.0000
  H   H577      1.0  0.43308  0.45682  0.89334  1.0000
  H   H578      1.0  0.22740  0.47901  0.92625  1.0000
  H   H579      1.0  0.09825  0.39580  0.70285  1.0000
  H   H580      1.0  0.06136  0.42088  0.66304  1.0000
  H   H581      1.0  0.26498  0.44513  0.55928  1.0000
  C   C325      1.0  0.21434  0.46734  0.91941  1.0000
  H   H582      1.0  0.33598  0.45450  0.59276  1.0000
  C   C326      1.0  0.07637  0.47251  0.66135  1.0000
  H   H583      1.0  0.36141  0.37821  0.77653  1.0000
  H   H584      1.0  0.29434  0.42184  0.58669  1.0000
  H   H585      1.0  0.30679  0.45151  0.54615  1.0000
  H   H586      1.0  0.47093  0.46780  0.94752  1.0000
  H   H587      1.0  0.20733  0.40095  0.69432  1.0000
  H   H588      1.0  0.22645  0.65216  0.96757  1.0000
  C   C327      1.0  0.35086  0.43429  0.50708  1.0000
  H   H589      1.0  0.34332  0.44071  0.48713  1.0000
  H   H590      1.0  0.13495  0.35974  0.66591  1.0000
  H   H591      1.0  0.29167  0.45092  0.60710  1.0000
  H   H592      1.0  0.21870  0.44072  0.92567  1.0000
  H   H593      1.0  0.10548  0.42056  0.67578  1.0000
  C   C328      1.0  0.08598  0.43887  0.75596  1.0000
  H   H594      1.0  0.22003  0.38024  0.50697  1.0000
  H   H595      1.0  0.01809  0.44305  0.72152  1.0000
  H   H596      1.0  0.34353  0.35800  0.78648  1.0000
  C   C329      1.0  0.27518  0.45730  0.49919  1.0000
  C   C330      1.0  0.10219  0.43121  0.78273  1.0000
  N   N19       1.0  0.06665  0.43101  0.70528  1.0000
  C   C331      1.0  0.20015  0.41464  0.82949  1.0000
  H   H597      1.0  0.10717  0.44884  0.69391  1.0000
  C   C332      1.0  0.38682  0.42520  0.50168  1.0000
  H   H598      1.0  0.27936  0.40592  0.55024  1.0000
  C   C333      1.0  0.19779  0.48753  0.50958  1.0000
  H   H599      1.0  0.07018  0.48181  0.67810  1.0000
  H   H600      1.0  0.14925  0.45201  0.50886  1.0000
  H   H601      1.0  0.41214  0.45987  0.92715  1.0000
  C   C334      1.0  0.18620  0.33396  0.66218  1.0000
  C   C335      1.0  0.02703  0.43073  0.71270  1.0000
  H   H602      1.0  0.02809  0.46054  0.53731  1.0000
  H   H603      1.0  0.25504  0.40444  0.69090  1.0000
  H   H604      1.0  0.21175  0.39012  0.54044  1.0000
  H   H605      1.0  0.06444  0.47716  0.64132  1.0000
  H   H606      1.0  0.29405  0.43568  0.96542  1.0000
  C   C336      1.0  0.23209  0.45199  0.93343  1.0000
  C   C337      1.0  0.01639  0.47026  0.55153  1.0000
  H   H607      1.0  0.18528  0.46811  0.92479  1.0000
  C   C338      1.0  0.19004  0.41958  0.96349  1.0000
  C   C339      1.0  0.43458  0.46391  0.91332  1.0000
  H   H608      1.0  0.03138  0.45744  0.67153  1.0000
  H   H609      1.0  0.25426  0.37945  0.53357  1.0000
  H   H610      1.0  0.22001  0.32804  0.71441  1.0000
  C   C340      1.0  0.07388  0.39990  0.69103  1.0000
  H   H611      1.0  0.21721  0.46641  0.89620  1.0000
  H   H612      1.0  0.06923  0.37525  0.67252  1.0000
  C   C341      1.0  0.40686  0.49979  0.95679  1.0000
  H   H613      1.0  0.31682  0.32180  0.63914  1.0000
  C   C342      1.0  0.18785  0.35044  0.67917  1.0000
  H   H614      1.0  0.32950  0.43839  0.61901  1.0000
  H   H615      1.0  0.23551  0.38679  0.67404  1.0000
  C   C343      1.0  0.31735  0.44475  0.60040  1.0000
  H   H616      1.0  0.17204  0.36714  0.64467  1.0000
  H   H617      1.0  0.17915  0.34848  0.70131  1.0000
  C   C344      1.0  0.06078  0.45549  0.66895  1.0000
  H   H618      1.0  0.05019  0.39788  0.70482  1.0000
  C   C345      1.0  0.07062  0.38852  0.66551  1.0000
  H   H619      1.0  0.08007  0.41400  0.73962  1.0000
  H   H620      1.0  0.11739  0.42480  0.72545  1.0000
  C   C346      1.0  0.18974  0.49388  0.48238  1.0000
  H   H621      1.0  0.21991  0.42485  0.82957  1.0000
  C   C347      1.0  0.16050  0.46369  0.50176  1.0000
  H   H622      1.0  0.25065  0.32828  0.64104  1.0000
  H   H623      1.0  0.05769  0.44266  0.76054  1.0000
  C   C348      1.0  0.16314  0.36400  0.66644  1.0000
  H   H624      1.0  0.07012  0.45773  0.71281  1.0000
  N   N20       1.0  0.24758  0.38556  0.77369  1.0000
  C   C349      1.0  0.24230  0.39789  0.79747  1.0000
  C   C350      1.0  0.28687  0.38030  0.77085  1.0000
  C   C351      1.0  0.23694  0.39446  0.74671  1.0000
  C   C352      1.0  0.22430  0.37041  0.77718  1.0000
  C   C353      1.0  0.22603  0.36120  0.80593  1.0000
  C   C354      1.0  0.20325  0.40459  0.80231  1.0000
  C   C355      1.0  0.24142  0.38400  0.71938  1.0000
  C   C356      1.0  0.30949  0.37949  0.79809  1.0000
  C   C357      1.0  0.34637  0.37125  0.79299  1.0000
  C   C358      1.0  0.07745  0.44841  0.69634  1.0000
  C   C359      1.0  0.23430  0.39473  0.69316  1.0000
  H   H625      1.0  0.25966  0.40895  0.79394  1.0000
  H   H626      1.0  0.25137  0.39244  0.81786  1.0000
  H   H627      1.0  0.28963  0.36790  0.76033  1.0000
  H   H628      1.0  0.30147  0.38924  0.75691  1.0000
  H   H629      1.0  0.25265  0.40611  0.74412  1.0000
  H   H630      1.0  0.20826  0.39863  0.74732  1.0000
  H   H631      1.0  0.19568  0.37386  0.77303  1.0000
  H   H632      1.0  0.23141  0.36082  0.76107  1.0000
  H   H633      1.0  0.21949  0.36973  0.82367  1.0000
  H   H634      1.0  0.25302  0.35543  0.80910  1.0000
  H   H635      1.0  0.19478  0.41304  0.78488  1.0000
  H   H636      1.0  0.18397  0.39424  0.80397  1.0000
  H   H637      1.0  0.22189  0.37372  0.71943  1.0000
  H   H638      1.0  0.26889  0.37847  0.71728  1.0000
  H   H639      1.0  0.31392  0.39241  0.80551  1.0000
  H   H640      1.0  0.29614  0.37250  0.81512  1.0000
  H   H641      1.0  0.26203  0.42412  0.94711  1.0000
  C   C360      1.0  0.31086  0.43190  0.57735  1.0000
  H   H642      1.0  0.00328  0.41270  0.68358  1.0000
  H   H643      1.0  0.09422  0.38977  0.65133  1.0000
  C   C361      1.0  0.99664  0.40699  0.60176  1.0000
  H   H644      1.0  0.26048  0.45123  0.92617  1.0000
  C   C362      1.0  0.26614  0.43855  0.50384  1.0000
  H   H645      1.0  0.19198  0.33749  0.63991  1.0000
  H   H646      1.0  0.17162  0.35158  0.80230  1.0000
  H   H647      1.0  0.17618  0.42931  0.95050  1.0000
  C   C363      1.0  0.23254  0.38740  0.52415  1.0000
  H   H648      1.0  0.33739  0.42645  0.57121  1.0000
  H   H649      1.0  0.23672  0.43880  0.50873  1.0000
  H   H650      1.0  0.14879  0.40173  0.95407  1.0000
  H   H651      1.0  0.38149  0.50325  0.94577  1.0000
  N   N21       1.0  0.28641  0.42904  0.52660  1.0000
  S   S82       1.0  0.25824  0.32366  0.86101  1.0000
  C   C364      1.0  0.23114  0.45354  0.96596  1.0000
  H   H652      1.0  0.40716  0.43439  0.49486  1.0000
  H   H653      1.0  0.20977  0.41256  0.95028  1.0000
  H   H654      1.0  0.02359  0.48289  0.54362  1.0000
  H   H655      1.0  0.35533  0.44369  0.52366  1.0000
  C   C365      1.0  0.26996  0.42783  0.96861  1.0000
  H   H656      1.0  0.33325  0.41265  0.53093  1.0000
  H   H657      1.0  0.99888  0.39369  0.59760  1.0000
  H   H658      1.0  0.16177  0.32613  0.51491  1.0000
  H   H659      1.0  0.26240  0.46495  0.51613  1.0000
  C   C366      1.0  0.32150  0.42175  0.51550  1.0000
  H   H660      1.0  0.25032  0.46372  0.97037  1.0000
  C   C367      1.0  0.00076  0.42622  0.68871  1.0000
  C   C368      1.0  0.31198  0.40228  0.96725  1.0000
  H   H661      1.0  0.31691  0.41419  0.49638  1.0000
  C   C369      1.0  0.24912  0.32450  0.66364  1.0000
  H   H662      1.0  0.26914  0.43193  0.48336  1.0000
  H   H663      1.0  0.33609  0.41019  0.96545  1.0000
  H   H664      1.0  0.39656  0.41888  0.52119  1.0000
  H   H665      1.0  0.30421  0.45972  0.49976  1.0000
  C   C370      1.0  0.16158  0.40717  0.97288  1.0000
  H   H666      1.0  0.15030  0.32168  0.70712  1.0000
  Fe  Fe41      1.0  0.27619  0.69290  0.39172  1.0000
  S   S83       1.0  0.32451  0.67669  0.40337  1.0000
  S   S84       1.0  0.24745  0.71491  0.41523  1.0000
  Fe  Fe42      1.0  0.27177  0.67669  0.33176  1.0000
  C   C371      1.0  0.27581  0.98674  0.16397  1.0000
  S   S85       1.0  0.23293  0.67301  0.29476  1.0000
  H   H667      1.0  0.24528  0.96709  0.97945  1.0000
  H   H668      1.0  0.47136  0.70369  0.33149  1.0000
  Fe  Fe43      1.0  0.34598  0.68201  0.35973  1.0000
  S   S86       1.0  0.40215  0.69193  0.34892  1.0000
  S   S87       1.0  0.24579  0.67123  0.37386  1.0000
  S   S88       1.0  0.29909  0.69940  0.34884  1.0000
  Fe  Fe44      1.0  0.18955  0.69753  0.06236  1.0000
  S   S89       1.0  0.14354  0.68025  0.05427  1.0000
  S   S90       1.0  0.22334  0.71400  0.03223  1.0000
  Fe  Fe45      1.0  0.18830  0.68964  0.12702  1.0000
  S   S91       1.0  0.14203  0.67218  0.12316  1.0000
  S   S92       1.0  0.22200  0.69600  0.16583  1.0000
  C   C372      1.0  0.29582  0.97254  0.45157  1.0000
  H   H669      1.0  0.28915  0.79185  0.44709  1.0000
  Fe  Fe46      1.0  0.11697  0.69107  0.09318  1.0000
  S   S93       1.0  0.05856  0.70134  0.09593  1.0000
  S   S94       1.0  0.21906  0.67877  0.09016  1.0000
  S   S95       1.0  0.16160  0.70951  0.09975  1.0000
  H   H670      1.0  0.32922  0.66890  0.02782  1.0000
  C   C373      1.0  0.01573  0.69225  0.08989  1.0000
  C   C374      1.0  0.01178  0.67514  0.08466  1.0000
  H   H671      1.0  0.15455  0.70622  0.22292  1.0000
  H   H672      1.0  0.27722  0.81685  0.47060  1.0000
  C   C375      1.0  0.23277  0.67778  0.25805  1.0000
  C   C376      1.0  0.20296  0.67320  0.24192  1.0000
  C   C377      1.0  0.19985  0.67802  0.21336  1.0000
  C   C378      1.0  0.22628  0.68779  0.20067  1.0000
  C   C379      1.0  0.25649  0.69201  0.21661  1.0000
  C   C380      1.0  0.26000  0.68686  0.24497  1.0000
  H   H673      1.0  0.18168  0.66620  0.25180  1.0000
  H   H674      1.0  0.17637  0.67475  0.20147  1.0000
  C   C381      1.0  0.01209  0.68944  0.17154  1.0000
  H   H675      1.0  0.28328  0.69033  0.25690  1.0000
  C   C382      1.0  0.44645  0.68331  0.35372  1.0000
  H   H676      1.0  0.23269  0.94056  0.97996  1.0000
  C   C383      1.0  0.45305  0.66831  0.36843  1.0000
  C   C384      1.0  0.42119  0.98631  0.45718  1.0000
  H   H677      1.0  0.38288  0.96736  0.46841  1.0000
  C   C385      1.0  0.43029  0.70531  0.43021  1.0000
  C   C386      1.0  0.33749  0.90481  0.98415  1.0000
  H   H678      1.0  0.27065  0.73771  0.00647  1.0000
  C   C387      1.0  0.07694  0.98409  0.07054  1.0000
  H   H679      1.0  0.18373  0.92160  0.99515  1.0000
  C   C388      1.0  0.21756  0.73500  0.45715  1.0000
  C   C389      1.0  0.23974  0.72085  0.45127  1.0000
  H   H680      1.0  0.42263  0.95961  0.45146  1.0000
  H   H681      1.0  0.20526  0.74184  0.43988  1.0000
  H   H682      1.0  0.03533  0.66697  0.08380  1.0000
  H   H683      1.0  0.40960  0.93416  0.46409  1.0000
  H   H684      1.0  0.43071  0.66142  0.37693  1.0000
  H   H685      1.0  0.13687  0.97231  0.44450  1.0000
  H   H686      1.0  0.31791  0.84129  0.47385  1.0000
  H   H687      1.0  0.16844  0.72618  0.20892  1.0000
  H   H688      1.0  0.12207  0.72302  0.21835  1.0000
  C   C390      1.0  0.15028  0.72000  0.22429  1.0000
  S   S96       1.0  0.31999  0.65983  0.33956  1.0000
  C   C391      1.0  0.16792  0.97072  0.99114  1.0000
  H   H689      1.0  0.47049  0.70062  0.46194  1.0000
  H   H690      1.0  0.15598  0.66698  0.99551  1.0000
  H   H691      1.0  0.05367  0.79862  0.99093  1.0000
  C   C392      1.0  0.30613  0.67777  0.02947  1.0000
  H   H692      1.0  0.20123  0.96841  0.45754  1.0000
  H   H693      1.0  0.28955  0.96024  0.98999  1.0000
  Fe  Fe47      1.0  0.29526  0.65551  0.38231  1.0000
  H   H694      1.0  0.47570  0.95404  0.47480  1.0000
  H   H695      1.0  0.30090  0.74684  0.43054  1.0000
  H   H696      1.0  0.15799  0.96170  0.00624  1.0000
  H   H697      1.0  0.40839  0.69965  0.44283  1.0000
  H   H698      1.0  0.26735  0.66875  0.14517  1.0000
  H   H699      1.0  0.24921  0.67966  0.02350  1.0000
  C   C393      1.0  0.46656  0.69783  0.43934  1.0000
  H   H700      1.0  0.49241  0.71823  0.41792  1.0000
  H   H701      1.0  0.29531  0.97602  0.16321  1.0000
  H   H702      1.0  0.17381  0.77983  0.47290  1.0000
  C   C394      1.0  0.48866  0.66221  0.37217  1.0000
  C   C395      1.0  0.20685  0.77131  0.32702  1.0000
  H   H703      1.0  0.22254  0.80980  0.46191  1.0000
  H   H704      1.0  0.46509  0.68401  0.43687  1.0000
  H   H705      1.0  0.02974  0.69138  0.15290  1.0000
  H   H706      1.0  0.26269  0.66172  0.04284  1.0000
  H   H707      1.0  0.28497  0.69517  0.06103  1.0000
  N   N22       1.0  0.20703  0.72687  0.29238  1.0000
  C   C396      1.0  0.24608  0.72191  0.29623  1.0000
  C   C397      1.0  0.18353  0.71638  0.31147  1.0000
  C   C398      1.0  0.19730  0.72313  0.26225  1.0000
  C   C399      1.0  0.20022  0.74533  0.29726  1.0000
  C   C400      1.0  0.21133  0.75223  0.32622  1.0000
  C   C401      1.0  0.27354  0.73050  0.27644  1.0000
  C   C402      1.0  0.15725  0.72601  0.25422  1.0000
  C   C403      1.0  0.19910  0.71098  0.34052  1.0000
  C   C404      1.0  0.17037  0.70330  0.35941  1.0000
  H   H708      1.0  0.15574  0.76527  0.99535  1.0000
  C   C405      1.0  0.41274  0.96837  0.46806  1.0000
  C   C406      1.0  0.25552  0.73224  0.98962  1.0000
  H   H709      1.0  0.24966  0.70815  0.29335  1.0000
  H   H710      1.0  0.25488  0.72421  0.31805  1.0000
  H   H711      1.0  0.15716  0.72288  0.31521  1.0000
  H   H712      1.0  0.17713  0.70430  0.30108  1.0000
  H   H713      1.0  0.20463  0.70990  0.25726  1.0000
  H   H714      1.0  0.27719  0.69950  0.20700  1.0000
  H   H715      1.0  0.21339  0.75287  0.28049  1.0000
  H   H716      1.0  0.17107  0.74843  0.29535  1.0000
  H   H717      1.0  0.30379  0.67580  0.07526  1.0000
  H   H718      1.0  0.19375  0.74714  0.34300  1.0000
  H   H719      1.0  0.42933  0.71909  0.43342  1.0000
  H   H720      1.0  0.28756  0.76698  0.41640  1.0000
  H   H721      1.0  0.14986  0.73955  0.25490  1.0000
  H   H722      1.0  0.13900  0.71913  0.26854  1.0000
  H   H723      1.0  0.22051  0.70127  0.33740  1.0000
  H   H724      1.0  0.21099  0.72146  0.35206  1.0000
  H   H725      1.0  0.15916  0.69205  0.34933  1.0000
  H   H726      1.0  0.18258  0.69940  0.37978  1.0000
  H   H727      1.0  0.14843  0.71258  0.36383  1.0000
  C   C407      1.0  0.26970  0.66927  0.02391  1.0000
  H   H728      1.0  0.01544  0.67619  0.17851  1.0000
  H   H729      1.0  0.30809  0.65618  0.14898  1.0000
  H   H730      1.0  0.09745  0.77521  0.99258  1.0000
  H   H731      1.0  0.27032  0.72624  0.25442  1.0000
  H   H732      1.0  0.28610  0.65769  0.11541  1.0000
  H   H733      1.0  0.12011  0.74463  0.02319  1.0000
  H   H734      1.0  0.20277  0.65639  0.02988  1.0000
  H   H735      1.0  0.22464  0.77725  0.31113  1.0000
  H   H736      1.0  0.31680  0.71218  0.28453  1.0000
  H   H737      1.0  0.02082  0.69791  0.18851  1.0000
  H   H738      1.0  0.33126  0.73185  0.27005  1.0000
  C   C408      1.0  0.21932  0.79622  0.46583  1.0000
  H   H739      1.0  0.31055  0.68803  0.01405  1.0000
  C   C409      1.0  0.30435  0.76058  0.43265  1.0000
  Fe  Fe48      1.0  0.17156  0.66245  0.08477  1.0000
  H   H740      1.0  0.31770  0.73060  0.30649  1.0000
  H   H741      1.0  0.17850  0.77518  0.32288  1.0000
  H   H742      1.0  0.21427  0.77591  0.34818  1.0000
  H   H743      1.0  0.27042  0.74433  0.27710  1.0000
  H   H744      1.0  0.33289  0.69179  0.06191  1.0000
  H   H745      1.0  0.21289  0.73096  0.24727  1.0000
  H   H746      1.0  0.41896  0.98039  0.41236  1.0000
  H   H747      1.0  0.11887  0.79457  0.98391  1.0000
  H   H748      1.0  0.22885  0.78917  0.44704  1.0000
  H   H749      1.0  0.28666  0.96364  0.43626  1.0000
  H   H750      1.0  0.31832  0.66598  0.97955  1.0000
  H   H751      1.0  0.11137  0.72458  0.00772  1.0000
  C   C410      1.0  0.22964  0.72016  0.99618  1.0000
  H   H752      1.0  0.26416  0.76262  0.46469  1.0000
  N   N23       1.0  0.26726  0.65863  0.99778  1.0000
  H   H753      1.0  0.27231  0.70127  0.47009  1.0000
  H   H754      1.0  0.16504  0.79721  0.44937  1.0000
  C   C411      1.0  0.30686  0.68557  0.05874  1.0000
  C   C412      1.0  0.25522  0.71216  0.47403  1.0000
  H   H755      1.0  0.36129  0.91273  0.98729  1.0000
  H   H756      1.0  0.06041  0.97371  0.06274  1.0000
  C   C413      1.0  0.31211  0.72598  0.28498  1.0000
  H   H757      1.0  0.42542  0.70262  0.40765  1.0000
  H   H758      1.0  0.32748  0.78669  0.46718  1.0000
  C   C414      1.0  0.29257  0.76607  0.46213  1.0000
  H   H759      1.0  0.27054  0.69132  0.97843  1.0000
  C   C415      1.0  0.12957  0.73542  0.00718  1.0000
  H   H760      1.0  0.33308  0.76339  0.42887  1.0000
  H   H761      1.0  0.28338  0.92647  0.46520  1.0000
  H   H762      1.0  0.23980  0.74920  0.33113  1.0000
  C   C416      1.0  0.18068  0.98615  0.00082  1.0000
  H   H763      1.0  0.25043  0.91010  0.46677  1.0000
  H   H764      1.0  0.29230  0.93080  0.98845  1.0000
  H   H765      1.0  0.15695  0.73087  0.01282  1.0000
  C   C417      1.0  0.22860  0.65872  0.98814  1.0000
  C   C418      1.0  0.47605  0.69208  0.34292  1.0000
  H   H766      1.0  0.24177  0.91002  0.97866  1.0000
  C   C419      1.0  0.15059  0.98164  0.45766  1.0000
  H   H767      1.0  0.32162  0.90427  0.00402  1.0000
  C   C420      1.0  0.28155  0.65706  0.13848  1.0000
  C   C421      1.0  0.29794  0.78506  0.46649  1.0000
  H   H768      1.0  0.06977  0.98644  0.09294  1.0000
  H   H769      1.0  0.21870  0.67182  0.98442  1.0000
  C   C422      1.0  0.17905  0.79330  0.46898  1.0000
  H   H770      1.0  0.10585  0.98032  0.06942  1.0000
  H   H771      1.0  0.34706  0.89190  0.97897  1.0000
  H   H772      1.0  0.26155  0.98669  0.18460  1.0000
  H   H773      1.0  0.23539  0.94821  0.47495  1.0000
  C   C423      1.0  0.18197  0.97340  0.47349  1.0000
  H   H774      1.0  0.25556  0.98512  0.14718  1.0000
  H   H775      1.0  0.20271  0.93252  0.47479  1.0000
  H   H776      1.0  0.19026  0.70402  0.97856  1.0000
  C   C424      1.0  0.12947  0.74338  0.97783  1.0000
  Fe  Fe49      1.0  0.36350  0.92159  0.58645  1.0000
  S   S97       1.0  0.35155  0.94776  0.60071  1.0000
  S   S98       1.0  0.41963  0.91014  0.58116  1.0000
  Fe  Fe50      1.0  0.28404  0.91452  0.57808  1.0000
  S   S99       1.0  0.26708  0.94080  0.59106  1.0000
  S   S100      1.0  0.23813  0.89745  0.56659  1.0000
  Fe  Fe51      1.0  0.31359  0.94928  0.56384  1.0000
  S   S101      1.0  0.31726  0.97313  0.53629  1.0000
  Fe  Fe52      1.0  0.30625  0.93686  0.62657  1.0000
  S   S102      1.0  0.30147  0.94435  0.67329  1.0000
  S   S103      1.0  0.32759  0.92337  0.54861  1.0000
  S   S104      1.0  0.32120  0.91032  0.61464  1.0000
  Fe  Fe53      1.0  0.19902  0.79836  0.57667  1.0000
  S   S105      1.0  0.22412  0.77514  0.59613  1.0000
  S   S106      1.0  0.24178  0.81737  0.56487  1.0000
  Fe  Fe54      1.0  0.12376  0.78288  0.57724  1.0000
  S   S107      1.0  0.14471  0.75874  0.59640  1.0000
  S   S108      1.0  0.06617  0.78845  0.56177  1.0000
  Fe  Fe55      1.0  0.17667  0.77521  0.62531  1.0000
  S   S109      1.0  0.17685  0.77043  0.67313  1.0000
  Fe  Fe56      1.0  0.19112  0.76055  0.56543  1.0000
  S   S110      1.0  0.21907  0.73777  0.54384  1.0000
  S   S111      1.0  0.15300  0.79938  0.60774  1.0000
  S   S112      1.0  0.16848  0.78373  0.54456  1.0000
  Fe  Fe57      1.0  0.17535  0.93462  0.81783  1.0000
  S   S113      1.0  0.15692  0.90977  0.83467  1.0000
  S   S114      1.0  0.18116  0.93372  0.76941  1.0000
  Fe  Fe58      1.0  0.17558  0.94968  0.87869  1.0000
  S   S115      1.0  0.15875  0.92544  0.89822  1.0000
  S   S116      1.0  0.18719  0.97295  0.90571  1.0000
  Fe  Fe59      1.0  0.19780  0.91285  0.86836  1.0000
  S   S117      1.0  0.24152  0.89360  0.87975  1.0000
  Fe  Fe60      1.0  0.11902  0.92453  0.86255  1.0000
  S   S118      1.0  0.06297  0.91563  0.87406  1.0000
  S   S119      1.0  0.21795  0.93721  0.85072  1.0000
  S   S120      1.0  0.13408  0.94938  0.84388  1.0000
  Fe  Fe61      1.0  0.28000  0.75692  0.87895  1.0000
  S   S121      1.0  0.30078  0.78053  0.89797  1.0000
  S   S122      1.0  0.25181  0.73549  0.90311  1.0000
  Fe  Fe62      1.0  0.29391  0.77008  0.81759  1.0000
  S   S123      1.0  0.31500  0.79440  0.83366  1.0000
  S   S124      1.0  0.29738  0.76713  0.76936  1.0000
  Fe  Fe63      1.0  0.34571  0.77867  0.86548  1.0000
  S   S125      1.0  0.40312  0.78695  0.87595  1.0000
  Fe  Fe64      1.0  0.26906  0.79426  0.86445  1.0000
  S   S126      1.0  0.22567  0.81440  0.87212  1.0000
  S   S127      1.0  0.32685  0.75414  0.84817  1.0000
  S   S128      1.0  0.24613  0.77078  0.84660  1.0000
  C   C425      1.0  0.24354  0.73016  0.93929  1.0000
  H   H777      1.0  0.49181  0.90940  0.74216  1.0000
  H   H778      1.0  0.42572  0.93150  0.71775  1.0000
  C   C426      1.0  0.21748  0.71814  0.94585  1.0000
  H   H779      1.0  0.15370  0.95047  0.48012  1.0000
  H   H780      1.0  0.16502  0.76381  0.85106  1.0000
  H   H781      1.0  0.20271  0.71252  0.92895  1.0000
  C   C427      1.0  0.44767  0.77940  0.86812  1.0000
  C   C428      1.0  0.45473  0.76350  0.85684  1.0000
  H   H782      1.0  0.44933  0.96728  0.65245  1.0000
  H   H783      1.0  0.43270  0.75520  0.85313  1.0000
  C   C429      1.0  0.28663  0.98422  0.96923  1.0000
  C   C430      1.0  0.02192  0.92187  0.85791  1.0000
  C   C431      1.0  0.02054  0.93327  0.83544  1.0000
  C   C432      1.0  0.31538  0.92317  0.87577  1.0000
  H   H784      1.0  0.04512  0.93855  0.82741  1.0000
  C   C433      1.0  0.15991  0.75862  0.92421  1.0000
  C   C434      1.0  0.18226  0.97795  0.94232  1.0000
  H   H785      1.0  0.14823  0.96479  0.50804  1.0000
  C   C435      1.0  0.38258  0.82383  0.81295  1.0000
  H   H786      1.0  0.38125  0.79283  0.79260  1.0000
  C   C436      1.0  0.23675  0.87166  0.87648  1.0000
  C   C437      1.0  0.26766  0.86123  0.87529  1.0000
  C   C438      1.0  0.26484  0.84367  0.87363  1.0000
  C   C439      1.0  0.23100  0.83640  0.87328  1.0000
  C   C440      1.0  0.20013  0.84687  0.87439  1.0000
  C   C441      1.0  0.20296  0.86441  0.87596  1.0000
  H   H787      1.0  0.29393  0.86673  0.87592  1.0000
  H   H788      1.0  0.28880  0.83575  0.87301  1.0000
  H   H789      1.0  0.17384  0.84135  0.87434  1.0000
  H   H790      1.0  0.17899  0.87228  0.87750  1.0000
  C   C442      1.0  0.22639  0.73165  0.50787  1.0000
  H   H791      1.0  0.14696  0.69816  0.61014  1.0000
  C   C443      1.0  0.24858  0.71753  0.50202  1.0000
  H   H792      1.0  0.33580  0.81301  0.51610  1.0000
  H   H793      1.0  0.26074  0.71061  0.51928  1.0000
  C   C444      1.0  0.21096  0.77035  0.69947  1.0000
  C   C445      1.0  0.20075  0.76909  0.72801  1.0000
  C   C446      1.0  0.22664  0.76850  0.74965  1.0000
  C   C447      1.0  0.26332  0.76884  0.74304  1.0000
  C   C448      1.0  0.27357  0.77005  0.71447  1.0000
  C   C449      1.0  0.24762  0.77098  0.69285  1.0000
  H   H794      1.0  0.17253  0.76858  0.73346  1.0000
  H   H795      1.0  0.21821  0.76751  0.77143  1.0000
  H   H796      1.0  0.30180  0.77031  0.70902  1.0000
  H   H797      1.0  0.25598  0.77208  0.67109  1.0000
  C   C450      1.0  0.02320  0.78103  0.57253  1.0000
  H   H798      1.0  0.47835  0.94357  0.52791  1.0000
  C   C451      1.0  0.16274  0.75652  0.87096  1.0000
  H   H799      1.0  0.04118  0.76804  0.60984  1.0000
  C   C452      1.0  0.46379  0.90832  0.75009  1.0000
  H   H800      1.0  0.13828  0.74934  0.92188  1.0000
  C   C453      1.0  0.26813  0.94058  0.69985  1.0000
  C   C454      1.0  0.23429  0.93433  0.69358  1.0000
  C   C455      1.0  0.20828  0.93234  0.71514  1.0000
  C   C456      1.0  0.21574  0.93624  0.74338  1.0000
  C   C457      1.0  0.24988  0.94212  0.74975  1.0000
  C   C458      1.0  0.27573  0.94436  0.72812  1.0000
  H   H801      1.0  0.22784  0.93139  0.67204  1.0000
  H   H802      1.0  0.18198  0.92786  0.70984  1.0000
  H   H803      1.0  0.25609  0.94531  0.77124  1.0000
  H   H804      1.0  0.30168  0.94928  0.73331  1.0000
  C   C459      1.0  0.23967  0.87517  0.56831  1.0000
  C   C460      1.0  0.20729  0.86639  0.56836  1.0000
  C   C461      1.0  0.20737  0.84869  0.56840  1.0000
  C   C462      1.0  0.23992  0.83959  0.56776  1.0000
  C   C463      1.0  0.27228  0.84838  0.56768  1.0000
  C   C464      1.0  0.27221  0.86606  0.56827  1.0000
  H   H805      1.0  0.18198  0.87330  0.56828  1.0000
  H   H806      1.0  0.18228  0.84211  0.56826  1.0000
  H   H807      1.0  0.29760  0.84147  0.56713  1.0000
  H   H808      1.0  0.29731  0.87263  0.56808  1.0000
  C   C465      1.0  0.46018  0.93820  0.59123  1.0000
  C   C466      1.0  0.46004  0.92140  0.58315  1.0000
  H   H809      1.0  0.49058  0.96488  0.53556  1.0000
  H   H810      1.0  0.43507  0.94481  0.59519  1.0000
  C   C467      1.0  0.38593  0.79364  0.70529  1.0000
  C   C468      1.0  0.22163  0.96179  0.52479  1.0000
  H   H811      1.0  0.41410  0.93278  0.63867  1.0000
  H   H812      1.0  0.18599  0.74758  0.87224  1.0000
  H   H813      1.0  0.47668  0.79092  0.80767  1.0000
  N   N24       1.0  0.43508  0.78634  0.77719  1.0000
  H   H814      1.0  0.30611  0.90742  0.68106  1.0000
  C   C469      1.0  0.43798  0.90574  0.72568  1.0000
  C   C470      1.0  0.15770  0.92416  0.51937  1.0000
  C   C471      1.0  0.40963  0.79608  0.79624  1.0000
  H   H815      1.0  0.26902  0.81787  0.50745  1.0000
  H   H816      1.0  0.02269  0.92852  0.92352  1.0000
  H   H817      1.0  0.25341  0.68099  0.94806  1.0000
  H   H818      1.0  0.16131  0.94617  0.54482  1.0000
  H   H819      1.0  0.33118  0.75926  0.54833  1.0000
  H   H820      1.0  0.41475  0.79241  0.81847  1.0000
  C   C472      1.0  0.43194  0.90413  0.66138  1.0000
  C   C473      1.0  0.24811  0.92737  0.50215  1.0000
  C   C474      1.0  0.41966  0.96606  0.65280  1.0000
  H   H821      1.0  0.19535  0.98341  0.48532  1.0000
  H   H822      1.0  0.38607  0.83761  0.81295  1.0000
  C   C475      1.0  0.14635  0.71122  0.57072  1.0000
  C   C476      1.0  0.01821  0.77156  0.59711  1.0000
  N   N25       1.0  0.20557  0.86962  0.77888  1.0000
  C   C477      1.0  0.21382  0.87053  0.74772  1.0000
  C   C478      1.0  0.21842  0.85294  0.79106  1.0000
  C   C479      1.0  0.16512  0.87081  0.78224  1.0000
  C   C480      1.0  0.22126  0.88407  0.79466  1.0000
  C   C481      1.0  0.26234  0.88623  0.79211  1.0000
  C   C482      1.0  0.20236  0.88706  0.73251  1.0000
  C   C483      1.0  0.14988  0.86649  0.81191  1.0000
  C   C484      1.0  0.25358  0.84501  0.77878  1.0000
  C   C485      1.0  0.26575  0.82962  0.79584  1.0000
  C   C486      1.0  0.27317  0.90342  0.80274  1.0000
  C   C487      1.0  0.21275  0.88651  0.70132  1.0000
  C   C488      1.0  0.10938  0.87001  0.81352  1.0000
  H   H823      1.0  0.20081  0.85997  0.73676  1.0000
  H   H824      1.0  0.24291  0.86873  0.74337  1.0000
  H   H825      1.0  0.22140  0.85387  0.81434  1.0000
  H   H826      1.0  0.19791  0.84320  0.78765  1.0000
  H   H827      1.0  0.15191  0.86232  0.76710  1.0000
  H   H828      1.0  0.15504  0.88371  0.77707  1.0000
  H   H829      1.0  0.20771  0.89610  0.78837  1.0000
  H   H830      1.0  0.21565  0.88291  0.81759  1.0000
  H   H831      1.0  0.27212  0.88526  0.77012  1.0000
  H   H832      1.0  0.27633  0.87661  0.80530  1.0000
  H   H833      1.0  0.17287  0.88926  0.73374  1.0000
  H   H834      1.0  0.21583  0.89796  0.74183  1.0000
  H   H835      1.0  0.16257  0.87398  0.82838  1.0000
  H   H836      1.0  0.15449  0.85305  0.81720  1.0000
  H   H837      1.0  0.24892  0.84075  0.75690  1.0000
  H   H838      1.0  0.27588  0.85393  0.77831  1.0000
  H   H839      1.0  0.28933  0.82347  0.78544  1.0000
  H   H840      1.0  0.27365  0.83330  0.81736  1.0000
  H   H841      1.0  0.24396  0.82035  0.79742  1.0000
  H   H842      1.0  0.30284  0.90447  0.80187  1.0000
  H   H843      1.0  0.26099  0.91353  0.78948  1.0000
  H   H844      1.0  0.26413  0.90522  0.82482  1.0000
  H   H845      1.0  0.20344  0.89825  0.69071  1.0000
  H   H846      1.0  0.24238  0.88541  0.69877  1.0000
  H   H847      1.0  0.20002  0.87578  0.69079  1.0000
  H   H848      1.0  0.10318  0.88350  0.80941  1.0000
  H   H849      1.0  0.09506  0.86229  0.79801  1.0000
  H   H850      1.0  0.09933  0.86689  0.83496  1.0000
  H   H851      1.0  0.08842  0.98041  0.97285  1.0000
  C   C489      1.0  0.49297  0.91305  0.57762  1.0000
  N   N26       1.0  0.42812  0.96348  0.49647  1.0000
  H   H852      1.0  0.27834  0.75962  0.51627  1.0000
  H   H853      1.0  0.06599  0.80339  0.95506  1.0000
  H   H854      1.0  0.01658  0.83673  0.61923  1.0000
  C   C490      1.0  0.11602  0.77693  0.94834  1.0000
  C   C491      1.0  0.14469  0.72028  0.67155  1.0000
  H   H855      1.0  0.01569  0.82127  0.59191  1.0000
  C   C492      1.0  0.20422  0.67682  0.69133  1.0000
  H   H856      1.0  0.12573  0.90340  0.53419  1.0000
  H   H857      1.0  0.44651  0.89399  0.71504  1.0000
  C   C493      1.0  0.16876  0.95926  0.49347  1.0000
  H   H858      1.0  0.30529  0.94805  0.89124  1.0000
  N   N27       1.0  0.19762  0.94986  0.50967  1.0000
  H   H859      1.0  0.39159  0.96371  0.55205  1.0000
  H   H860      1.0  0.41715  0.90344  0.64110  1.0000
  C   C494      1.0  0.16242  0.76845  0.89600  1.0000
  H   H861      1.0  0.33090  0.91123  0.94068  1.0000
  C   C495      1.0  0.28788  0.74282  0.63713  1.0000
  H   H862      1.0  0.25006  0.72025  0.66400  1.0000
  H   H863      1.0  0.23087  0.74751  0.63832  1.0000
  H   H864      1.0  0.29111  0.74352  0.66032  1.0000
  H   H865      1.0  0.30780  0.73366  0.62836  1.0000
  H   H866      1.0  0.29331  0.75538  0.62800  1.0000
  H   H867      1.0  0.17475  0.67739  0.69520  1.0000
  H   H868      1.0  0.37760  0.89293  0.70349  1.0000
  C   C496      1.0  0.37805  0.91801  0.68271  1.0000
  C   C497      1.0  0.31433  0.91177  0.96016  1.0000
  H   H869      1.0  0.37309  0.91754  0.49703  1.0000
  C   C498      1.0  0.30394  0.76297  0.55603  1.0000
  H   H870      1.0  0.22561  0.90942  0.94273  1.0000
  H   H871      1.0  0.17198  0.69300  0.65050  1.0000
  H   H872      1.0  0.40788  0.82012  0.77282  1.0000
  H   H873      1.0  0.47731  0.80466  0.77791  1.0000
  C   C499      1.0  0.30881  0.93521  0.90023  1.0000
  H   H874      1.0  0.40487  0.98353  0.58943  1.0000
  H   H875      1.0  0.17611  0.79215  0.93472  1.0000
  H   H876      1.0  0.30988  0.84193  0.51147  1.0000
  H   H877      1.0  0.18747  0.77574  0.89508  1.0000
  C   C500      1.0  0.27478  0.93067  0.91754  1.0000
  H   H878      1.0  0.27237  0.91687  0.91767  1.0000
  H   H879      1.0  0.36784  0.73761  0.79825  1.0000
  H   H880      1.0  0.45043  0.76366  0.79998  1.0000
  H   H881      1.0  0.33939  0.92700  0.86354  1.0000
  H   H882      1.0  0.29118  0.75175  0.56535  1.0000
  H   H883      1.0  0.25114  0.93526  0.90524  1.0000
  C   C501      1.0  0.27754  0.68240  0.96141  1.0000
  H   H884      1.0  0.21547  0.94114  0.94504  1.0000
  H   H885      1.0  0.29400  0.79533  0.53611  1.0000
  H   H886      1.0  0.33318  0.93508  0.91352  1.0000
  C   C502      1.0  0.24098  0.72025  0.64172  1.0000
  H   H887      1.0  0.49318  0.90006  0.57123  1.0000
  H   H888      1.0  0.37333  0.76569  0.77786  1.0000
  H   H889      1.0  0.21081  0.66638  0.67668  1.0000
  C   C503      1.0  0.43228  0.76768  0.78261  1.0000
  C   C504      1.0  0.47282  0.79144  0.78437  1.0000
  N   N28       1.0  0.41822  0.91908  0.67795  1.0000
  H   H890      1.0  0.41237  0.91300  0.51833  1.0000
  H   H891      1.0  0.21030  0.70869  0.59637  1.0000
  H   H892      1.0  0.36910  0.79321  0.74834  1.0000
  C   C505      1.0  0.47277  0.90362  0.65444  1.0000
  H   H893      1.0  0.30620  0.77257  0.57274  1.0000
  H   H894      1.0  0.31311  0.88865  0.70163  1.0000
  H   H895      1.0  0.43512  0.80363  0.74184  1.0000
  C   C506      1.0  0.24970  0.73783  0.62974  1.0000
  H   H896      1.0  0.38915  0.80744  0.70452  1.0000
  C   C507      1.0  0.15253  0.71100  0.60252  1.0000
  C   C508      1.0  0.26894  0.91773  0.47937  1.0000
  H   H897      1.0  0.29179  0.90317  0.95722  1.0000
  H   H898      1.0  0.12284  0.92169  0.55628  1.0000
  C   C509      1.0  0.30675  0.69013  0.94303  1.0000
  C   C510      1.0  0.39038  0.78705  0.73538  1.0000
  H   H899      1.0  0.13275  0.72002  0.61177  1.0000
  C   C511      1.0  0.26232  0.73727  0.96149  1.0000
  C   C512      1.0  0.20246  0.97431  0.54513  1.0000
  H   H900      1.0  0.37900  0.95109  0.67198  1.0000
  H   H901      1.0  0.39031  0.98237  0.51193  1.0000
  H   H902      1.0  0.38579  0.77337  0.73480  1.0000
  H   H903      1.0  0.24960  0.97949  0.57036  1.0000
  H   H904      1.0  0.44183  0.76047  0.76389  1.0000
  C   C513      1.0  0.39480  0.74192  0.79163  1.0000
  H   H905      1.0  0.19544  0.73215  0.67573  1.0000
  H   H906      1.0  0.21399  0.68881  0.63453  1.0000
  C   C514      1.0  0.42497  0.93452  0.66023  1.0000
  N   N29       1.0  0.27295  0.93759  0.94699  1.0000
  H   H907      1.0  0.32621  0.78372  0.51590  1.0000
  C   C515      1.0  0.29679  0.78591  0.51893  1.0000
  H   H908      1.0  0.38433  0.81919  0.83504  1.0000
  C   C516      1.0  0.06402  0.79315  0.97093  1.0000
  H   H909      1.0  0.38182  0.94868  0.50662  1.0000
  H   H910      1.0  0.24797  0.73792  0.60642  1.0000
  H   H911      1.0  0.35856  0.79080  0.69771  1.0000
  C   C517      1.0  0.42855  0.79038  0.74655  1.0000
  H   H912      1.0  0.25369  0.77258  0.54037  1.0000
  H   H913      1.0  0.11552  0.78711  0.93220  1.0000
  H   H914      1.0  0.23789  0.96906  0.50950  1.0000
  H   H915      1.0  0.44952  0.92940  0.48426  1.0000
  H   H916      1.0  0.41012  0.96433  0.63099  1.0000
  H   H917      1.0  0.29193  0.92334  0.86148  1.0000
  H   H918      1.0  0.32002  0.91017  0.88368  1.0000
  H   H919      1.0  0.30928  0.75876  0.47730  1.0000
  H   H920      1.0  0.40590  0.78753  0.69097  1.0000
  H   H921      1.0  0.32629  0.93770  0.96526  1.0000
  H   H922      1.0  0.13700  0.74099  0.70091  1.0000
  H   H923      1.0  0.16597  0.70277  0.55980  1.0000
  H   H924      1.0  0.21052  0.70352  0.69452  1.0000
  H   H925      1.0  0.27261  0.78855  0.95562  1.0000
  C   C518      1.0  0.42013  0.93193  0.48559  1.0000
  H   H926      1.0  0.28249  0.74648  0.95697  1.0000
  H   H927      1.0  0.25862  0.71095  0.63050  1.0000
  C   C519      1.0  0.41748  0.97711  0.51714  1.0000
  H   H928      1.0  0.24676  0.69251  0.67707  1.0000
  H   H929      1.0  0.14895  0.72413  0.56214  1.0000
  C   C520      1.0  0.22010  0.93975  0.48907  1.0000
  H   H930      1.0  0.09721  0.72919  0.69429  1.0000
  H   H931      1.0  0.41505  0.73669  0.80654  1.0000
  C   C521      1.0  0.12172  0.73441  0.68445  1.0000
  H   H932      1.0  0.36340  0.92296  0.66394  1.0000
  H   H933      1.0  0.48002  0.97437  0.48838  1.0000
  H   H934      1.0  0.17187  0.73847  0.64533  1.0000
  H   H935      1.0  0.15139  0.71130  0.68873  1.0000
  C   C522      1.0  0.17953  0.72717  0.65794  1.0000
  H   H936      1.0  0.11334  0.74364  0.66799  1.0000
  H   H937      1.0  0.41085  0.90428  0.73505  1.0000
  H   H938      1.0  0.13930  0.77726  0.89321  1.0000
  H   H939      1.0  0.26778  0.93418  0.51481  1.0000
  H   H940      1.0  0.29652  0.70215  0.93386  1.0000
  C   C523      1.0  0.21702  0.69345  0.67918  1.0000
  C   C524      1.0  0.02437  0.94148  0.93171  1.0000
  C   C525      1.0  0.27384  0.96625  0.97278  1.0000
  H   H941      1.0  0.44716  0.78287  0.73300  1.0000
  H   H942      1.0  0.05206  0.80158  0.62230  1.0000
  H   H943      1.0  0.20039  0.93322  0.54599  1.0000
  H   H944      1.0  0.13531  0.92909  0.50622  1.0000
  C   C526      1.0  0.48980  0.95517  0.51901  1.0000
  N   N30       1.0  0.20210  0.71523  0.64015  1.0000
  H   H945      1.0  0.11880  0.70697  0.56615  1.0000
  C   C527      1.0  0.16828  0.96672  0.96215  1.0000
  H   H946      1.0  0.02625  0.94095  0.95501  1.0000
  C   C528      1.0  0.18002  0.93869  0.53125  1.0000
  H   H947      1.0  0.38863  0.76527  0.81344  1.0000
  C   C529      1.0  0.31261  0.97867  0.49993  1.0000
  C   C530      1.0  0.20011  0.69725  0.64997  1.0000
  H   H948      1.0  0.19302  0.72933  0.60161  1.0000
  H   H949      1.0  0.21781  0.67422  0.71170  1.0000
  C   C531      1.0  0.32318  0.90144  0.69755  1.0000
  H   H950      1.0  0.33082  0.69280  0.95578  1.0000
  H   H951      1.0  0.23725  0.80052  0.97255  1.0000
  C   C532      1.0  0.41166  0.81547  0.79465  1.0000
  C   C533      1.0  0.05113  0.81532  0.62591  1.0000
  C   C534      1.0  0.36236  0.90033  0.68771  1.0000
  H   H952      1.0  0.32052  0.90881  0.71724  1.0000
  H   H953      1.0  0.12790  0.71368  0.65629  1.0000
  C   C535      1.0  0.46848  0.96196  0.49330  1.0000
  H   H954      1.0  0.35552  0.82125  0.80454  1.0000
  C   C536      1.0  0.17990  0.78292  0.95222  1.0000
  C   C537      1.0  0.19119  0.71627  0.60959  1.0000
  C   C538      1.0  0.23579  0.93480  0.95883  1.0000
  H   H955      1.0  0.40047  0.73708  0.77015  1.0000
  H   H956      1.0  0.43897  0.96556  0.55630  1.0000
  H   H957      1.0  0.25828  0.96199  0.92958  1.0000
  C   C539      1.0  0.47693  0.78985  0.87322  1.0000
  H   H958      1.0  0.43789  0.81971  0.80257  1.0000
  H   H959      1.0  0.22785  0.79687  0.51100  1.0000
  C   C540      1.0  0.28092  0.76974  0.53180  1.0000
  H   H960      1.0  0.22779  0.77022  0.93355  1.0000
  H   H961      1.0  0.31441  0.68160  0.92550  1.0000
  H   H962      1.0  0.99629  0.79261  0.53715  1.0000
  C   C541      1.0  0.39507  0.76106  0.79171  1.0000
  C   C542      1.0  0.40877  0.95133  0.67150  1.0000
  H   H963      1.0  0.28901  0.90914  0.48944  1.0000
  H   H964      1.0  0.36307  0.89318  0.66769  1.0000
  C   C543      1.0  0.14124  0.91380  0.54317  1.0000
  C   C544      1.0  0.30244  0.96717  0.47953  1.0000
  H   H965      1.0  0.17452  0.91550  0.50641  1.0000
  H   H966      1.0  0.41828  0.95403  0.69299  1.0000
  H   H967      1.0  0.13752  0.74936  0.87033  1.0000
  H   H968      1.0  0.09625  0.76774  0.94077  1.0000
  H   H969      1.0  0.23518  0.91798  0.51590  1.0000
  H   H970      1.0  0.36930  0.92629  0.70040  1.0000
  H   H971      1.0  0.30492  0.95914  0.93636  1.0000
  C   C545      1.0  0.22443  0.91640  0.96284  1.0000
  H   H972      1.0  0.42618  0.89219  0.67234  1.0000
  C   C546      1.0  0.41164  0.94706  0.50509  1.0000
  H   H973      1.0  0.24173  0.95476  0.53764  1.0000
  C   C547      1.0  0.01591  0.82310  0.61505  1.0000
  H   H974      1.0  0.23321  0.77692  0.49557  1.0000
  H   H975      1.0  0.28970  0.65604  0.95583  1.0000
  H   H976      1.0  0.04928  0.94701  0.92309  1.0000
  H   H977      1.0  0.45427  0.93652  0.65754  1.0000
  C   C548      1.0  0.43777  0.92099  0.70542  1.0000
  H   H978      1.0  0.46277  0.89744  0.76475  1.0000
  H   H979      1.0  0.22623  0.76966  0.97147  1.0000
  H   H980      1.0  0.24099  0.80050  0.93449  1.0000
  H   H981      1.0  0.48027  0.91422  0.64057  1.0000
  H   H982      1.0  0.16767  0.80083  0.48665  1.0000
  H   H983      1.0  0.06942  0.97598  0.92418  1.0000
  C   C549      1.0  0.40280  0.91601  0.49674  1.0000
  H   H984      1.0  0.05424  0.81774  0.64875  1.0000
  C   C550      1.0  0.41456  0.97214  0.54869  1.0000
  H   H985      1.0  0.15829  0.95483  0.95522  1.0000
  H   H986      1.0  0.47193  0.80214  0.88210  1.0000
  C   C551      1.0  0.32514  0.81719  0.49540  1.0000
  H   H987      1.0  0.18976  0.96755  0.56295  1.0000
  C   C552      1.0  0.30152  0.93012  0.96611  1.0000
  H   H988      1.0  0.29896  0.95424  0.48546  1.0000
  H   H989      1.0  0.42017  0.94310  0.52651  1.0000
  H   H990      1.0  0.07417  0.82086  0.61445  1.0000
  H   H991      1.0  0.46762  0.88637  0.61932  1.0000
  H   H992      1.0  0.47896  0.87638  0.65253  1.0000
  C   C553      1.0  0.24406  0.79273  0.95388  1.0000
  N   N31       1.0  0.15320  0.76903  0.95016  1.0000
  C   C554      1.0  0.22012  0.77744  0.95261  1.0000
  H   H993      1.0  0.17514  0.79018  0.97182  1.0000
  C   C555      1.0  0.27779  0.95633  0.94486  1.0000
  H   H994      1.0  0.41013  0.90530  0.48288  1.0000
  C   C556      1.0  0.28595  0.81144  0.49112  1.0000
  H   H995      1.0  0.18497  0.75092  0.92636  1.0000
  C   C557      1.0  0.28972  0.66510  0.97361  1.0000
  H   H996      1.0  0.16262  0.90825  0.55675  1.0000
  H   H997      1.0  0.18150  0.98194  0.53424  1.0000
  H   H998      1.0  0.49283  0.95936  0.60123  1.0000
  H   H999      1.0  0.19337  0.75106  0.48913  1.0000
  C   C558      1.0  0.21086  0.74034  0.48514  1.0000
  H   H1000     1.0  0.40737  0.97786  0.66108  1.0000
  C   C559      1.0  0.32700  0.83631  0.49456  1.0000
  C   C560      1.0  0.23996  0.79027  0.49249  1.0000
  H   H1001     1.0  0.34318  0.81221  0.47862  1.0000
  H   H1002     1.0  0.16682  0.92196  0.95960  1.0000
  C   C561      1.0  0.49296  0.94642  0.59460  1.0000
  C   C562      1.0  0.48345  0.88752  0.63894  1.0000
  C   C563      1.0  0.18594  0.91557  0.97417  1.0000
  N   N32       1.0  0.28009  0.79273  0.49210  1.0000
  H   H1003     1.0  0.46607  0.92463  0.70141  1.0000
  C   C564      1.0  0.22912  0.98643  0.55767  1.0000
  H   H1004     1.0  0.35512  0.84017  0.49793  1.0000
  H   H1005     1.0  0.04458  0.78379  0.96357  1.0000
  H   H1006     1.0  0.13674  0.73342  0.96242  1.0000
  H   H1007     1.0  0.45615  0.91983  0.76197  1.0000
  H   H1008     1.0  0.31596  0.98432  0.96482  1.0000
  C   C565      1.0  0.21034  0.71326  0.97403  1.0000
  C   C566      1.0  0.49040  0.75829  0.85037  1.0000
  H   H1009     1.0  0.49194  0.71976  0.93920  1.0000
  C   C567      1.0  0.15683  0.75777  0.97568  1.0000
  H   H1010     1.0  0.18373  0.75141  0.97595  1.0000
  H   H1011     1.0  0.10159  0.74772  0.97350  1.0000
  C   C568      1.0  0.10085  0.78484  0.97587  1.0000
  H   H1012     1.0  0.48901  0.90408  0.67388  1.0000
  H   H1013     1.0  0.49194  0.71091  0.97418  1.0000
  H   H1014     1.0  0.17815  0.90227  0.97635  1.0000
  Fe  Fe65      1.0  0.67318  0.01749  0.36092  1.0000
  S   S129      1.0  0.63825  0.04084  0.36432  1.0000
  H   H1015     1.0  0.65473  0.29806  0.47086  1.0000
  Fe  Fe66      1.0  0.70884  0.03114  0.30592  1.0000
  S   S130      1.0  0.67602  0.05512  0.30713  1.0000
  S   S131      1.0  0.75329  0.03063  0.27185  1.0000
  Fe  Fe67      1.0  0.68742  0.05529  0.35331  1.0000
  S   S132      1.0  0.69395  0.07903  0.37888  1.0000
  Fe  Fe68      1.0  0.62963  0.03872  0.31809  1.0000
  S   S133      1.0  0.57570  0.04579  0.29898  1.0000
  S   S134      1.0  0.72337  0.03227  0.35242  1.0000
  S   S135      1.0  0.66134  0.01448  0.31424  1.0000
  Fe  Fe69      1.0  0.81718  0.15636  0.35718  1.0000
  S   S136      1.0  0.76428  0.17004  0.35706  1.0000
  S   S137      1.0  0.82379  0.12801  0.35664  1.0000
  Fe  Fe70      1.0  0.85874  0.18850  0.34742  1.0000
  S   S138      1.0  0.80725  0.20440  0.34531  1.0000
  S   S139      1.0  0.91360  0.20074  0.34101  1.0000
  Fe  Fe71      1.0  0.79022  0.18970  0.38379  1.0000
  S   S140      1.0  0.75983  0.19809  0.42435  1.0000
  Fe  Fe72      1.0  0.78525  0.18353  0.31864  1.0000
  S   S141      1.0  0.74423  0.18238  0.28263  1.0000
  S   S142      1.0  0.84246  0.17464  0.38665  1.0000
  S   S143      1.0  0.83761  0.16903  0.31806  1.0000
  Fe  Fe73      1.0  0.82563  0.05496  0.07155  1.0000
  S   S144      1.0  0.77972  0.03792  0.06327  1.0000
  S   S145      1.0  0.82477  0.08352  0.06850  1.0000
  Fe  Fe74      1.0  0.87626  0.02573  0.08802  1.0000
  S   S146      1.0  0.83345  0.00674  0.08099  1.0000
  S   S147      1.0  0.92917  0.01540  0.10532  1.0000
  Fe  Fe75      1.0  0.82071  0.02097  0.04106  1.0000
  S   S148      1.0  0.81715  0.01154  0.99514  1.0000
  Fe  Fe76      1.0  0.79676  0.02512  0.10399  1.0000
  S   S149      1.0  0.75748  0.01713  0.13892  1.0000
  S   S150      1.0  0.86582  0.03912  0.04715  1.0000
  S   S151      1.0  0.84027  0.04308  0.11313  1.0000
  Fe  Fe77      1.0  0.70325  0.18968  0.04710  1.0000
  S   S152      1.0  0.65457  0.17317  0.04586  1.0000
  S   S153      1.0  0.73634  0.19572  0.00670  1.0000
  Fe  Fe78      1.0  0.70625  0.18719  0.11297  1.0000
  S   S154      1.0  0.65776  0.17092  0.11563  1.0000
  S   S155      1.0  0.74511  0.19370  0.14864  1.0000
  Fe  Fe79      1.0  0.68248  0.15718  0.07882  1.0000
  S   S156      1.0  0.68228  0.12862  0.07813  1.0000
  Fe  Fe80      1.0  0.63295  0.18807  0.08267  1.0000
  S   S157      1.0  0.57508  0.19884  0.08694  1.0000
  S   S158      1.0  0.73215  0.17236  0.07772  1.0000
  S   S159      1.0  0.68037  0.20566  0.08234  1.0000
  H   H1016     1.0  0.82664  0.18627  0.44351  1.0000
  C   C569      1.0  0.68160  0.14909  0.36834  1.0000
  H   H1017     1.0  0.86725  0.98912  0.12818  1.0000
  H   H1018     1.0  0.52276  0.21854  0.04393  1.0000
  H   H1019     1.0  0.49772  0.07239  0.42897  1.0000
  H   H1020     1.0  0.79747  0.11722  0.99780  1.0000
  C   C570      1.0  0.53179  0.18984  0.08265  1.0000
  C   C571      1.0  0.52709  0.17454  0.06906  1.0000
  H   H1021     1.0  0.66708  0.14310  0.41177  1.0000
  H   H1022     1.0  0.55033  0.16754  0.06141  1.0000
  C   C572      1.0  0.78485  0.09583  0.07105  1.0000
  C   C573      1.0  0.75101  0.08887  0.06789  1.0000
  C   C574      1.0  0.71982  0.09911  0.06984  1.0000
  C   C575      1.0  0.72216  0.11630  0.07551  1.0000
  C   C576      1.0  0.75598  0.12323  0.07892  1.0000
  C   C577      1.0  0.78720  0.11310  0.07614  1.0000
  H   H1023     1.0  0.74892  0.07563  0.06357  1.0000
  H   H1024     1.0  0.69376  0.09370  0.06683  1.0000
  H   H1025     1.0  0.75804  0.13640  0.08358  1.0000
  H   H1026     1.0  0.81333  0.11861  0.07819  1.0000
  C   C578      1.0  0.97048  0.02537  0.09882  1.0000
  H   H1027     1.0  0.76270  0.16184  0.01044  1.0000
  C   C579      1.0  0.97215  0.04032  0.08341  1.0000
  C   C580      1.0  0.65618  0.13859  0.99686  1.0000
  H   H1028     1.0  0.94777  0.04607  0.07522  1.0000
  C   C581      1.0  0.75381  0.21525  0.44842  1.0000
  H   H1029     1.0  0.93488  0.21162  0.40741  1.0000
  H   H1030     1.0  0.65653  0.27360  0.43992  1.0000
  H   H1031     1.0  0.80660  0.29546  0.00374  1.0000
  H   H1032     1.0  0.78215  0.23350  0.42398  1.0000
  H   H1033     1.0  0.60708  0.02695  0.41845  1.0000
  H   H1034     1.0  0.80614  0.15477  0.06422  1.0000
  C   C582      1.0  0.74568  0.18532  0.24533  1.0000
  C   C583      1.0  0.77578  0.19148  0.23117  1.0000
  C   C584      1.0  0.77496  0.19405  0.20170  1.0000
  C   C585      1.0  0.74423  0.19041  0.18589  1.0000
  C   C586      1.0  0.71435  0.18400  0.20000  1.0000
  C   C587      1.0  0.71512  0.18151  0.22947  1.0000
  H   H1035     1.0  0.79941  0.19460  0.24299  1.0000
  H   H1036     1.0  0.79821  0.19907  0.19109  1.0000
  H   H1037     1.0  0.69049  0.18115  0.18824  1.0000
  H   H1038     1.0  0.69164  0.17681  0.24011  1.0000
  C   C588      1.0  0.95758  0.19459  0.35238  1.0000
  C   C589      1.0  0.96399  0.18059  0.36966  1.0000
  N   N33       1.0  0.70040  0.03931  0.45702  1.0000
  H   H1039     1.0  0.94173  0.17299  0.37635  1.0000
  H   H1040     1.0  0.87637  0.24473  0.46932  1.0000
  C   C590      1.0  0.75145  0.02818  0.23455  1.0000
  C   C591      1.0  0.77782  0.03571  0.21754  1.0000
  C   C592      1.0  0.77951  0.03288  0.18821  1.0000
  C   C593      1.0  0.75532  0.02212  0.17551  1.0000
  C   C594      1.0  0.72858  0.01483  0.19243  1.0000
  C   C595      1.0  0.72650  0.01789  0.22168  1.0000
  H   H1041     1.0  0.79736  0.04364  0.22722  1.0000
  H   H1042     1.0  0.79996  0.03878  0.17557  1.0000
  H   H1043     1.0  0.70959  0.00653  0.18294  1.0000
  H   H1044     1.0  0.70628  0.01186  0.23443  1.0000
  C   C596      1.0  0.73029  0.09245  0.37247  1.0000
  C   C597      1.0  0.73218  0.10751  0.38750  1.0000
  C   C598      1.0  0.76039  0.11864  0.38251  1.0000
  C   C599      1.0  0.78713  0.11470  0.36265  1.0000
  C   C600      1.0  0.78548  0.09952  0.34796  1.0000
  C   C601      1.0  0.75695  0.08851  0.35258  1.0000
  H   H1045     1.0  0.71182  0.11058  0.40310  1.0000
  H   H1046     1.0  0.76187  0.13014  0.39436  1.0000
  H   H1047     1.0  0.80631  0.09628  0.33282  1.0000
  H   H1048     1.0  0.75583  0.07692  0.34096  1.0000
  C   C602      1.0  0.61816  0.10767  0.32935  1.0000
  C   C603      1.0  0.53765  0.03529  0.31183  1.0000
  C   C604      1.0  0.54121  0.02173  0.33044  1.0000
  C   C605      1.0  0.67870  0.27545  0.45502  1.0000
  H   H1049     1.0  0.56767  0.01719  0.33651  1.0000
  H   H1050     1.0  0.81202  0.00425  0.20773  1.0000
  H   H1051     1.0  0.66050  0.10860  0.29853  1.0000
  H   H1052     1.0  0.81232  0.14790  0.11553  1.0000
  C   C606      1.0  0.66726  0.15413  0.39736  1.0000
  C   C607      1.0  0.81495  0.29235  0.98191  1.0000
  H   H1053     1.0  0.61842  0.10845  0.10252  1.0000
  C   C608      1.0  0.55141  0.08731  0.40278  1.0000
  N   N34       1.0  0.80952  0.13933  0.17440  1.0000
  C   C609      1.0  0.77341  0.13306  0.16541  1.0000
  C   C610      1.0  0.80789  0.14229  0.20582  1.0000
  C   C611      1.0  0.81953  0.15557  0.16006  1.0000
  C   C612      1.0  0.80640  0.15862  0.12950  1.0000
  C   C613      1.0  0.74049  0.14406  0.17433  1.0000
  C   C614      1.0  0.82382  0.17418  0.11685  1.0000
  C   C615      1.0  0.70644  0.13880  0.15938  1.0000
  H   H1054     1.0  0.76910  0.12026  0.17417  1.0000
  H   H1055     1.0  0.77221  0.13163  0.14222  1.0000
  H   H1056     1.0  0.79802  0.13095  0.21700  1.0000
  H   H1057     1.0  0.78827  0.15263  0.21084  1.0000
  H   H1058     1.0  0.80874  0.16653  0.17215  1.0000
  H   H1059     1.0  0.77691  0.16084  0.12926  1.0000
  H   H1060     1.0  0.73537  0.14286  0.19732  1.0000
  H   H1061     1.0  0.74504  0.15739  0.16939  1.0000
  H   H1062     1.0  0.81572  0.11464  0.13067  1.0000
  H   H1063     1.0  0.85281  0.17169  0.11259  1.0000
  H   H1064     1.0  0.81044  0.17780  0.09688  1.0000
  H   H1065     1.0  0.70017  0.12567  0.16495  1.0000
  H   H1066     1.0  0.68353  0.14704  0.16605  1.0000
  H   H1067     1.0  0.70966  0.14002  0.13618  1.0000
  H   H1068     1.0  0.82912  0.14090  0.26303  1.0000
  C   C616      1.0  0.72384  0.22871  0.98743  1.0000
  H   H1069     1.0  0.84094  0.01598  0.16528  1.0000
  C   C617      1.0  0.69511  0.13610  0.00626  1.0000
  H   H1070     1.0  0.73382  0.29524  0.00163  1.0000
  H   H1071     1.0  0.70183  0.22937  0.00241  1.0000
  C   C618      1.0  0.84729  0.16474  0.46545  1.0000
  H   H1072     1.0  0.62986  0.13887  0.35782  1.0000
  H   H1073     1.0  0.85244  0.12882  0.12475  1.0000
  C   C619      1.0  0.98395  0.21419  0.43000  1.0000
  C   C620      1.0  0.98787  0.15980  0.28147  1.0000
  C   C621      1.0  0.63431  0.04608  0.44254  1.0000
  H   H1074     1.0  0.87960  0.04515  0.16462  1.0000
  H   H1075     1.0  0.69491  0.02402  0.10512  1.0000
  N   N35       1.0  0.66651  0.13062  0.32466  1.0000
  H   H1076     1.0  0.68194  0.05102  0.41819  1.0000
  C   C622      1.0  0.81252  0.14827  0.02022  1.0000
  H   H1077     1.0  0.77493  0.12404  0.29932  1.0000
  C   C623      1.0  0.52208  0.07762  0.38806  1.0000
  H   H1078     1.0  0.63691  0.18184  0.27776  1.0000
  H   H1079     1.0  0.66321  0.12407  0.36905  1.0000
  C   C624      1.0  0.84158  0.11902  0.13886  1.0000
  C   C625      1.0  0.75826  0.13111  0.28376  1.0000
  H   H1080     1.0  0.70956  0.14435  0.37124  1.0000
  H   H1081     1.0  0.87043  0.09962  0.11551  1.0000
  C   C626      1.0  0.97423  0.02232  0.00791  1.0000
  H   H1082     1.0  0.63966  0.15961  0.39571  1.0000
  H   H1083     1.0  0.61513  0.12244  0.13197  1.0000
  H   H1084     1.0  0.65346  0.03228  0.09045  1.0000
  H   H1085     1.0  0.59066  0.10318  0.13267  1.0000
  H   H1086     1.0  0.69888  0.14387  0.02518  1.0000
  C   C627      1.0  0.77180  0.14858  0.01336  1.0000
  H   H1087     1.0  0.54125  0.09997  0.40894  1.0000
  H   H1088     1.0  0.58129  0.03549  0.44733  1.0000
  H   H1089     1.0  0.73158  0.02113  0.43324  1.0000
  H   H1090     1.0  0.85241  0.24922  0.38024  1.0000
  H   H1091     1.0  0.80794  0.03246  0.42769  1.0000
  H   H1092     1.0  0.75767  0.14445  0.03278  1.0000
  H   H1093     1.0  0.73818  0.04970  0.40717  1.0000
  H   H1094     1.0  0.82342  0.23164  0.38468  1.0000
  H   H1095     1.0  0.81998  0.15967  0.46853  1.0000
  C   C628      1.0  0.82018  0.15950  0.04521  1.0000
  N   N36       1.0  0.85976  0.99378  0.18764  1.0000
  H   H1096     1.0  0.89308  0.23825  0.41643  1.0000
  H   H1097     1.0  0.84948  0.15942  0.04943  1.0000
  H   H1098     1.0  0.52698  0.04534  0.41405  1.0000
  H   H1099     1.0  0.85102  0.00452  0.22907  1.0000
  C   C629      1.0  0.76777  0.23115  0.44335  1.0000
  H   H1100     1.0  0.54047  0.23636  0.02567  1.0000
  C   C630      1.0  0.52056  0.22623  0.02444  1.0000
  C   C631      1.0  0.76148  0.08896  0.98586  1.0000
  H   H1101     1.0  0.72997  0.99249  0.42075  1.0000
  H   H1102     1.0  0.82876  0.15283  0.00221  1.0000
  H   H1103     1.0  0.75025  0.31206  0.44898  1.0000
  H   H1104     1.0  0.82613  0.99213  0.27164  1.0000
  H   H1105     1.0  0.50413  0.21054  0.10294  1.0000
  S   S160      1.0  0.65808  0.99826  0.39563  1.0000
  C   C632      1.0  0.85162  0.23575  0.38617  1.0000
  H   H1106     1.0  0.93085  0.15492  0.28590  1.0000
  H   H1107     1.0  0.78302  0.99452  0.25457  1.0000
  C   C633      1.0  0.50315  0.04082  0.30366  1.0000
  C   C634      1.0  0.84447  0.18375  0.46157  1.0000
  H   H1108     1.0  0.88413  0.00932  0.15527  1.0000
  C   C635      1.0  0.75553  0.04516  0.42456  1.0000
  H   H1109     1.0  0.68622  0.30105  0.44223  1.0000
  C   C636      1.0  0.51043  0.01406  0.34139  1.0000
  H   H1110     1.0  0.67994  0.01442  0.46437  1.0000
  H   H1111     1.0  0.62394  0.05611  0.42817  1.0000
  H   H1112     1.0  0.82206  0.13543  0.02586  1.0000
  C   C637      1.0  0.67354  0.04133  0.43352  1.0000
  C   C638      1.0  0.76808  0.11985  0.99620  1.0000
  C   C639      1.0  0.70611  0.13217  0.31826  1.0000
  C   C640      1.0  0.64353  0.14103  0.30484  1.0000
  C   C641      1.0  0.65202  0.15988  0.30248  1.0000
  C   C642      1.0  0.71847  0.12749  0.28804  1.0000
  C   C643      1.0  0.63010  0.16836  0.27909  1.0000
  H   H1113     1.0  0.71538  0.14508  0.32196  1.0000
  H   H1114     1.0  0.78051  0.02542  0.39895  1.0000
  H   H1115     1.0  0.64463  0.13563  0.28329  1.0000
  H   H1116     1.0  0.68071  0.16193  0.29756  1.0000
  H   H1117     1.0  0.69438  0.03252  0.06996  1.0000
  H   H1118     1.0  0.70326  0.13485  0.27202  1.0000
  H   H1119     1.0  0.63643  0.16253  0.25842  1.0000
  H   H1120     1.0  0.60086  0.16745  0.28348  1.0000
  H   H1121     1.0  0.76677  0.12725  0.26231  1.0000
  H   H1122     1.0  0.61478  0.14052  0.31121  1.0000
  N   N37       1.0  0.67928  0.07085  0.14578  1.0000
  C   C644      1.0  0.67791  0.05341  0.13361  1.0000
  C   C645      1.0  0.66833  0.07080  0.17664  1.0000
  C   C646      1.0  0.65213  0.08168  0.13004  1.0000
  C   C647      1.0  0.71574  0.07839  0.14187  1.0000
  C   C648      1.0  0.74769  0.06861  0.15511  1.0000
  C   C649      1.0  0.69126  0.05137  0.10270  1.0000
  C   C650      1.0  0.64840  0.10021  0.13963  1.0000
  C   C651      1.0  0.67740  0.05481  0.19428  1.0000
  C   C652      1.0  0.67024  0.05764  0.22565  1.0000
  C   C653      1.0  0.78336  0.07648  0.14696  1.0000
  C   C654      1.0  0.68294  0.03398  0.09149  1.0000
  C   C655      1.0  0.61610  0.10902  0.12583  1.0000
  H   H1123     1.0  0.64997  0.04872  0.13521  1.0000
  H   H1124     1.0  0.69458  0.04429  0.14584  1.0000
  H   H1125     1.0  0.68003  0.08168  0.18762  1.0000
  H   H1126     1.0  0.63864  0.07255  0.17895  1.0000
  H   H1127     1.0  0.62508  0.07597  0.13130  1.0000
  H   H1128     1.0  0.65883  0.08247  0.10731  1.0000
  H   H1129     1.0  0.72159  0.08020  0.11913  1.0000
  H   H1130     1.0  0.71621  0.09115  0.15109  1.0000
  H   H1131     1.0  0.74879  0.05544  0.14793  1.0000
  H   H1132     1.0  0.74565  0.06895  0.17840  1.0000
  H   H1133     1.0  0.67865  0.06053  0.08805  1.0000
  H   H1134     1.0  0.72080  0.05291  0.10159  1.0000
  H   H1135     1.0  0.67256  0.10717  0.13302  1.0000
  H   H1136     1.0  0.64507  0.10131  0.16276  1.0000
  H   H1137     1.0  0.66033  0.04432  0.18753  1.0000
  H   H1138     1.0  0.70579  0.05074  0.19183  1.0000
  H   H1139     1.0  0.67566  0.04581  0.23751  1.0000
  H   H1140     1.0  0.68821  0.06734  0.23396  1.0000
  H   H1141     1.0  0.64177  0.06149  0.22945  1.0000
  H   H1142     1.0  0.78776  0.07571  0.12387  1.0000
  H   H1143     1.0  0.78376  0.08980  0.15349  1.0000
  H   H1144     1.0  0.80579  0.06958  0.15751  1.0000
  C   C656      1.0  0.73571  0.03307  0.44467  1.0000
  H   H1145     1.0  0.71511  0.11393  0.28416  1.0000
  H   H1146     1.0  0.85822  0.09351  0.15073  1.0000
  C   C657      1.0  0.83799  0.15192  0.25064  1.0000
  H   H1147     1.0  0.92469  0.22881  0.45150  1.0000
  C   C658      1.0  0.95073  0.16385  0.29396  1.0000
  H   H1148     1.0  0.58421  0.08585  0.33147  1.0000
  H   H1149     1.0  0.50564  0.01957  0.43703  1.0000
  H   H1150     1.0  0.84923  0.15697  0.16013  1.0000
  C   C659      1.0  0.84370  0.14727  0.21978  1.0000
  H   H1151     1.0  0.85544  0.15823  0.20889  1.0000
  H   H1152     1.0  0.83265  0.11481  0.18334  1.0000
  C   C660      1.0  0.83777  0.12576  0.16925  1.0000
  H   H1153     1.0  0.76312  0.14473  0.28609  1.0000
  H   H1154     1.0  0.82087  0.18502  0.13134  1.0000
  H   H1155     1.0  0.64461  0.16636  0.32231  1.0000
  H   H1156     1.0  0.90275  0.01833  0.20803  1.0000
  H   H1157     1.0  0.86354  0.13669  0.21940  1.0000
  H   H1158     1.0  0.89499  0.10767  0.14485  1.0000
  H   H1159     1.0  0.86490  0.13023  0.17470  1.0000
  C   C661      1.0  0.86471  0.21464  0.42517  1.0000
  C   C662      1.0  0.65871  0.13520  0.35506  1.0000
  C   C663      1.0  0.86795  0.10407  0.13758  1.0000
  H   H1160     1.0  0.68265  0.16052  0.35514  1.0000
  H   H1161     1.0  0.72192  0.12411  0.33304  1.0000
  H   H1162     1.0  0.91212  0.04702  0.19212  1.0000
  C   C664      1.0  0.65710  0.11242  0.32087  1.0000
  H   H1163     1.0  0.75727  0.11689  0.01752  1.0000
  H   H1164     1.0  0.79944  0.26626  0.98701  1.0000
  H   H1165     1.0  0.68492  0.16371  0.40650  1.0000
  H   H1166     1.0  0.84779  0.24090  0.43011  1.0000
  H   H1167     1.0  0.67323  0.02973  0.42062  1.0000
  C   C665      1.0  0.74506  0.21402  0.98577  1.0000
  H   H1168     1.0  0.94990  0.01592  0.00054  1.0000
  H   H1169     1.0  0.94744  0.19391  0.42929  1.0000
  C   C666      1.0  0.50581  0.03828  0.40325  1.0000
  H   H1170     1.0  0.63037  0.08160  0.34043  1.0000
  H   H1171     1.0  0.81767  0.16225  0.25283  1.0000
  H   H1172     1.0  0.92148  0.03316  0.16309  1.0000
  H   H1173     1.0  0.77355  0.25636  0.45886  1.0000
  C   C667      1.0  0.83658  0.99686  0.21348  1.0000
  H   H1174     1.0  0.86368  0.15618  0.25960  1.0000
  H   H1175     1.0  0.86859  0.22853  0.37095  1.0000
  H   H1176     1.0  0.86062  0.02964  0.20694  1.0000
  H   H1177     1.0  0.57471  0.08878  0.38828  1.0000
  H   H1178     1.0  0.67308  0.26800  0.47435  1.0000
  C   C668      1.0  0.78849  0.03651  0.41124  1.0000
  H   H1179     1.0  0.80197  0.04539  0.39671  1.0000
  H   H1180     1.0  0.61774  0.08488  0.30405  1.0000
  N   N38       1.0  0.88290  0.21017  0.45259  1.0000
  H   H1181     1.0  0.51344  0.00363  0.35591  1.0000
  N   N39       1.0  0.76094  0.13805  0.98875  1.0000
  H   H1182     1.0  0.97273  0.02314  0.03122  1.0000
  C   C669      1.0  0.94563  0.20779  0.42827  1.0000
  H   H1183     1.0  0.94167  0.17678  0.28817  1.0000
  C   C670      1.0  0.89993  0.03815  0.17725  1.0000
  H   H1184     1.0  0.53407  0.06547  0.38141  1.0000
  C   C671      1.0  0.98699  0.20432  0.34407  1.0000
  H   H1185     1.0  0.87613  0.20693  0.40767  1.0000
  H   H1186     1.0  0.63786  0.13533  0.01454  1.0000
  H   H1187     1.0  0.76533  0.05606  0.43643  1.0000
  H   H1188     1.0  0.67596  0.10417  0.33312  1.0000
  H   H1189     1.0  0.59825  0.11427  0.31573  1.0000
  C   C672      1.0  0.60864  0.03139  0.44051  1.0000
  H   H1190     1.0  0.56090  0.08038  0.42179  1.0000
  H   H1191     1.0  0.70413  0.27068  0.44531  1.0000
  C   C673      1.0  0.88236  0.02397  0.19370  1.0000
  C   C674      1.0  0.86640  0.01059  0.17399  1.0000
  H   H1192     1.0  0.75540  0.03009  0.46153  1.0000
  C   C675      1.0  0.61242  0.08887  0.32608  1.0000
  H   H1193     1.0  0.93456  0.21113  0.47281  1.0000
  C   C676      1.0  0.86555  0.23330  0.41611  1.0000
  H   H1194     1.0  0.61212  0.11085  0.35160  1.0000
  H   H1195     1.0  0.98238  0.21528  0.33095  1.0000
  H   H1196     1.0  0.95127  0.16270  0.31727  1.0000
  H   H1197     1.0  0.83585  0.21137  0.42603  1.0000
  H   H1198     1.0  0.84529  0.27035  0.99615  1.0000
  H   H1199     1.0  0.98535  0.16004  0.25820  1.0000
  H   H1200     1.0  0.53563  0.01476  0.40805  1.0000
  C   C677      1.0  0.68127  0.29406  0.46209  1.0000
  H   H1201     1.0  0.52737  0.21824  0.00603  1.0000
  C   C678      1.0  0.92191  0.21503  0.45252  1.0000
  C   C679      1.0  0.82350  0.27353  0.98106  1.0000
  H   H1202     1.0  0.69880  0.12273  0.01228  1.0000
  C   C680      1.0  0.70532  0.05520  0.47361  1.0000
  H   H1203     1.0  0.98409  0.22806  0.42797  1.0000
  H   H1204     1.0  0.74746  0.08669  0.00621  1.0000
  H   H1205     1.0  0.81104  0.17262  0.04084  1.0000
  H   H1206     1.0  0.89314  0.18492  0.43722  1.0000
  C   C681      1.0  0.72620  0.30874  0.00194  1.0000
  H   H1207     1.0  0.97404  0.03519  0.99883  1.0000
  H   H1208     1.0  0.67204  0.07444  0.45196  1.0000
  H   H1209     1.0  0.79082  0.08676  0.98880  1.0000
  H   H1210     1.0  0.85952  0.15874  0.44652  1.0000
  H   H1211     1.0  0.63282  0.05139  0.46404  1.0000
  C   C682      1.0  0.76252  0.24418  0.46317  1.0000
  H   H1212     1.0  0.71614  0.07222  0.43738  1.0000
  C   C683      1.0  0.71751  0.31323  0.03252  1.0000
  H   H1213     1.0  0.69528  0.30536  0.04039  1.0000
  C   C684      1.0  0.88204  0.19133  0.45623  1.0000
  C   C685      1.0  0.70067  0.07207  0.45730  1.0000
  H   H1214     1.0  0.70862  0.09868  0.46280  1.0000
  H   H1215     1.0  0.51488  0.08463  0.36857  1.0000
  C   C686      1.0  0.72169  0.14149  0.98284  1.0000
  H   H1216     1.0  0.61742  0.02068  0.45398  1.0000
  H   H1217     1.0  0.81245  0.98995  0.16257  1.0000
  H   H1218     1.0  0.70115  0.31090  0.98984  1.0000
  H   H1219     1.0  0.90168  0.98828  0.21813  1.0000
  H   H1220     1.0  0.93789  0.00068  0.18085  1.0000
  H   H1221     1.0  0.65071  0.15187  0.99079  1.0000
  C   C687      1.0  0.50095  0.19873  0.09230  1.0000
  H   H1222     1.0  0.89953  0.18727  0.47410  1.0000
  H   H1223     1.0  0.50032  0.05105  0.28875  1.0000
  C   C688      1.0  0.50880  0.02015  0.41379  1.0000
  H   H1224     1.0  0.51140  0.03833  0.38040  1.0000
  H   H1225     1.0  0.83351  0.21871  0.47308  1.0000
  H   H1226     1.0  0.65040  0.13035  0.97877  1.0000
  H   H1227     1.0  0.74131  0.31084  0.04608  1.0000
  C   C689      1.0  0.73420  0.21275  0.47357  1.0000
  H   H1228     1.0  0.71656  0.15517  0.97974  1.0000
  H   H1229     1.0  0.73521  0.28952  0.47646  1.0000
  H   H1230     1.0  0.84027  0.29883  0.97683  1.0000
  C   C690      1.0  0.75624  0.31990  0.98996  1.0000
  C   C691      1.0  0.71288  0.08683  0.47488  1.0000
  C   C692      1.0  0.92816  0.98777  0.17789  1.0000
  C   C693      1.0  0.67384  0.98770  0.42685  1.0000
  C   C694      1.0  0.68671  0.02579  0.47654  1.0000
  H   H1231     1.0  0.77807  0.32038  0.00581  1.0000
  Fe  Fe81      1.0  0.71390  0.27083  0.61933  1.0000
  S   S161      1.0  0.66416  0.28718  0.62107  1.0000
  S   S162      1.0  0.75386  0.26747  0.65585  1.0000
  Fe  Fe82      1.0  0.70798  0.26616  0.55402  1.0000
  S   S163      1.0  0.65780  0.28280  0.55224  1.0000
  S   S164      1.0  0.73827  0.25864  0.51288  1.0000
  Fe  Fe83      1.0  0.68618  0.29968  0.58235  1.0000
  H   H1232     1.0  0.72692  0.30736  0.70866  1.0000
  Fe  Fe84      1.0  0.63949  0.26895  0.59102  1.0000
  S   S165      1.0  0.58266  0.25937  0.60053  1.0000
  S   S166      1.0  0.73710  0.28438  0.58172  1.0000
  S   S167      1.0  0.68845  0.25133  0.59172  1.0000
  Fe  Fe85      1.0  0.82024  0.30414  0.86558  1.0000
  S   S168      1.0  0.77082  0.28893  0.86353  1.0000
  H   H1233     1.0  0.75182  0.07978  0.97033  1.0000
  Fe  Fe86      1.0  0.86962  0.27411  0.85439  1.0000
  S   S169      1.0  0.82262  0.25639  0.85119  1.0000
  S   S170      1.0  0.92762  0.26389  0.84864  1.0000
  Fe  Fe87      1.0  0.79566  0.27679  0.82507  1.0000
  S   S171      1.0  0.75307  0.27268  0.79088  1.0000
  Fe  Fe88      1.0  0.80018  0.26939  0.88972  1.0000
  S   S172      1.0  0.76504  0.25963  0.92656  1.0000
  S   S173      1.0  0.84382  0.29351  0.82552  1.0000
  S   S174      1.0  0.84856  0.28573  0.89452  1.0000
  C   C695      1.0  0.97027  0.27312  0.85500  1.0000
  H   H1234     1.0  0.52250  0.28270  0.68006  1.0000
  C   C696      1.0  0.75361  0.10681  0.97532  1.0000
  C   C697      1.0  0.49814  0.28204  0.55869  1.0000
  H   H1235     1.0  0.94943  0.29577  0.87388  1.0000
  C   C698      1.0  0.75269  0.26944  0.69334  1.0000
  C   C699      1.0  0.72058  0.27086  0.70875  1.0000
  C   C700      1.0  0.72131  0.27188  0.73847  1.0000
  C   C701      1.0  0.75406  0.27174  0.75325  1.0000
  C   C702      1.0  0.78615  0.27074  0.73778  1.0000
  C   C703      1.0  0.78540  0.26949  0.70811  1.0000
  H   H1236     1.0  0.69520  0.27080  0.69782  1.0000
  H   H1237     1.0  0.69629  0.27265  0.75014  1.0000
  H   H1238     1.0  0.81156  0.27060  0.74869  1.0000
  H   H1239     1.0  0.81045  0.26839  0.69650  1.0000
  C   C704      1.0  0.57970  0.28332  0.67126  1.0000
  C   C705      1.0  0.53903  0.26470  0.58708  1.0000
  C   C706      1.0  0.53342  0.27733  0.56687  1.0000
  C   C707      1.0  0.50882  0.25664  0.59842  1.0000
  H   H1240     1.0  0.55622  0.28363  0.55781  1.0000
  H   H1241     1.0  0.71372  0.22354  0.51250  1.0000
  C   C708      1.0  0.75906  0.24196  0.94955  1.0000
  H   H1242     1.0  0.77428  0.29019  0.51381  1.0000
  H   H1243     1.0  0.80281  0.22675  0.93331  1.0000
  C   C709      1.0  0.70388  0.25283  0.85440  1.0000
  H   H1244     1.0  0.85841  0.25530  0.51617  1.0000
  H   H1245     1.0  0.70685  0.29802  0.95016  1.0000
  C   C710      1.0  0.75782  0.31651  0.76040  1.0000
  C   C711      1.0  0.74301  0.24165  0.48838  1.0000
  H   H1246     1.0  0.78051  0.20340  0.89368  1.0000
  H   H1247     1.0  0.67010  0.29943  0.90777  1.0000
  H   H1248     1.0  0.57675  0.25652  0.67964  1.0000
  H   H1249     1.0  0.79189  0.30364  0.48703  1.0000
  H   H1250     1.0  0.53509  0.27502  0.64680  1.0000
  C   C712      1.0  0.54888  0.32003  0.60473  1.0000
  C   C713      1.0  0.97343  0.28879  0.86776  1.0000
  C   C714      1.0  0.69655  0.21055  0.79421  1.0000
  H   H1251     1.0  0.79269  0.16910  0.97124  1.0000
  C   C715      1.0  0.52129  0.31284  0.69978  1.0000
  H   H1252     1.0  0.82162  0.24489  0.49999  1.0000
  C   C716      1.0  0.69251  0.00979  0.52284  1.0000
  H   H1253     1.0  0.69046  0.24930  0.83461  1.0000
  H   H1254     1.0  0.74196  0.08548  0.47972  1.0000
  C   C717      1.0  0.86297  0.21807  0.47728  1.0000
  H   H1255     1.0  0.72336  0.21708  0.91713  1.0000
  C   C718      1.0  0.77790  0.31449  0.66869  1.0000
  C   C719      1.0  0.73070  0.24248  0.96938  1.0000
  H   H1256     1.0  0.67031  0.21744  0.79336  1.0000
  C   C720      1.0  0.81083  0.99275  0.97537  1.0000
  H   H1257     1.0  0.81864  0.00533  0.93557  1.0000
  H   H1258     1.0  0.77192  0.13546  0.94424  1.0000
  H   H1259     1.0  0.56904  0.26964  0.71025  1.0000
  H   H1260     1.0  0.71372  0.25363  0.97079  1.0000
  H   H1261     1.0  0.63723  0.19613  0.93788  1.0000
  H   H1262     1.0  0.78829  0.30741  0.72502  1.0000
  H   H1263     1.0  0.81910  0.21569  0.84017  1.0000
  H   H1264     1.0  0.76819  0.19831  0.85825  1.0000
  C   C721      1.0  0.81725  0.30372  0.62861  1.0000
  H   H1265     1.0  0.76306  0.28840  0.96387  1.0000
  H   H1266     1.0  0.66121  0.02998  0.48686  1.0000
  C   C722      1.0  0.84882  0.24297  0.50900  1.0000
  H   H1267     1.0  0.72303  0.20058  0.47782  1.0000
  N   N40       1.0  0.72145  0.31501  0.48867  1.0000
  H   H1268     1.0  0.72409  0.23039  0.81438  1.0000
  H   H1269     1.0  0.58436  0.30736  0.63392  1.0000
  H   H1270     1.0  0.73275  0.25491  0.85024  1.0000
  H   H1271     1.0  0.83373  0.16020  0.93223  1.0000
  H   H1272     1.0  0.66846  0.23800  0.87885  1.0000
  H   H1273     1.0  0.67528  0.18437  0.92415  1.0000
  N   N41       1.0  0.53026  0.30208  0.64824  1.0000
  H   H1274     1.0  0.71197  0.00459  0.53841  1.0000
  H   H1275     1.0  0.79572  0.29441  0.93909  1.0000
  C   C723      1.0  0.73930  0.31997  0.70930  1.0000
  H   H1276     1.0  0.67583  0.31848  0.51664  1.0000
  H   H1277     1.0  0.78968  0.99729  0.78401  1.0000
  H   H1278     1.0  0.84174  0.30472  0.64165  1.0000
  C   C724      1.0  0.54005  0.28542  0.66175  1.0000
  H   H1279     1.0  0.81073  0.13791  0.96477  1.0000
  H   H1280     1.0  0.70160  0.19986  0.85032  1.0000
  C   C725      1.0  0.72878  0.22580  0.49335  1.0000
  C   C726      1.0  0.81305  0.99349  0.94572  1.0000
  C   C727      1.0  0.78070  0.22739  0.94818  1.0000
  C   C728      1.0  0.55734  0.30515  0.62496  1.0000
  H   H1281     1.0  0.76570  0.23273  0.88761  1.0000
  C   C729      1.0  0.77346  0.21350  0.96591  1.0000
  C   C730      1.0  0.74780  0.31500  0.51268  1.0000
  H   H1282     1.0  0.67246  0.01784  0.53409  1.0000
  H   H1283     1.0  0.69189  0.19692  0.79668  1.0000
  C   C731      1.0  0.78229  0.14234  0.96267  1.0000
  H   H1284     1.0  0.77024  0.30118  0.67153  1.0000
  H   H1285     1.0  0.65825  0.22195  0.91590  1.0000
  H   H1286     1.0  0.83411  0.19923  0.86374  1.0000
  H   H1287     1.0  0.70983  0.31028  0.65907  1.0000
  H   H1288     1.0  0.58903  0.29462  0.68228  1.0000
  C   C732      1.0  0.81821  0.21114  0.86232  1.0000
  H   H1289     1.0  0.83117  0.18896  0.48067  1.0000
  H   H1290     1.0  0.75451  0.16581  0.94924  1.0000
  C   C733      1.0  0.68788  0.31003  0.91245  1.0000
  C   C734      1.0  0.78209  0.16121  0.95420  1.0000
  H   H1291     1.0  0.71089  0.21264  0.77392  1.0000
  H   H1292     1.0  0.59725  0.28125  0.65256  1.0000
  H   H1293     1.0  0.70666  0.24448  0.89783  1.0000
  H   H1294     1.0  0.80317  0.30625  0.55103  1.0000
  H   H1295     1.0  0.49608  0.30587  0.70199  1.0000
  C   C735      1.0  0.81173  0.30793  0.52879  1.0000
  H   H1296     1.0  0.67166  0.21708  0.84536  1.0000
  H   H1297     1.0  0.79520  0.15704  0.90990  1.0000
  H   H1298     1.0  0.72045  0.19889  0.89593  1.0000
  H   H1299     1.0  0.72494  0.03067  0.51087  1.0000
  H   H1300     1.0  0.76658  0.10818  0.95437  1.0000
  H   H1301     1.0  0.80665  0.29087  0.63076  1.0000
  H   H1302     1.0  0.76360  0.23142  0.85086  1.0000
  N   N42       1.0  0.77153  0.31525  0.96147  1.0000
  H   H1303     1.0  0.73399  0.01155  0.49171  1.0000
  H   H1304     1.0  0.65764  0.26850  0.86681  1.0000
  C   C736      1.0  0.66583  0.19695  0.93130  1.0000
  H   H1305     1.0  0.69722  0.08766  0.49483  1.0000
  C   C737      1.0  0.77120  0.31860  0.73009  1.0000
  H   H1306     1.0  0.83545  0.29955  0.52491  1.0000
  H   H1307     1.0  0.79021  0.20230  0.96438  1.0000
  C   C738      1.0  0.80542  0.16413  0.92811  1.0000
  C   C739      1.0  0.87478  0.23567  0.48695  1.0000
  H   H1308     1.0  0.65286  0.20594  0.88961  1.0000
  C   C740      1.0  0.58498  0.26809  0.69056  1.0000
  H   H1309     1.0  0.69849  0.31500  0.89223  1.0000
  H   H1310     1.0  0.52677  0.31675  0.59029  1.0000
  H   H1311     1.0  0.74566  0.21031  0.81739  1.0000
  C   C741      1.0  0.68705  0.26961  0.86345  1.0000
  H   H1312     1.0  0.73232  0.05499  0.48358  1.0000
  C   C742      1.0  0.74419  0.31842  0.93846  1.0000
  H   H1313     1.0  0.73385  0.29400  0.91970  1.0000
  H   H1314     1.0  0.80297  0.31596  0.68094  1.0000
  C   C743      1.0  0.71240  0.01990  0.50041  1.0000
  C   C744      1.0  0.78144  0.30332  0.50893  1.0000
  H   H1315     1.0  0.73798  0.30636  0.76192  1.0000
  H   H1316     1.0  0.51269  0.24683  0.61399  1.0000
  H   H1317     1.0  0.69162  0.27916  0.84675  1.0000
  H   H1318     1.0  0.83259  0.26975  0.95964  1.0000
  H   H1319     1.0  0.69955  0.27393  0.88321  1.0000
  H   H1320     1.0  0.83082  0.22050  0.87614  1.0000
  H   H1321     1.0  0.49451  0.29093  0.61853  1.0000
  H   H1322     1.0  0.80485  0.17769  0.92264  1.0000
  H   H1323     1.0  0.68173  0.20064  0.94991  1.0000
  H   H1324     1.0  0.59070  0.31281  0.57439  1.0000
  N   N43       1.0  0.71622  0.22236  0.87270  1.0000
  C   C745      1.0  0.75631  0.22458  0.87038  1.0000
  C   C746      1.0  0.69808  0.23925  0.87730  1.0000
  C   C747      1.0  0.70925  0.21183  0.89871  1.0000
  C   C748      1.0  0.70075  0.21373  0.84739  1.0000
  C   C749      1.0  0.71919  0.21697  0.81841  1.0000
  C   C750      1.0  0.77951  0.20819  0.87167  1.0000
  C   C751      1.0  0.66939  0.20992  0.90762  1.0000
  H   H1325     1.0  0.90173  0.23467  0.49683  1.0000
  H   H1326     1.0  0.82474  0.30578  0.60620  1.0000
  H   H1327     1.0  0.56093  0.29382  0.61174  1.0000
  H   H1328     1.0  0.73419  0.31098  0.53250  1.0000
  H   H1329     1.0  0.71372  0.13559  0.96273  1.0000
  C   C752      1.0  0.78514  0.29729  0.96056  1.0000
  H   H1330     1.0  0.61383  0.26665  0.69612  1.0000
  H   H1331     1.0  0.86605  0.21006  0.49648  1.0000
  C   C753      1.0  0.78877  0.31678  0.63747  1.0000
  C   C754      1.0  0.71867  0.30393  0.93129  1.0000
  C   C755      1.0  0.71140  0.29701  0.48381  1.0000
  H   H1332     1.0  0.68597  0.05593  0.49158  1.0000
  H   H1333     1.0  0.84694  0.23449  0.52757  1.0000
  H   H1334     1.0  0.54288  0.30515  0.70986  1.0000
  H   H1335     1.0  0.70285  0.29107  0.50396  1.0000
  C   C756      1.0  0.53108  0.31659  0.66854  1.0000
  H   H1336     1.0  0.76546  0.31518  0.62352  1.0000
  H   H1337     1.0  0.78070  0.31308  0.77434  1.0000
  H   H1338     1.0  0.72410  0.10815  0.97277  1.0000
  H   H1339     1.0  0.78016  0.98959  0.66734  1.0000
  H   H1340     1.0  0.86370  0.16145  0.48421  1.0000
  H   H1341     1.0  0.67856  0.99913  0.51316  1.0000
  H   H1342     1.0  0.67160  0.31999  0.92308  1.0000
  H   H1343     1.0  0.84163  0.98743  0.75317  1.0000
  H   H1344     1.0  0.80489  0.98819  0.71531  1.0000
  Fe  Fe89      1.0  0.80405  0.50853  0.38342  1.0000
  S   S175      1.0  0.81830  0.53309  0.40217  1.0000
  S   S176      1.0  0.79636  0.48454  0.41006  1.0000
  Fe  Fe90      1.0  0.80673  0.52349  0.32222  1.0000
  S   S177      1.0  0.82280  0.54892  0.33787  1.0000
  S   S178      1.0  0.80280  0.51818  0.27466  1.0000
  Fe  Fe91      1.0  0.85976  0.53461  0.36750  1.0000
  S   S179      1.0  0.91471  0.54194  0.38367  1.0000
  Fe  Fe92      1.0  0.78026  0.54517  0.37101  1.0000
  S   S180      1.0  0.73523  0.56372  0.38319  1.0000
  S   S181      1.0  0.84717  0.50944  0.34977  1.0000
  S   S182      1.0  0.76262  0.52028  0.35418  1.0000
  Fe  Fe93      1.0  0.67515  0.52721  0.13616  1.0000
  S   S183      1.0  0.65762  0.55189  0.11677  1.0000
  S   S184      1.0  0.67595  0.52839  0.18457  1.0000
  Fe  Fe94      1.0  0.68186  0.51057  0.07704  1.0000
  S   S185      1.0  0.66606  0.53439  0.05487  1.0000
  S   S186      1.0  0.69718  0.48687  0.05190  1.0000
  Fe  Fe95      1.0  0.70185  0.54732  0.08551  1.0000
  S   S187      1.0  0.74549  0.56561  0.07353  1.0000
  Fe  Fe96      1.0  0.62313  0.53675  0.08831  1.0000
  S   S188      1.0  0.56766  0.54583  0.07447  1.0000
  S   S189      1.0  0.72113  0.52329  0.10587  1.0000
  S   S190      1.0  0.63705  0.51224  0.10947  1.0000
  C   C757      1.0  0.52798  0.54023  0.09247  1.0000
  C   C758      1.0  0.95501  0.58824  0.36595  1.0000
  C   C759      1.0  0.52721  0.52633  0.11050  1.0000
  C   C760      1.0  0.72113  0.53504  0.98299  1.0000
  H   H1345     1.0  0.55122  0.51867  0.11329  1.0000
  C   C761      1.0  0.73998  0.58749  0.07880  1.0000
  C   C762      1.0  0.70853  0.59441  0.09060  1.0000
  C   C763      1.0  0.70516  0.61184  0.09462  1.0000
  C   C764      1.0  0.73313  0.62255  0.08691  1.0000
  C   C765      1.0  0.76471  0.61563  0.07535  1.0000
  C   C766      1.0  0.76806  0.59817  0.07128  1.0000
  H   H1346     1.0  0.68665  0.58635  0.09635  1.0000
  H   H1347     1.0  0.68052  0.61711  0.10338  1.0000
  H   H1348     1.0  0.78634  0.62376  0.06921  1.0000
  H   H1349     1.0  0.79246  0.59295  0.06207  1.0000
  C   C767      1.0  0.76708  0.52129  0.25002  1.0000
  C   C768      1.0  0.77244  0.51631  0.22185  1.0000
  C   C769      1.0  0.74510  0.51851  0.20154  1.0000
  C   C770      1.0  0.71186  0.52572  0.20911  1.0000
  C   C771      1.0  0.70650  0.53079  0.23723  1.0000
  C   C772      1.0  0.73390  0.52866  0.25752  1.0000
  H   H1350     1.0  0.79789  0.51055  0.21576  1.0000
  H   H1351     1.0  0.74946  0.51430  0.18019  1.0000
  H   H1352     1.0  0.68094  0.53636  0.24344  1.0000
  H   H1353     1.0  0.72928  0.53260  0.27901  1.0000
  C   C773      1.0  0.73831  0.58578  0.37917  1.0000
  C   C774      1.0  0.70679  0.59581  0.38040  1.0000
  C   C775      1.0  0.70823  0.61342  0.37799  1.0000
  C   C776      1.0  0.74137  0.62118  0.37494  1.0000
  C   C777      1.0  0.77291  0.61115  0.37402  1.0000
  C   C778      1.0  0.77141  0.59354  0.37582  1.0000
  H   H1354     1.0  0.68107  0.58994  0.38306  1.0000
  H   H1355     1.0  0.68377  0.62099  0.37888  1.0000
  H   H1356     1.0  0.79867  0.61704  0.37176  1.0000
  H   H1357     1.0  0.79588  0.58598  0.37499  1.0000
  C   C779      1.0  0.95749  0.52940  0.34031  1.0000
  C   C780      1.0  0.95578  0.53547  0.36783  1.0000
  H   H1358     1.0  0.73353  0.56583  0.45442  1.0000
  H   H1359     1.0  0.93308  0.52828  0.32830  1.0000
  C   C781      1.0  0.83107  0.55952  0.98847  1.0000
  C   C782      1.0  0.69662  0.46142  0.97727  1.0000
  C   C783      1.0  0.76492  0.33612  0.46439  1.0000
  C   C784      1.0  0.68780  0.48130  0.01629  1.0000
  C   C785      1.0  0.59562  0.55563  0.27038  1.0000
  H   H1360     1.0  0.71842  0.45810  0.01906  1.0000
  C   C786      1.0  0.79462  0.46283  0.45566  1.0000
  C   C787      1.0  0.79810  0.47963  0.44686  1.0000
  H   H1361     1.0  0.81338  0.51188  0.01842  1.0000
  H   H1362     1.0  0.79123  0.45322  0.43999  1.0000
  H   H1363     1.0  0.76899  0.50307  0.07104  1.0000
  H   H1364     1.0  0.72181  0.49411  0.39736  1.0000
  C   C788      1.0  0.78795  0.53578  0.97992  1.0000
  C   C789      1.0  0.61489  0.61159  0.17118  1.0000
  C   C790      1.0  0.71590  0.55244  0.99681  1.0000
  H   H1365     1.0  0.65727  0.55141  0.99892  1.0000
  H   H1366     1.0  0.71454  0.32697  0.44803  1.0000
  H   H1367     1.0  0.62906  0.60711  0.15188  1.0000
  H   H1368     1.0  0.98529  0.43981  0.43541  1.0000
  H   H1369     1.0  0.66633  0.52271  0.40587  1.0000
  C   C791      1.0  0.73674  0.32212  0.46164  1.0000
  C   C792      1.0  0.69348  0.51718  0.40966  1.0000
  C   C793      1.0  0.74168  0.53873  0.45000  1.0000
  H   H1370     1.0  0.60980  0.63695  0.15676  1.0000
  C   C794      1.0  0.75681  0.52108  0.02002  1.0000
  H   H1371     1.0  0.78085  0.49572  0.02218  1.0000
  C   C795      1.0  0.62095  0.63029  0.17541  1.0000
  H   H1372     1.0  0.64248  0.63694  0.23332  1.0000
  H   H1373     1.0  0.71309  0.52528  0.39896  1.0000
  N   N44       1.0  0.54756  0.53425  0.20672  1.0000
  H   H1374     1.0  0.94973  0.60047  0.35529  1.0000
  H   H1375     1.0  0.53938  0.54051  0.16282  1.0000
  H   H1376     1.0  0.86245  0.64746  0.15449  1.0000
  H   H1377     1.0  0.78214  0.33505  0.42040  1.0000
  C   C796      1.0  0.58281  0.55591  0.17714  1.0000
  H   H1378     1.0  0.49935  0.48444  0.02310  1.0000
  H   H1379     1.0  0.57337  0.51109  0.22020  1.0000
  C   C797      1.0  0.59295  0.54393  0.24517  1.0000
  H   H1380     1.0  0.57806  0.55136  0.28791  1.0000
  C   C798      1.0  0.57943  0.56732  0.15127  1.0000
  H   H1381     1.0  0.75806  0.53235  0.03350  1.0000
  H   H1382     1.0  0.60288  0.52505  0.20325  1.0000
  H   H1383     1.0  0.68281  0.55014  0.42832  1.0000
  H   H1384     1.0  0.60260  0.53128  0.25209  1.0000
  H   H1385     1.0  0.59869  0.48904  0.15394  1.0000
  H   H1386     1.0  0.73541  0.56137  0.98785  1.0000
  H   H1387     1.0  0.69791  0.52715  0.98907  1.0000
  H   H1388     1.0  0.60558  0.54699  0.17346  1.0000
  H   H1389     1.0  0.50443  0.52039  0.18766  1.0000
  H   H1390     1.0  0.58087  0.51899  0.15671  1.0000
  H   H1391     1.0  0.77701  0.63658  0.19700  1.0000
  H   H1392     1.0  0.73530  0.50092  0.98140  1.0000
  H   H1393     1.0  0.62457  0.60425  0.18969  1.0000
  H   H1394     1.0  0.98619  0.47071  0.43987  1.0000
  C   C799      1.0  0.70238  0.46619  0.00549  1.0000
  C   C800      1.0  0.92998  0.48784  0.37094  1.0000
  H   H1395     1.0  0.80604  0.50476  0.46114  1.0000
  H   H1396     1.0  0.61176  0.54839  0.22874  1.0000
  H   H1397     1.0  0.58889  0.56410  0.19517  1.0000
  H   H1398     1.0  0.55679  0.57650  0.15384  1.0000
  C   C801      1.0  0.57356  0.51058  0.17442  1.0000
  H   H1399     1.0  0.67488  0.62896  0.15945  1.0000
  N   N45       1.0  0.78697  0.57257  0.16339  1.0000
  C   C802      1.0  0.78697  0.55468  0.15315  1.0000
  C   C803      1.0  0.74905  0.57979  0.16381  1.0000
  C   C804      1.0  0.80874  0.58265  0.14252  1.0000
  C   C805      1.0  0.80446  0.57401  0.19185  1.0000
  C   C806      1.0  0.78754  0.56402  0.21642  1.0000
  C   C807      1.0  0.82427  0.54575  0.15053  1.0000
  C   C808      1.0  0.80516  0.60208  0.14480  1.0000
  C   C809      1.0  0.71849  0.56788  0.17261  1.0000
  C   C810      1.0  0.68289  0.57749  0.17637  1.0000
  C   C811      1.0  0.81191  0.56361  0.24220  1.0000
  C   C812      1.0  0.82059  0.52776  0.14027  1.0000
  C   C813      1.0  0.83324  0.61070  0.12643  1.0000
  H   H1400     1.0  0.77384  0.55423  0.13211  1.0000
  H   H1401     1.0  0.77048  0.54660  0.16695  1.0000
  H   H1402     1.0  0.74746  0.59110  0.17742  1.0000
  H   H1403     1.0  0.74135  0.58413  0.14227  1.0000
  H   H1404     1.0  0.80124  0.57944  0.12051  1.0000
  H   H1405     1.0  0.83785  0.57937  0.14436  1.0000
  H   H1406     1.0  0.83348  0.57044  0.19044  1.0000
  H   H1407     1.0  0.80414  0.58726  0.19885  1.0000
  H   H1408     1.0  0.78272  0.55087  0.21069  1.0000
  H   H1409     1.0  0.76184  0.57016  0.22304  1.0000
  H   H1410     1.0  0.84167  0.55228  0.13512  1.0000
  H   H1411     1.0  0.83793  0.54514  0.17120  1.0000
  H   H1412     1.0  0.80868  0.60645  0.16666  1.0000
  H   H1413     1.0  0.77827  0.60652  0.13753  1.0000
  H   H1414     1.0  0.71472  0.55841  0.15595  1.0000
  H   H1415     1.0  0.72411  0.56099  0.19236  1.0000
  H   H1416     1.0  0.68493  0.58683  0.19347  1.0000
  H   H1417     1.0  0.67528  0.58394  0.15642  1.0000
  H   H1418     1.0  0.66153  0.56856  0.18210  1.0000
  H   H1419     1.0  0.81785  0.57651  0.24916  1.0000
  H   H1420     1.0  0.79828  0.55699  0.25981  1.0000
  H   H1421     1.0  0.83745  0.55668  0.23747  1.0000
  H   H1422     1.0  0.80527  0.52026  0.15581  1.0000
  H   H1423     1.0  0.80668  0.52759  0.11968  1.0000
  H   H1424     1.0  0.84766  0.52181  0.13767  1.0000
  H   H1425     1.0  0.83223  0.60615  0.10442  1.0000
  H   H1426     1.0  0.82788  0.62445  0.12613  1.0000
  H   H1427     1.0  0.86065  0.60828  0.13482  1.0000
  H   H1428     1.0  0.60454  0.57437  0.14823  1.0000
  H   H1429     1.0  0.92139  0.48185  0.43692  1.0000
  H   H1430     1.0  0.94948  0.58947  0.38886  1.0000
  C   C814      1.0  0.55360  0.54299  0.23450  1.0000
  H   H1431     1.0  0.58776  0.56866  0.26430  1.0000
  H   H1432     1.0  0.80384  0.62824  0.43464  1.0000
  H   H1433     1.0  0.67519  0.57209  0.00174  1.0000
  H   H1434     1.0  0.58573  0.60939  0.16866  1.0000
  H   H1435     1.0  0.63014  0.58037  0.47132  1.0000
  H   H1436     1.0  0.65550  0.50319  0.00629  1.0000
  H   H1437     1.0  0.90262  0.63903  0.17094  1.0000
  H   H1438     1.0  0.73125  0.63480  0.15922  1.0000
  H   H1439     1.0  0.78362  0.55547  0.01306  1.0000
  H   H1440     1.0  0.81877  0.54035  0.01849  1.0000
  H   H1441     1.0  0.68852  0.50153  0.37276  1.0000
  C   C815      1.0  0.66154  0.63386  0.17885  1.0000
  C   C816      1.0  0.69466  0.50004  0.39550  1.0000
  H   H1442     1.0  0.62380  0.55561  0.27796  1.0000
  H   H1443     1.0  0.73116  0.51516  0.02637  1.0000
  H   H1444     1.0  0.67929  0.50810  0.45102  1.0000
  H   H1445     1.0  0.83193  0.62376  0.46463  1.0000
  H   H1446     1.0  0.62807  0.49997  0.17708  1.0000
  H   H1447     1.0  0.89624  0.50128  0.44104  1.0000
  C   C817      1.0  0.89220  0.64684  0.15324  1.0000
  C   C818      1.0  0.54743  0.54666  0.18265  1.0000
  H   H1448     1.0  0.61606  0.56552  0.44539  1.0000
  H   H1449     1.0  0.65583  0.57774  0.43929  1.0000
  H   H1450     1.0  0.54390  0.49878  0.07133  1.0000
  C   C819      1.0  0.60014  0.49569  0.17435  1.0000
  H   H1451     1.0  0.84284  0.56755  0.00489  1.0000
  H   H1452     1.0  0.72629  0.50761  0.44360  1.0000
  C   C820      1.0  0.79307  0.50820  0.06046  1.0000
  H   H1453     1.0  0.60513  0.63423  0.19419  1.0000
  H   H1454     1.0  0.79000  0.64725  0.47485  1.0000
  H   H1455     1.0  0.52669  0.55667  0.18623  1.0000
  C   C821      1.0  0.80421  0.54769  0.00208  1.0000
  C   C822      1.0  0.98769  0.53688  0.38315  1.0000
  C   C823      1.0  0.70140  0.51558  0.44168  1.0000
  H   H1456     1.0  0.85321  0.55231  0.97801  1.0000
  H   H1457     1.0  0.67459  0.49163  0.40518  1.0000
  S   S191      1.0  0.74496  0.64333  0.37351  1.0000
  H   H1458     1.0  0.53890  0.53657  0.25189  1.0000
  C   C824      1.0  0.99373  0.58220  0.36082  1.0000
  H   H1459     1.0  0.79321  0.35406  0.43838  1.0000
  H   H1460     1.0  0.81643  0.49988  0.06563  1.0000
  H   H1461     1.0  0.79824  0.52095  0.06854  1.0000
  H   H1462     1.0  0.54201  0.55599  0.23380  1.0000
  H   H1463     1.0  0.87371  0.48161  0.44386  1.0000
  H   H1464     1.0  0.74442  0.33281  0.98938  1.0000
  H   H1465     1.0  0.59363  0.48671  0.19149  1.0000
  C   C825      1.0  0.77230  0.34446  0.43594  1.0000
  C   C826      1.0  0.57518  0.52030  0.20252  1.0000
  H   H1466     1.0  0.98649  0.54153  0.40447  1.0000
  H   H1467     1.0  0.90830  0.47936  0.36449  1.0000
  H   H1468     1.0  0.67229  0.62583  0.19624  1.0000
  H   H1469     1.0  0.67697  0.65072  0.24480  1.0000
  C   C827      1.0  0.50105  0.49110  0.04342  1.0000
  H   H1470     1.0  0.93627  0.57891  0.35740  1.0000
  H   H1471     1.0  0.54675  0.50544  0.17050  1.0000
  H   H1472     1.0  0.74400  0.54059  0.42695  1.0000
  H   H1473     1.0  0.57490  0.55977  0.13213  1.0000
  H   H1474     1.0  0.55492  0.50020  0.03429  1.0000
  S   S192      1.0  0.72687  0.64441  0.09176  1.0000
  C   C828      1.0  0.67544  0.54386  0.44857  1.0000
  C   C829      1.0  0.51101  0.52634  0.20797  1.0000
  H   H1475     1.0  0.55388  0.48004  0.05160  1.0000
  H   H1476     1.0  0.93514  0.49665  0.35326  1.0000
  C   C830      1.0  0.89900  0.48810  0.44860  1.0000
  H   H1477     1.0  0.62378  0.65106  0.27644  1.0000
  H   H1478     1.0  0.79083  0.33078  0.47209  1.0000
  H   H1479     1.0  0.92040  0.49517  0.38940  1.0000
  H   H1480     1.0  0.70892  0.32661  0.03422  1.0000
  N   N46       1.0  0.70537  0.53185  0.45751  1.0000
  C   C831      1.0  0.78758  0.50863  0.02867  1.0000
  C   C832      1.0  0.66707  0.49157  0.99838  1.0000
  H   H1481     1.0  0.79274  0.56283  0.43336  1.0000
  H   H1482     1.0  0.80907  0.55060  0.46319  1.0000
  N   N47       1.0  0.75595  0.52568  0.98914  1.0000
  H   H1483     1.0  0.49867  0.51650  0.02774  1.0000
  C   C833      1.0  0.54082  0.49268  0.05056  1.0000
  H   H1484     1.0  0.85004  0.63486  0.43473  1.0000
  H   H1485     1.0  0.76347  0.52945  0.45489  1.0000
  H   H1486     1.0  0.71924  0.55176  0.01990  1.0000
  C   C834      1.0  0.49627  0.54971  0.08807  1.0000
  C   C835      1.0  0.99096  0.52496  0.32816  1.0000
  C   C836      1.0  0.96407  0.47759  0.37770  1.0000
  C   C837      1.0  0.73741  0.64725  0.16787  1.0000
  H   H1487     1.0  0.65054  0.53686  0.44422  1.0000
  H   H1488     1.0  0.90013  0.64074  0.13309  1.0000
  H   H1489     1.0  0.97325  0.47176  0.35777  1.0000
  C   C838      1.0  0.82564  0.63317  0.44796  1.0000
  H   H1490     1.0  0.95667  0.46745  0.39262  1.0000
  H   H1491     1.0  0.98141  0.49298  0.41125  1.0000
  C   C839      1.0  0.67843  0.55984  0.99093  1.0000
  C   C840      1.0  0.66280  0.55748  0.46995  1.0000
  H   H1492     1.0  0.74754  0.35078  0.42783  1.0000
  H   H1493     1.0  0.56394  0.64945  0.43776  1.0000
  H   H1494     1.0  0.51098  0.51609  0.22406  1.0000
  H   H1495     1.0  0.79446  0.64204  0.16280  1.0000
  C   C841      1.0  0.80269  0.49185  0.46746  1.0000
  C   C842      1.0  0.77545  0.64599  0.17970  1.0000
  C   C843      1.0  0.81373  0.64976  0.46142  1.0000
  C   C844      1.0  0.64977  0.65025  0.23543  1.0000
  H   H1496     1.0  0.52360  0.50082  0.98246  1.0000
  C   C845      1.0  0.78966  0.56057  0.45634  1.0000
  H   H1497     1.0  0.73925  0.65045  0.44654  1.0000
  H   H1498     1.0  0.71555  0.64490  0.20982  1.0000
  H   H1499     1.0  0.79605  0.57236  0.46733  1.0000
  H   H1500     1.0  0.49661  0.56045  0.07403  1.0000
  C   C846      1.0  0.99307  0.48874  0.39094  1.0000
  N   N48       1.0  0.67088  0.65198  0.18325  1.0000
  C   C847      1.0  0.63977  0.57107  0.45553  1.0000
  C   C848      1.0  0.75111  0.55572  0.46327  1.0000
  H   H1501     1.0  0.67425  0.65254  0.45197  1.0000
  H   H1502     1.0  0.99209  0.52035  0.30678  1.0000
  H   H1503     1.0  0.83577  0.65388  0.47521  1.0000
  H   H1504     1.0  0.60256  0.65247  0.45962  1.0000
  C   C849      1.0  0.71002  0.65284  0.19095  1.0000
  H   H1505     1.0  0.49460  0.51136  0.13827  1.0000
  C   C850      1.0  0.49515  0.52220  0.12453  1.0000
  Fe  Fe97      1.0  0.86264  0.43111  0.61089  1.0000
  S   S193      1.0  0.81741  0.45014  0.61539  1.0000
  S   S194      1.0  0.91767  0.44121  0.62169  1.0000
  Fe  Fe98      1.0  0.81191  0.40530  0.58672  1.0000
  S   S195      1.0  0.76429  0.42317  0.58787  1.0000
  S   S196      1.0  0.81288  0.37793  0.57323  1.0000
  Fe  Fe99      1.0  0.80238  0.44281  0.57119  1.0000
  S   S197      1.0  0.79587  0.46604  0.54205  1.0000
  Fe  Fe100     1.0  0.78390  0.42903  0.63168  1.0000
  S   S198      1.0  0.74196  0.42746  0.66730  1.0000
  S   S199      1.0  0.84850  0.42433  0.56671  1.0000
  S   S200      1.0  0.83036  0.41054  0.63074  1.0000
  Fe  Fe101     1.0  0.70937  0.43672  0.83155  1.0000
  S   S201      1.0  0.66945  0.41674  0.82417  1.0000
  S   S202      1.0  0.75196  0.44329  0.79868  1.0000
  Fe  Fe102     1.0  0.67826  0.44517  0.89146  1.0000
  S   S203      1.0  0.63729  0.42487  0.88765  1.0000
  S   S204      1.0  0.66950  0.46695  0.92297  1.0000
  Fe  Fe103     1.0  0.68207  0.40892  0.86863  1.0000
  S   S205      1.0  0.68400  0.38064  0.87483  1.0000
  Fe  Fe104     1.0  0.62842  0.43422  0.84377  1.0000
  S   S206      1.0  0.57427  0.44096  0.82443  1.0000
  S   S207      1.0  0.72426  0.42834  0.87561  1.0000
  S   S208      1.0  0.66760  0.45501  0.84761  1.0000
  C   C851      1.0  0.67632  0.47178  0.95926  1.0000
  C   C852      1.0  0.70226  0.52792  0.48857  1.0000
  H   H1506     1.0  0.75765  0.51956  0.49809  1.0000
  C   C853      1.0  0.72340  0.51157  0.53171  1.0000
  H   H1507     1.0  0.96582  0.47805  0.56914  1.0000
  C   C854      1.0  0.72307  0.36766  0.87303  1.0000
  C   C855      1.0  0.75711  0.37371  0.87903  1.0000
  C   C856      1.0  0.78719  0.36268  0.87927  1.0000
  C   C857      1.0  0.78352  0.34557  0.87334  1.0000
  C   C858      1.0  0.74966  0.33963  0.86660  1.0000
  C   C859      1.0  0.71952  0.35059  0.86679  1.0000
  H   H1508     1.0  0.76007  0.38678  0.88429  1.0000
  H   H1509     1.0  0.81335  0.36740  0.88439  1.0000
  C   C860      1.0  0.53506  0.49484  0.93849  1.0000
  H   H1510     1.0  0.69324  0.34581  0.86222  1.0000
  H   H1511     1.0  0.84427  0.41051  0.74803  1.0000
  C   C861      1.0  0.53382  0.43477  0.84087  1.0000
  C   C862      1.0  0.53395  0.42321  0.86309  1.0000
  H   H1512     1.0  0.50178  0.40965  0.89314  1.0000
  H   H1513     1.0  0.55907  0.41769  0.87027  1.0000
  C   C863      1.0  0.79830  0.47061  0.50514  1.0000
  C   C864      1.0  0.76039  0.34389  0.68110  1.0000
  C   C865      1.0  0.69804  0.47905  0.77536  1.0000
  H   H1514     1.0  0.64618  0.55162  0.48672  1.0000
  H   H1515     1.0  0.80566  0.49697  0.51202  1.0000
  C   C866      1.0  0.74604  0.43183  0.70375  1.0000
  C   C867      1.0  0.77458  0.44084  0.71459  1.0000
  C   C868      1.0  0.77603  0.44430  0.74367  1.0000
  C   C869      1.0  0.74904  0.43880  0.76221  1.0000
  C   C870      1.0  0.72081  0.42961  0.75142  1.0000
  C   C871      1.0  0.71924  0.42621  0.72237  1.0000
  H   H1516     1.0  0.79535  0.44529  0.70053  1.0000
  H   H1517     1.0  0.79810  0.45137  0.75181  1.0000
  H   H1518     1.0  0.70042  0.42501  0.76558  1.0000
  H   H1519     1.0  0.69730  0.41908  0.71424  1.0000
  C   C872      1.0  0.77610  0.36434  0.57679  1.0000
  C   C873      1.0  0.78232  0.34696  0.57450  1.0000
  C   C874      1.0  0.75375  0.33575  0.57645  1.0000
  C   C875      1.0  0.71855  0.34178  0.58011  1.0000
  C   C876      1.0  0.71226  0.35914  0.58254  1.0000
  C   C877      1.0  0.74092  0.37039  0.58111  1.0000
  H   H1520     1.0  0.80944  0.34217  0.57127  1.0000
  H   H1521     1.0  0.77586  0.34783  0.93451  1.0000
  H   H1522     1.0  0.68508  0.36396  0.58530  1.0000
  H   H1523     1.0  0.73575  0.38374  0.58279  1.0000
  C   C878      1.0  0.95945  0.43151  0.61291  1.0000
  H   H1524     1.0  0.70483  0.53934  0.50148  1.0000
  C   C879      1.0  0.96254  0.41443  0.60682  1.0000
  H   H1525     1.0  0.74765  0.35053  0.69928  1.0000
  H   H1526     1.0  0.93876  0.40687  0.60661  1.0000
  H   H1527     1.0  0.60904  0.46797  0.70107  1.0000
  H   H1528     1.0  0.65206  0.47696  0.73289  1.0000
  H   H1529     1.0  0.58383  0.41621  0.93424  1.0000
  H   H1530     1.0  0.68519  0.56372  0.48044  1.0000
  H   H1531     1.0  0.80527  0.42361  0.84049  1.0000
  H   H1532     1.0  0.84247  0.35048  0.92717  1.0000
  C   C880      1.0  0.81892  0.41141  0.84535  1.0000
  H   H1533     1.0  0.85329  0.38838  0.74327  1.0000
  H   H1534     1.0  0.67344  0.37068  0.75497  1.0000
  H   H1535     1.0  0.69616  0.50652  0.53524  1.0000
  H   H1536     1.0  0.80133  0.36993  0.65714  1.0000
  H   H1537     1.0  0.78478  0.38665  0.73096  1.0000
  H   H1538     1.0  0.66905  0.32369  0.69120  1.0000
  H   H1539     1.0  0.78979  0.34418  0.68523  1.0000
  H   H1540     1.0  0.57946  0.48651  0.72773  1.0000
  H   H1541     1.0  0.80184  0.33331  0.81419  1.0000
  H   H1542     1.0  0.64429  0.47365  0.78818  1.0000
  N   N49       1.0  0.79057  0.38870  0.77623  1.0000
  H   H1543     1.0  0.88405  0.44619  0.52642  1.0000
  H   H1544     1.0  0.69070  0.49177  0.76738  1.0000
  H   H1545     1.0  0.56137  0.45947  0.75167  1.0000
  C   C881      1.0  0.65288  0.46475  0.74436  1.0000
  H   H1546     1.0  0.76531  0.35456  0.79110  1.0000
  C   C882      1.0  0.88761  0.47378  0.57077  1.0000
  C   C883      1.0  0.79564  0.39546  0.74667  1.0000
  C   C884      1.0  0.95762  0.47206  0.52479  1.0000
  H   H1547     1.0  0.83729  0.37256  0.78340  1.0000
  H   H1548     1.0  0.84183  0.49094  0.57680  1.0000
  H   H1549     1.0  0.81500  0.40867  0.86811  1.0000
  S   S209      1.0  0.68165  0.32814  0.58072  1.0000
  H   H1550     1.0  0.88467  0.49921  0.58739  1.0000
  C   C885      1.0  0.58369  0.48411  0.75049  1.0000
  H   H1551     1.0  0.80840  0.36521  0.75710  1.0000
  C   C886      1.0  0.75258  0.35529  0.65507  1.0000
  C   C887      1.0  0.80294  0.39741  0.82793  1.0000
  H   H1552     1.0  0.71206  0.34567  0.51989  1.0000
  C   C888      1.0  0.79176  0.35864  0.79876  1.0000
  H   H1553     1.0  0.57327  0.40161  0.76050  1.0000
  H   H1554     1.0  0.84110  0.34604  0.81279  1.0000
  H   H1555     1.0  0.74008  0.40169  0.78476  1.0000
  H   H1556     1.0  0.62292  0.45733  0.65261  1.0000
  C   C889      1.0  0.68986  0.37642  0.77161  1.0000
  C   C890      1.0  0.80259  0.48736  0.49633  1.0000
  C   C891      1.0  0.79450  0.34537  0.95224  1.0000
  C   C892      1.0  0.50142  0.41864  0.87598  1.0000
  H   H1557     1.0  0.72029  0.47370  0.76229  1.0000
  H   H1558     1.0  0.64575  0.43197  0.74516  1.0000
  C   C893      1.0  0.75887  0.49463  0.92555  1.0000
  C   C894      1.0  0.69152  0.34342  0.50368  1.0000
  H   H1559     1.0  0.62582  0.33914  0.66191  1.0000
  H   H1560     1.0  0.51094  0.32596  0.73899  1.0000
  H   H1561     1.0  0.87021  0.46266  0.57158  1.0000
  H   H1562     1.0  0.67369  0.45558  0.78479  1.0000
  H   H1563     1.0  0.88452  0.49517  0.49066  1.0000
  H   H1564     1.0  0.60203  0.41070  0.78624  1.0000
  H   H1565     1.0  0.70781  0.48015  0.79731  1.0000
  H   H1566     1.0  0.62055  0.40360  0.75287  1.0000
  C   C895      1.0  0.80835  0.37147  0.77801  1.0000
  H   H1567     1.0  0.96552  0.43828  0.51811  1.0000
  C   C896      1.0  0.55152  0.49171  0.76646  1.0000
  H   H1568     1.0  0.82277  0.33764  0.78074  1.0000
  H   H1569     1.0  0.76473  0.38005  0.63880  1.0000
  H   H1570     1.0  0.58058  0.45095  0.70761  1.0000
  C   C897      1.0  0.83490  0.39898  0.73761  1.0000
  H   H1571     1.0  0.72750  0.32983  0.94324  1.0000
  H   H1572     1.0  0.65981  0.36460  0.51921  1.0000
  H   H1573     1.0  0.62667  0.43931  0.77698  1.0000
  N   N50       1.0  0.91872  0.46736  0.52220  1.0000
  C   C898      1.0  0.91272  0.44926  0.53006  1.0000
  C   C899      1.0  0.89463  0.47885  0.53965  1.0000
  H   H1574     1.0  0.83091  0.39039  0.69421  1.0000
  H   H1575     1.0  0.69856  0.35024  0.48407  1.0000
  N   N51       1.0  0.61773  0.45588  0.74139  1.0000
  C   C900      1.0  0.92908  0.41832  0.52488  1.0000
  H   H1576     1.0  0.78102  0.54336  0.96085  1.0000
  C   C901      1.0  0.59689  0.40967  0.76330  1.0000
  H   H1577     1.0  0.59448  0.43954  0.65921  1.0000
  H   H1578     1.0  0.55467  0.48975  0.78951  1.0000
  H   H1579     1.0  0.71884  0.32847  0.71922  1.0000
  H   H1580     1.0  0.91700  0.44693  0.55287  1.0000
  C   C902      1.0  0.62209  0.44437  0.66124  1.0000
  H   H1581     1.0  0.86732  0.47979  0.53026  1.0000
  C   C903      1.0  0.81593  0.34299  0.80166  1.0000
  H   H1582     1.0  0.95453  0.42271  0.71651  1.0000
  H   H1583     1.0  0.91256  0.47057  0.58217  1.0000
  C   C904      1.0  0.90640  0.48780  0.48020  1.0000
  H   H1584     1.0  0.68513  0.34436  0.68389  1.0000
  H   H1585     1.0  0.59035  0.46344  0.77987  1.0000
  H   H1586     1.0  0.94744  0.40921  0.51415  1.0000
  H   H1587     1.0  0.93203  0.49427  0.48345  1.0000
  H   H1588     1.0  0.78807  0.49167  0.92723  1.0000
  H   H1589     1.0  0.82157  0.36863  0.94322  1.0000
  H   H1590     1.0  0.79811  0.41377  0.79163  1.0000
  H   H1591     1.0  0.67506  0.45745  0.73411  1.0000
  H   H1592     1.0  0.52701  0.47227  0.96315  1.0000
  C   C905      1.0  0.58767  0.46506  0.75671  1.0000
  H   H1593     1.0  0.74001  0.36804  0.75290  1.0000
  H   H1594     1.0  0.84817  0.41241  0.84106  1.0000
  H   H1595     1.0  0.64072  0.43632  0.64856  1.0000
  H   H1596     1.0  0.75191  0.49578  0.90291  1.0000
  H   H1597     1.0  0.64563  0.32220  0.64174  1.0000
  C   C906      1.0  0.83781  0.40190  0.70584  1.0000
  C   C907      1.0  0.72736  0.38000  0.76008  1.0000
  H   H1598     1.0  0.86574  0.40525  0.70012  1.0000
  H   H1599     1.0  0.74500  0.38267  0.80316  1.0000
  H   H1600     1.0  0.83763  0.40087  0.79251  1.0000
  C   C908      1.0  0.66552  0.46770  0.77492  1.0000
  H   H1601     1.0  0.63379  0.43072  0.69903  1.0000
  H   H1602     1.0  0.66192  0.44838  0.69246  1.0000
  H   H1603     1.0  0.57419  0.33413  0.57099  1.0000
  C   C909      1.0  0.58746  0.42421  0.95301  1.0000
  H   H1604     1.0  0.78001  0.40736  0.74387  1.0000
  H   H1605     1.0  0.72624  0.52324  0.54403  1.0000
  C   C910      1.0  0.77172  0.37200  0.65723  1.0000
  H   H1606     1.0  0.72339  0.35818  0.65338  1.0000
  C   C911      1.0  0.63388  0.44400  0.69198  1.0000
  H   H1607     1.0  0.67620  0.38824  0.77851  1.0000
  H   H1608     1.0  0.72405  0.38839  0.74144  1.0000
  H   H1609     1.0  0.78747  0.36394  0.81993  1.0000
  H   H1610     1.0  0.96086  0.48566  0.52063  1.0000
  H   H1611     1.0  0.77416  0.39686  0.83384  1.0000
  H   H1612     1.0  0.56501  0.43228  0.76147  1.0000
  H   H1613     1.0  0.52617  0.48591  0.75964  1.0000
  H   H1614     1.0  0.58244  0.42521  0.72804  1.0000
  H   H1615     1.0  0.90492  0.49185  0.53929  1.0000
  H   H1616     1.0  0.54082  0.43719  0.91570  1.0000
  H   H1617     1.0  0.76119  0.34934  0.63517  1.0000
  C   C912      1.0  0.58908  0.42699  0.75051  1.0000
  H   H1618     1.0  0.74351  0.48411  0.93473  1.0000
  H   H1619     1.0  0.76335  0.37878  0.67662  1.0000
  C   C913      1.0  0.86806  0.48784  0.58681  1.0000
  S   S210      1.0  0.82162  0.33200  0.87538  1.0000
  H   H1620     1.0  0.81951  0.41233  0.69909  1.0000
  N   N52       1.0  0.53953  0.46408  0.92077  1.0000
  H   H1621     1.0  0.67489  0.52320  0.49329  1.0000
  C   C914      1.0  0.56762  0.46709  0.89806  1.0000
  H   H1622     1.0  0.56896  0.50500  0.97126  1.0000
  C   C915      1.0  0.54361  0.47617  0.94476  1.0000
  C   C916      1.0  0.51702  0.32902  0.71663  1.0000
  H   H1623     1.0  0.97030  0.45591  0.56169  1.0000
  C   C917      1.0  0.58317  0.44276  0.94522  1.0000
  C   C918      1.0  0.55686  0.47914  0.87344  1.0000
  C   C919      1.0  0.58939  0.48413  0.85579  1.0000
  H   H1624     1.0  0.53789  0.47281  0.85922  1.0000
  C   C920      1.0  0.72993  0.51491  0.50039  1.0000
  C   C921      1.0  0.96168  0.42981  0.69716  1.0000
  H   H1625     1.0  0.95706  0.44343  0.70073  1.0000
  H   H1626     1.0  0.93151  0.43632  0.49148  1.0000
  H   H1627     1.0  0.59283  0.47168  0.90755  1.0000
  H   H1628     1.0  0.57566  0.45509  0.88757  1.0000
  C   C922      1.0  0.50237  0.46490  0.90815  1.0000
  H   H1629     1.0  0.53248  0.51871  0.96030  1.0000
  H   H1630     1.0  0.69152  0.36761  0.78981  1.0000
  C   C923      1.0  0.90804  0.46951  0.49168  1.0000
  H   H1631     1.0  0.64671  0.34475  0.53365  1.0000
  C   C924      1.0  0.82864  0.35516  0.94646  1.0000
  C   C925      1.0  0.62171  0.43855  0.75395  1.0000
  H   H1632     1.0  0.74344  0.50212  0.53949  1.0000
  H   H1633     1.0  0.94371  0.42593  0.67989  1.0000
  H   H1634     1.0  0.60501  0.44596  0.93037  1.0000
  H   H1635     1.0  0.50690  0.49675  0.93146  1.0000
  H   H1636     1.0  0.54347  0.49080  0.88081  1.0000
  H   H1637     1.0  0.60083  0.47304  0.84478  1.0000
  H   H1638     1.0  0.58103  0.49352  0.83964  1.0000
  H   H1639     1.0  0.61034  0.48968  0.86917  1.0000
  C   C926      1.0  0.71503  0.32387  0.66214  1.0000
  H   H1640     1.0  0.81704  0.38558  0.83409  1.0000
  H   H1641     1.0  0.58697  0.45000  0.96480  1.0000
  H   H1642     1.0  0.49610  0.47752  0.89938  1.0000
  H   H1643     1.0  0.74661  0.32653  0.86166  1.0000
  H   H1644     1.0  0.71894  0.32886  0.64050  1.0000
  C   C927      1.0  0.60860  0.45518  0.71052  1.0000
  H   H1645     1.0  0.64593  0.49505  0.95641  1.0000
  H   H1646     1.0  0.60785  0.49087  0.75723  1.0000
  H   H1647     1.0  0.86286  0.48367  0.60879  1.0000
  C   C928      1.0  0.75073  0.38860  0.78246  1.0000
  C   C929      1.0  0.80807  0.40074  0.79605  1.0000
  H   H1648     1.0  0.67467  0.56190  0.96798  1.0000
  C   C930      1.0  0.58144  0.32406  0.58631  1.0000
  H   H1649     1.0  0.97413  0.46569  0.50825  1.0000
  H   H1650     1.0  0.75702  0.32782  0.51707  1.0000
  H   H1651     1.0  0.55385  0.49968  0.92237  1.0000
  C   C931      1.0  0.54558  0.44658  0.93240  1.0000
  H   H1652     1.0  0.78809  0.32987  0.72906  1.0000
  C   C932      1.0  0.79495  0.45832  0.48452  1.0000
  N   N53       1.0  0.74821  0.32591  0.67980  1.0000
  H   H1653     1.0  0.80064  0.32923  0.63402  1.0000
  C   C933      1.0  0.54031  0.50545  0.96478  1.0000
  H   H1654     1.0  0.52607  0.44385  0.94955  1.0000
  C   C934      1.0  0.93662  0.43606  0.51443  1.0000
  H   H1655     1.0  0.79159  0.44538  0.49079  1.0000
  H   H1656     1.0  0.72042  0.51377  0.93660  1.0000
  C   C935      1.0  0.68002  0.33196  0.67445  1.0000
  H   H1657     1.0  0.54950  0.50540  0.76218  1.0000
  H   H1658     1.0  0.61487  0.42173  0.96140  1.0000
  H   H1659     1.0  0.57185  0.47577  0.95238  1.0000
  H   H1660     1.0  0.50048  0.45055  0.81430  1.0000
  C   C936      1.0  0.74934  0.51102  0.94063  1.0000
  C   C937      1.0  0.80322  0.32632  0.95562  1.0000
  H   H1661     1.0  0.54089  0.33147  0.61658  1.0000
  C   C938      1.0  0.65601  0.35118  0.51423  1.0000
  H   H1662     1.0  0.76554  0.52112  0.93111  1.0000
  H   H1663     1.0  0.90098  0.41496  0.52013  1.0000
  H   H1664     1.0  0.63495  0.35033  0.49789  1.0000
  H   H1665     1.0  0.93356  0.41725  0.54793  1.0000
  H   H1666     1.0  0.81062  0.52737  0.97305  1.0000
  C   C939      1.0  0.50086  0.44164  0.83155  1.0000
  H   H1667     1.0  0.51310  0.32699  0.66096  1.0000
  H   H1668     1.0  0.75647  0.34604  0.47931  1.0000
  C   C940      1.0  0.97559  0.46866  0.55360  1.0000
  H   H1669     1.0  0.50136  0.45623  0.88991  1.0000
  H   H1670     1.0  0.54219  0.33624  0.71583  1.0000
  H   H1671     1.0  0.74838  0.55533  0.48650  1.0000
  H   H1672     1.0  0.88095  0.46417  0.48816  1.0000
  H   H1673     1.0  0.70826  0.44981  0.96939  1.0000
  H   H1674     1.0  0.65979  0.34349  0.63584  1.0000
  H   H1675     1.0  0.71843  0.53758  0.96009  1.0000
  H   H1676     1.0  0.81756  0.32212  0.93609  1.0000
  H   H1677     1.0  0.98844  0.45440  0.61769  1.0000
  C   C941      1.0  0.66160  0.48688  0.97008  1.0000
  C   C942      1.0  0.99062  0.44115  0.61313  1.0000
  C   C943      1.0  0.68772  0.32452  0.49756  1.0000
  H   H1678     1.0  0.56752  0.42073  0.96941  1.0000
  H   H1679     1.0  0.75891  0.32243  0.57485  1.0000
  H   H1680     1.0  0.74498  0.32832  0.76805  1.0000
  H   H1681     1.0  0.60385  0.32848  0.59942  1.0000
  H   H1682     1.0  0.84734  0.35400  0.96452  1.0000
  H   H1683     1.0  0.92687  0.46241  0.47769  1.0000
  H   H1684     1.0  0.66699  0.32401  0.48092  1.0000
  C   C944      1.0  0.65108  0.33431  0.65206  1.0000
  H   H1685     1.0  0.82321  0.32524  0.97284  1.0000
  H   H1686     1.0  0.78210  0.35061  0.97165  1.0000
  H   H1687     1.0  0.78208  0.50258  0.97528  1.0000
  C   C945      1.0  0.75595  0.50946  0.97276  1.0000
  H   H1688     1.0  0.81747  0.56782  0.97276  1.0000
  H   H1689     1.0  0.72816  0.50269  0.48954  1.0000
  H   H1690     1.0  0.49452  0.33691  0.70822  1.0000
  H   H1691     1.0  0.55833  0.32209  0.66907  1.0000
  H   H1692     1.0  0.81980  0.32110  0.52526  1.0000
  H   H1693     1.0  0.75811  0.32123  0.91815  1.0000
  Fe  Fe105     1.0  0.69921  0.66206  0.36433  1.0000
  S   S211      1.0  0.71846  0.68837  0.35722  1.0000
  C   C946      1.0  0.97305  0.69327  0.16357  1.0000
  Fe  Fe106     1.0  0.61896  0.67343  0.36025  1.0000
  S   S212      1.0  0.63378  0.70031  0.35355  1.0000
  S   S213      1.0  0.56264  0.66293  0.36808  1.0000
  Fe  Fe107     1.0  0.67624  0.68971  0.32331  1.0000
  S   S214      1.0  0.68006  0.70000  0.27800  1.0000
  Fe  Fe108     1.0  0.67518  0.69655  0.38805  1.0000
  S   S215      1.0  0.67862  0.71001  0.43114  1.0000
  S   S216      1.0  0.65942  0.66294  0.32886  1.0000
  S   S217      1.0  0.65777  0.67009  0.39603  1.0000
  Fe  Fe109     1.0  0.77906  0.70130  0.06598  1.0000
  S   S218      1.0  0.79971  0.67607  0.05068  1.0000
  S   S219      1.0  0.75222  0.72285  0.03981  1.0000
  Fe  Fe110     1.0  0.79254  0.69148  0.12913  1.0000
  S   S220      1.0  0.81461  0.66622  0.11669  1.0000
  S   S221      1.0  0.79539  0.69436  0.17724  1.0000
  Fe  Fe111     1.0  0.84483  0.67941  0.08217  1.0000
  S   S222      1.0  0.90319  0.66991  0.07540  1.0000
  Fe  Fe112     1.0  0.76845  0.66494  0.08704  1.0000
  H   H1694     1.0  0.94748  0.98576  0.99327  1.0000
  S   S223      1.0  0.82558  0.70502  0.09613  1.0000
  S   S224      1.0  0.74517  0.68989  0.10059  1.0000
  C   C947      1.0  0.94609  0.67893  0.08133  1.0000
  C   C948      1.0  0.95003  0.69602  0.08655  1.0000
  H   H1695     1.0  0.92731  0.72398  0.17325  1.0000
  H   H1696     1.0  0.92651  0.70420  0.08670  1.0000
  C   C949      1.0  0.72119  0.79010  0.44918  1.0000
  C   C950      1.0  0.71173  0.69703  0.24989  1.0000
  C   C951      1.0  0.70321  0.70347  0.22301  1.0000
  C   C952      1.0  0.72792  0.70224  0.20035  1.0000
  C   C953      1.0  0.76173  0.69462  0.20424  1.0000
  C   C954      1.0  0.77020  0.68804  0.23106  1.0000
  C   C955      1.0  0.74527  0.68906  0.25365  1.0000
  H   H1697     1.0  0.67755  0.70981  0.21984  1.0000
  H   H1698     1.0  0.72128  0.70777  0.18014  1.0000
  H   H1699     1.0  0.79636  0.68226  0.23450  1.0000
  H   H1700     1.0  0.75238  0.68410  0.27417  1.0000
  H   H1701     1.0  0.98298  0.97846  0.17290  1.0000
  C   C956      1.0  0.51825  0.67098  0.36141  1.0000
  H   H1702     1.0  0.59554  0.65829  0.24810  1.0000
  C   C957      1.0  0.67444  0.68003  0.15543  1.0000
  H   H1703     1.0  0.83098  0.97125  0.17778  1.0000
  H   H1704     1.0  0.79354  0.69857  0.36583  1.0000
  C   C958      1.0  0.74338  0.72802  0.00357  1.0000
  H   H1705     1.0  0.70906  0.74913  0.01443  1.0000
  C   C959      1.0  0.89412  0.98474  0.19633  1.0000
  C   C960      1.0  0.95888  0.97569  0.18591  1.0000
  C   C961      1.0  0.70587  0.72407  0.45069  1.0000
  C   C962      1.0  0.73179  0.73417  0.43800  1.0000
  C   C963      1.0  0.51168  0.68598  0.34669  1.0000
  H   H1706     1.0  0.55809  0.65579  0.47415  1.0000
  H   H1707     1.0  0.73582  0.73365  0.41546  1.0000
  H   H1708     1.0  0.55940  0.69636  0.39151  1.0000
  C   C964      1.0  0.83076  0.78934  0.01354  1.0000
  H   H1709     1.0  0.59034  0.70264  0.41687  1.0000
  H   H1710     1.0  0.98718  0.71585  0.09472  1.0000
  C   C965      1.0  0.66017  0.68880  0.12894  1.0000
  H   H1711     1.0  0.84645  0.97219  0.23388  1.0000
  H   H1712     1.0  0.63095  0.67138  0.26092  1.0000
  H   H1713     1.0  0.95130  0.96253  0.18201  1.0000
  H   H1714     1.0  0.77941  0.71677  0.38601  1.0000
  C   C966      1.0  0.71273  0.80896  0.45511  1.0000
  H   H1715     1.0  0.84654  0.70283  0.25764  1.0000
  C   C967      1.0  0.53828  0.68250  0.43806  1.0000
  H   H1716     1.0  0.52895  0.67527  0.41965  1.0000
  H   H1717     1.0  0.83344  0.68899  0.40365  1.0000
  H   H1718     1.0  0.70100  0.78204  0.45949  1.0000
  C   C968      1.0  0.75227  0.74515  0.45445  1.0000
  H   H1719     1.0  0.82167  0.95740  0.13069  1.0000
  H   H1720     1.0  0.68427  0.81110  0.44863  1.0000
  H   H1721     1.0  0.92312  0.98630  0.15514  1.0000
  H   H1722     1.0  0.72533  0.77282  0.41418  1.0000
  C   C969      1.0  0.77924  0.69008  0.42319  1.0000
  H   H1723     1.0  0.74140  0.79347  0.40636  1.0000
  H   H1724     1.0  0.87380  0.67747  0.23529  1.0000
  C   C970      1.0  0.56176  0.72312  0.39632  1.0000
  H   H1725     1.0  0.89987  0.67103  0.13461  1.0000
  H   H1726     1.0  0.89759  0.95604  0.98611  1.0000
  C   C971      1.0  0.62336  0.65828  0.25639  1.0000
  C   C972      1.0  0.59255  0.73386  0.40668  1.0000
  H   H1727     1.0  0.73588  0.68726  0.46638  1.0000
  C   C973      1.0  0.90411  0.73025  0.13317  1.0000
  H   H1728     1.0  0.81225  0.78090  0.02503  1.0000
  C   C974      1.0  0.85697  0.97815  0.13983  1.0000
  H   H1729     1.0  0.66878  0.68185  0.10976  1.0000
  H   H1730     1.0  0.64148  0.73611  0.98610  1.0000
  H   H1731     1.0  0.80707  0.97736  0.11596  1.0000
  H   H1732     1.0  0.49652  0.72747  0.46468  1.0000
  C   C975      1.0  0.92295  0.97859  0.99800  1.0000
  H   H1733     1.0  0.77213  0.75286  0.44427  1.0000
  C   C976      1.0  0.56247  0.70516  0.40938  1.0000
  H   H1734     1.0  0.72221  0.66767  0.42591  1.0000
  H   H1735     1.0  0.69354  0.78987  0.40883  1.0000
  H   H1736     1.0  0.92869  0.72626  0.12145  1.0000
  C   C977      1.0  0.69091  0.66184  0.46287  1.0000
  H   H1737     1.0  0.70412  0.68086  0.15534  1.0000
  H   H1738     1.0  0.71684  0.66577  0.19735  1.0000
  C   C978      1.0  0.80650  0.98590  0.25790  1.0000
  C   C979      1.0  0.90239  0.72128  0.16161  1.0000
  H   H1739     1.0  0.59295  0.73456  0.42997  1.0000
  H   H1740     1.0  0.78969  0.71364  0.46308  1.0000
  H   H1741     1.0  0.84451  0.96600  0.10043  1.0000
  H   H1742     1.0  0.53400  0.69290  0.33820  1.0000
  H   H1743     1.0  0.74776  0.78593  0.45714  1.0000
  H   H1744     1.0  0.97469  0.65535  0.07618  1.0000
  N   N54       1.0  0.78699  0.67913  0.44860  1.0000
  C   C980      1.0  0.80331  0.97731  0.98804  1.0000
  C   C981      1.0  0.81092  0.68775  0.46919  1.0000
  C   C982      1.0  0.72027  0.78642  0.41767  1.0000
  H   H1745     1.0  0.67626  0.67413  0.46271  1.0000
  C   C983      1.0  0.75185  0.67543  0.46318  1.0000
  H   H1746     1.0  0.85877  0.78489  0.01750  1.0000
  C   C984      1.0  0.80567  0.66327  0.43854  1.0000
  H   H1747     1.0  0.92328  0.97497  0.02062  1.0000
  H   H1748     1.0  0.66368  0.68718  0.17362  1.0000
  C   C985      1.0  0.92203  0.96288  0.97979  1.0000
  H   H1749     1.0  0.96623  0.68492  0.14604  1.0000
  H   H1750     1.0  0.76591  0.68269  0.40662  1.0000
  C   C986      1.0  0.69782  0.84574  0.47372  1.0000
  H   H1751     1.0  0.82408  0.70772  0.42340  1.0000
  H   H1752     1.0  0.86830  0.70036  0.15335  1.0000
  H   H1753     1.0  0.88006  0.72757  0.12044  1.0000
  H   H1754     1.0  0.83201  0.66612  0.42871  1.0000
  H   H1755     1.0  0.85909  0.70131  0.20439  1.0000
  H   H1756     1.0  0.59409  0.67599  0.42709  1.0000
  H   H1757     1.0  0.80137  0.97644  0.01072  1.0000
  C   C987      1.0  0.80179  0.70763  0.38207  1.0000
  C   C988      1.0  0.83833  0.98330  0.16774  1.0000
  H   H1758     1.0  0.79699  0.97449  0.26889  1.0000
  H   H1759     1.0  0.95474  0.70172  0.20391  1.0000
  H   H1760     1.0  0.87956  0.96921  0.14410  1.0000
  C   C989      1.0  0.64882  0.65974  0.20679  1.0000
  C   C990      1.0  0.82331  0.78909  0.98193  1.0000
  H   H1761     1.0  0.57273  0.71131  0.46163  1.0000
  H   H1762     1.0  0.74904  0.97848  0.46535  1.0000
  C   C991      1.0  0.81227  0.69839  0.40916  1.0000
  H   H1763     1.0  0.87931  0.72681  0.17362  1.0000
  H   H1764     1.0  0.82518  0.71455  0.37373  1.0000
  H   H1765     1.0  0.63036  0.68970  0.12955  1.0000
  H   H1766     1.0  0.91172  0.69781  0.13930  1.0000
  C   C992      1.0  0.72075  0.74196  0.99729  1.0000
  C   C993      1.0  0.52614  0.72816  0.46229  1.0000
  H   H1767     1.0  0.97172  0.70630  0.15524  1.0000
  H   H1768     1.0  0.77825  0.80654  0.98744  1.0000
  H   H1769     1.0  0.72868  0.81657  0.43999  1.0000
  H   H1770     1.0  0.65827  0.67254  0.21153  1.0000
  H   H1771     1.0  0.89859  0.71180  0.21385  1.0000
  H   H1772     1.0  0.89103  0.71034  0.26515  1.0000
  H   H1773     1.0  0.56530  0.72191  0.37313  1.0000
  H   H1774     1.0  0.83814  0.68954  0.45993  1.0000
  H   H1775     1.0  0.79111  0.95126  0.98144  1.0000
  H   H1776     1.0  0.67075  0.70170  0.12765  1.0000
  H   H1777     1.0  0.75946  0.70026  0.42842  1.0000
  H   H1778     1.0  0.70061  0.84308  0.45089  1.0000
  H   H1779     1.0  0.90156  0.66609  0.19860  1.0000
  C   C994      1.0  0.66307  0.66147  0.15634  1.0000
  N   N55       1.0  0.90748  0.69168  0.18389  1.0000
  C   C995      1.0  0.89716  0.70212  0.15845  1.0000
  C   C996      1.0  0.82377  0.98109  0.22969  1.0000
  C   C997      1.0  0.88809  0.69918  0.20910  1.0000
  C   C998      1.0  0.94752  0.69141  0.18943  1.0000
  H   H1780     1.0  0.89875  0.98672  0.99428  1.0000
  N   N56       1.0  0.53520  0.70114  0.43207  1.0000
  C   C999      1.0  0.75772  0.71876  0.98101  1.0000
  H   H1781     1.0  0.94633  0.95519  0.98473  1.0000
  H   H1782     1.0  0.78379  0.65833  0.18774  1.0000
  H   H1783     1.0  0.62032  0.66157  0.20030  1.0000
  H   H1784     1.0  0.61877  0.72849  0.39937  1.0000
  H   H1785     1.0  0.53611  0.73011  0.39881  1.0000
  C   C1000     1.0  0.98455  0.70260  0.09088  1.0000
  H   H1786     1.0  0.58965  0.74675  0.39793  1.0000
  H   H1787     1.0  0.68011  0.70956  0.98992  1.0000
  H   H1788     1.0  0.77509  0.70800  0.98524  1.0000
  H   H1789     1.0  0.80293  0.97459  0.21755  1.0000
  C   C1001     1.0  0.83087  0.96918  0.12064  1.0000
  H   H1790     1.0  0.62068  0.98018  0.43910  1.0000
  C   C1002     1.0  0.72092  0.97888  0.45977  1.0000
  C   C1003     1.0  0.72708  0.66324  0.44768  1.0000
  H   H1791     1.0  0.90508  0.74400  0.13643  1.0000
  C   C1004     1.0  0.64878  0.97988  0.44474  1.0000
  H   H1792     1.0  0.88980  0.97098  0.19739  1.0000
  H   H1793     1.0  0.65620  0.71511  0.02167  1.0000
  H   H1794     1.0  0.79006  0.65745  0.42133  1.0000
  C   C1005     1.0  0.54312  0.71036  0.45893  1.0000
  C   C1006     1.0  0.49777  0.70467  0.42107  1.0000
  H   H1795     1.0  0.60270  0.72385  0.99307  1.0000
  C   C1007     1.0  0.97724  0.66857  0.08040  1.0000
  H   H1796     1.0  0.82817  0.82741  0.47552  1.0000
  H   H1797     1.0  0.58824  0.68284  0.46295  1.0000
  C   C1008     1.0  0.57620  0.67555  0.44574  1.0000
  H   H1798     1.0  0.64029  0.69839  0.99998  1.0000
  C   C1009     1.0  0.87496  0.69899  0.26164  1.0000
  C   C1010     1.0  0.65961  0.97164  0.46991  1.0000
  H   H1799     1.0  0.86403  0.67439  0.17948  1.0000
  H   H1800     1.0  0.78874  0.80447  0.46223  1.0000
  H   H1801     1.0  0.67143  0.86989  0.46618  1.0000
  H   H1802     1.0  0.91835  0.68511  0.24168  1.0000
  H   H1803     1.0  0.82749  0.80226  0.02189  1.0000
  C   C1011     1.0  0.65298  0.71085  0.99963  1.0000
  H   H1804     1.0  0.53189  0.73631  0.44404  1.0000
  H   H1805     1.0  0.96592  0.97715  0.20844  1.0000
  H   H1806     1.0  0.63378  0.66155  0.15201  1.0000
  H   H1807     1.0  0.64096  0.85276  0.47003  1.0000
  H   H1808     1.0  0.95551  0.67971  0.20089  1.0000
  C   C1012     1.0  0.89017  0.68889  0.23687  1.0000
  C   C1013     1.0  0.89400  0.67411  0.18026  1.0000
  C   C1014     1.0  0.62973  0.72355  0.98329  1.0000
  H   H1809     1.0  0.52028  0.67897  0.45583  1.0000
  H   H1810     1.0  0.67596  0.65504  0.13798  1.0000
  H   H1811     1.0  0.73758  0.65642  0.15023  1.0000
  H   H1812     1.0  0.76127  0.83168  0.47286  1.0000
  H   H1813     1.0  0.76732  0.78523  0.98634  1.0000
  H   H1814     1.0  0.87577  0.69117  0.28107  1.0000
  C   C1015     1.0  0.90781  0.66440  0.15418  1.0000
  C   C1016     1.0  0.57495  0.65719  0.45493  1.0000
  C   C1017     1.0  0.71013  0.98701  0.43450  1.0000
  H   H1815     1.0  0.93735  0.66263  0.15479  1.0000
  H   H1816     1.0  0.49497  0.69914  0.39978  1.0000
  Fe  Fe113     1.0  0.67068  0.90906  0.56552  1.0000
  S   S225      1.0  0.72003  0.92461  0.56619  1.0000
  S   S226      1.0  0.66857  0.88100  0.55688  1.0000
  Fe  Fe114     1.0  0.62259  0.93827  0.58439  1.0000
  S   S227      1.0  0.66954  0.95576  0.58740  1.0000
  S   S228      1.0  0.56645  0.94879  0.59473  1.0000
  Fe  Fe115     1.0  0.68624  0.94509  0.54516  1.0000
  S   S229      1.0  0.71130  0.96141  0.50981  1.0000
  Fe  Fe116     1.0  0.69933  0.93402  0.60827  1.0000
  S   S230      1.0  0.74178  0.93285  0.64373  1.0000
  S   S231      1.0  0.63806  0.92861  0.54149  1.0000
  S   S232      1.0  0.65118  0.91747  0.60820  1.0000
  Fe  Fe117     1.0  0.85226  0.77416  0.58869  1.0000
  S   S233      1.0  0.80617  0.75606  0.58747  1.0000
  S   S234      1.0  0.90931  0.76592  0.60204  1.0000
  Fe  Fe118     1.0  0.80215  0.80413  0.57558  1.0000
  S   S235      1.0  0.75321  0.78838  0.57313  1.0000
  S   S236      1.0  0.80527  0.83235  0.56968  1.0000
  Fe  Fe119     1.0  0.77487  0.77574  0.61252  1.0000
  S   S237      1.0  0.73415  0.77042  0.64807  1.0000
  Fe  Fe120     1.0  0.78765  0.76996  0.54824  1.0000
  S   S238      1.0  0.77436  0.76045  0.50339  1.0000
  S   S239      1.0  0.82189  0.79271  0.61613  1.0000
  S   S240      1.0  0.83584  0.78688  0.54841  1.0000
  Fe  Fe121     1.0  0.78039  0.92990  0.81374  1.0000
  S   S241      1.0  0.82482  0.91102  0.80682  1.0000
  S   S242      1.0  0.73984  0.93678  0.77875  1.0000
  Fe  Fe122     1.0  0.80109  0.93463  0.87692  1.0000
  S   S243      1.0  0.84629  0.91536  0.87317  1.0000
  S   S244      1.0  0.79181  0.94515  0.92174  1.0000
  Fe  Fe123     1.0  0.85927  0.92803  0.83224  1.0000
  S   S245      1.0  0.91400  0.93652  0.81658  1.0000
  Fe  Fe124     1.0  0.80764  0.89999  0.84841  1.0000
  S   S246      1.0  0.80692  0.87145  0.85111  1.0000
  S   S247      1.0  0.81587  0.94801  0.83671  1.0000
  S   S248      1.0  0.76139  0.91812  0.85459  1.0000
  Fe  Fe125     1.0  0.69233  0.77834  0.82024  1.0000
  S   S249      1.0  0.64386  0.79482  0.82962  1.0000
  S   S250      1.0  0.72788  0.78407  0.78145  1.0000
  Fe  Fe126     1.0  0.69108  0.76286  0.88175  1.0000
  S   S251      1.0  0.64333  0.77896  0.89417  1.0000
  S   S252      1.0  0.71821  0.74269  0.91042  1.0000
  Fe  Fe127     1.0  0.62006  0.77259  0.85199  1.0000
  S   S253      1.0  0.56390  0.76161  0.84583  1.0000
  Fe  Fe128     1.0  0.67129  0.79976  0.87074  1.0000
  S   S254      1.0  0.67524  0.82626  0.88752  1.0000
  S   S255      1.0  0.66715  0.75553  0.83998  1.0000
  S   S256      1.0  0.72036  0.78417  0.86098  1.0000
  C   C1018     1.0  0.72725  0.73742  0.94661  1.0000
  H   H1817     1.0  0.72875  0.80738  0.92214  1.0000
  C   C1019     1.0  0.56837  0.75733  0.92697  1.0000
  C   C1020     1.0  0.74980  0.72347  0.95285  1.0000
  H   H1818     1.0  0.64594  0.70474  0.90365  1.0000
  H   H1819     1.0  0.78511  0.79786  0.49871  1.0000
  H   H1820     1.0  0.76136  0.71621  0.93575  1.0000
  H   H1821     1.0  0.89196  0.90560  0.72991  1.0000
  C   C1021     1.0  0.51961  0.76880  0.85524  1.0000
  H   H1822     1.0  0.80845  0.98015  0.90630  1.0000
  H   H1823     1.0  0.89301  0.91568  0.76368  1.0000
  H   H1824     1.0  0.53464  0.79288  0.87076  1.0000
  C   C1022     1.0  0.79937  0.96379  0.94164  1.0000
  H   H1825     1.0  0.54385  0.94674  0.52994  1.0000
  C   C1023     1.0  0.64622  0.71460  0.86180  1.0000
  H   H1826     1.0  0.82784  0.77597  0.97497  1.0000
  H   H1827     1.0  0.70261  0.78132  0.93863  1.0000
  C   C1024     1.0  0.77000  0.85934  0.86208  1.0000
  C   C1025     1.0  0.77349  0.84179  0.86124  1.0000
  C   C1026     1.0  0.74447  0.83158  0.86844  1.0000
  C   C1027     1.0  0.71194  0.83882  0.87756  1.0000
  C   C1028     1.0  0.70869  0.85637  0.87921  1.0000
  C   C1029     1.0  0.73742  0.86662  0.87110  1.0000
  H   H1828     1.0  0.79873  0.83605  0.85468  1.0000
  H   H1829     1.0  0.74747  0.81813  0.86716  1.0000
  H   H1830     1.0  0.68377  0.86210  0.88658  1.0000
  H   H1831     1.0  0.73448  0.88013  0.87210  1.0000
  H   H1832     1.0  0.89092  0.81462  0.62847  1.0000
  C   C1030     1.0  0.95512  0.93080  0.83309  1.0000
  C   C1031     1.0  0.95646  0.91957  0.85581  1.0000
  C   C1032     1.0  0.67058  0.77873  0.52423  1.0000
  H   H1833     1.0  0.93197  0.91413  0.86367  1.0000
  C   C1033     1.0  0.91952  0.96727  0.74729  1.0000
  H   H1834     1.0  0.79782  0.95896  0.78000  1.0000
  H   H1835     1.0  0.87957  0.98080  0.90366  1.0000
  C   C1034     1.0  0.73321  0.77436  0.68516  1.0000
  C   C1035     1.0  0.76002  0.78323  0.69876  1.0000
  C   C1036     1.0  0.75791  0.78599  0.72814  1.0000
  C   C1037     1.0  0.72910  0.77992  0.74444  1.0000
  C   C1038     1.0  0.70218  0.77116  0.73081  1.0000
  C   C1039     1.0  0.70422  0.76846  0.70142  1.0000
  H   H1836     1.0  0.78255  0.78780  0.68669  1.0000
  H   H1837     1.0  0.77903  0.79269  0.73837  1.0000
  H   H1838     1.0  0.67983  0.76641  0.74289  1.0000
  H   H1839     1.0  0.68330  0.76158  0.69123  1.0000
  C   C1040     1.0  0.85779  0.91898  0.95825  1.0000
  C   C1041     1.0  0.95287  0.77150  0.58955  1.0000
  C   C1042     1.0  0.95795  0.78064  0.56465  1.0000
  C   C1043     1.0  0.82615  0.96208  0.71283  1.0000
  H   H1840     1.0  0.93499  0.78411  0.55190  1.0000
  C   C1044     1.0  0.52594  0.93800  0.58951  1.0000
  H   H1841     1.0  0.70323  0.86649  0.68463  1.0000
  H   H1842     1.0  0.71450  0.89792  0.64786  1.0000
  H   H1843     1.0  0.66422  0.82551  0.48703  1.0000
  H   H1844     1.0  0.55098  0.91471  0.57660  1.0000
  H   H1845     1.0  0.85202  0.83313  0.93454  1.0000
  H   H1846     1.0  0.81193  0.90919  0.60903  1.0000
  H   H1847     1.0  0.95092  0.98703  0.72770  1.0000
  C   C1045     1.0  0.73917  0.93286  0.68133  1.0000
  C   C1046     1.0  0.76789  0.92578  0.69693  1.0000
  C   C1047     1.0  0.76780  0.92613  0.72669  1.0000
  C   C1048     1.0  0.73979  0.93431  0.74133  1.0000
  C   C1049     1.0  0.71087  0.94114  0.72574  1.0000
  C   C1050     1.0  0.71033  0.94028  0.69602  1.0000
  H   H1848     1.0  0.79041  0.92002  0.68590  1.0000
  H   H1849     1.0  0.78966  0.92036  0.73828  1.0000
  H   H1850     1.0  0.68885  0.94738  0.73673  1.0000
  H   H1851     1.0  0.68809  0.94584  0.68446  1.0000
  C   C1051     1.0  0.70685  0.86758  0.55964  1.0000
  C   C1052     1.0  0.70225  0.85023  0.56280  1.0000
  C   C1053     1.0  0.73215  0.83919  0.56522  1.0000
  C   C1054     1.0  0.76692  0.84547  0.56469  1.0000
  C   C1055     1.0  0.77152  0.86274  0.56076  1.0000
  C   C1056     1.0  0.74164  0.87376  0.55829  1.0000
  H   H1852     1.0  0.67538  0.84535  0.56373  1.0000
  H   H1853     1.0  0.72825  0.82593  0.56826  1.0000
  H   H1854     1.0  0.79835  0.86763  0.55963  1.0000
  H   H1855     1.0  0.74546  0.88703  0.55503  1.0000
  C   C1057     1.0  0.66932  0.89584  0.67552  1.0000
  H   H1856     1.0  0.65127  0.89083  0.65920  1.0000
  H   H1857     1.0  0.66204  0.89054  0.69641  1.0000
  H   H1858     1.0  0.66522  0.90967  0.67627  1.0000
  H   H1859     1.0  0.99310  0.96435  0.93327  1.0000
  C   C1058     1.0  0.90626  0.84866  0.63003  1.0000
  C   C1059     1.0  0.78974  0.98441  0.79300  1.0000
  H   H1860     1.0  0.80860  0.98366  0.81100  1.0000
  H   H1861     1.0  0.72845  0.84666  0.61994  1.0000
  C   C1060     1.0  0.91934  0.80718  0.66592  1.0000
  C   C1061     1.0  0.91861  0.81032  0.63367  1.0000
  C   C1062     1.0  0.83921  0.97411  0.75989  1.0000
  H   H1862     1.0  0.98749  0.81571  0.65256  1.0000
  C   C1063     1.0  0.80741  0.97917  0.92900  1.0000
  H   H1863     1.0  0.78887  0.86412  0.62524  1.0000
  H   H1864     1.0  0.89438  0.97475  0.94603  1.0000
  C   C1064     1.0  0.71241  0.74649  0.96917  1.0000
  H   H1865     1.0  0.83954  0.98493  0.68916  1.0000
  C   C1065     1.0  0.88975  0.94212  0.93153  1.0000
  C   C1066     1.0  0.72161  0.73611  0.49658  1.0000
  H   H1866     1.0  0.50985  0.69874  0.94526  1.0000
  C   C1067     1.0  0.90724  0.82443  0.54515  1.0000
  C   C1068     1.0  0.62890  0.71923  0.95148  1.0000
  H   H1867     1.0  0.86320  0.86678  0.71234  1.0000
  H   H1868     1.0  0.76017  0.86816  0.70717  1.0000
  H   H1869     1.0  0.66126  0.80643  0.93717  1.0000
  C   C1069     1.0  0.99161  0.95206  0.92271  1.0000
  H   H1870     1.0  0.68098  0.71757  0.49029  1.0000
  H   H1871     1.0  0.72497  0.89725  0.68507  1.0000
  H   H1872     1.0  0.66294  0.86121  0.50058  1.0000
  C   C1070     1.0  0.51261  0.78462  0.86683  1.0000
  H   H1873     1.0  0.98458  0.80126  0.62432  1.0000
  C   C1071     1.0  0.94268  0.83931  0.63448  1.0000
  H   H1874     1.0  0.68563  0.76899  0.51207  1.0000
  H   H1875     1.0  0.88334  0.84119  0.63763  1.0000
  H   H1876     1.0  0.77736  0.88544  0.68904  1.0000
  C   C1072     1.0  0.67261  0.79574  0.50939  1.0000
  C   C1073     1.0  0.69231  0.82937  0.49087  1.0000
  C   C1074     1.0  0.81581  0.97928  0.69945  1.0000
  C   C1075     1.0  0.85583  0.94492  0.74906  1.0000
  C   C1076     1.0  0.56690  0.71931  0.93203  1.0000
  N   N57       1.0  0.92184  0.95326  0.92758  1.0000
  H   H1877     1.0  0.68338  0.80678  0.72272  1.0000
  H   H1878     1.0  0.69879  0.86887  0.64750  1.0000
  C   C1077     1.0  0.79746  0.96301  0.97130  1.0000
  H   H1879     1.0  0.52745  0.74934  0.49070  1.0000
  H   H1880     1.0  0.82378  0.87336  0.73186  1.0000
  H   H1881     1.0  0.80612  0.74771  0.92475  1.0000
  H   H1882     1.0  0.92192  0.79789  0.62346  1.0000
  H   H1883     1.0  0.58829  0.78118  0.94206  1.0000
  C   C1078     1.0  0.54437  0.71873  0.95949  1.0000
  H   H1884     1.0  0.65207  0.70219  0.85216  1.0000
  H   H1885     1.0  0.81546  0.67968  0.48807  1.0000
  H   H1886     1.0  0.91371  0.97492  0.76627  1.0000
  C   C1079     1.0  0.70859  0.89173  0.66832  1.0000
  H   H1887     1.0  0.84304  0.79734  0.97159  1.0000
  H   H1888     1.0  0.72222  0.85217  0.48099  1.0000
  C   C1080     1.0  0.88507  0.96992  0.88982  1.0000
  C   C1081     1.0  0.92056  0.96056  0.89812  1.0000
  C   C1082     1.0  0.66969  0.80064  0.95742  1.0000
  H   H1889     1.0  0.54965  0.72449  0.91482  1.0000
  H   H1890     1.0  0.92712  0.81603  0.53440  1.0000
  H   H1891     1.0  0.76214  0.97208  0.68650  1.0000
  H   H1892     1.0  0.62250  0.75295  0.94267  1.0000
  H   H1893     1.0  0.58777  0.74677  0.96570  1.0000
  C   C1083     1.0  0.98728  0.93768  0.82307  1.0000
  H   H1894     1.0  0.71220  0.78567  0.97483  1.0000
  C   C1084     1.0  0.52886  0.95104  0.51098  1.0000
  H   H1895     1.0  0.57760  0.75963  0.90515  1.0000
  H   H1896     1.0  0.62889  0.72205  0.84720  1.0000
  H   H1897     1.0  0.88533  0.82896  0.58633  1.0000
  C   C1085     1.0  0.88713  0.97680  0.85978  1.0000
  H   H1898     1.0  0.55115  0.77296  0.96232  1.0000
  C   C1086     1.0  0.62739  0.71224  0.89015  1.0000
  H   H1899     1.0  0.89046  0.78370  0.66369  1.0000
  H   H1900     1.0  0.53385  0.70311  0.47764  1.0000
  C   C1087     1.0  0.95417  0.97366  0.73403  1.0000
  H   H1901     1.0  0.82459  0.83715  0.90389  1.0000
  H   H1902     1.0  0.94848  0.83888  0.65741  1.0000
  N   N58       1.0  0.69888  0.84557  0.77948  1.0000
  C   C1088     1.0  0.71296  0.86083  0.76439  1.0000
  C   C1089     1.0  0.67991  0.83425  0.75915  1.0000
  C   C1090     1.0  0.67175  0.85172  0.80116  1.0000
  C   C1091     1.0  0.72833  0.83603  0.79475  1.0000
  C   C1092     1.0  0.75918  0.82867  0.77634  1.0000
  C   C1093     1.0  0.73168  0.87398  0.78300  1.0000
  C   C1094     1.0  0.64874  0.83814  0.81570  1.0000
  C   C1095     1.0  0.69481  0.83320  0.72857  1.0000
  C   C1096     1.0  0.67751  0.81905  0.71236  1.0000
  C   C1097     1.0  0.78965  0.82147  0.79441  1.0000
  C   C1098     1.0  0.74386  0.88895  0.76542  1.0000
  C   C1099     1.0  0.62105  0.84607  0.83577  1.0000
  H   H1903     1.0  0.69048  0.86743  0.75319  1.0000
  H   H1904     1.0  0.73262  0.85725  0.74784  1.0000
  H   H1905     1.0  0.67894  0.82124  0.76793  1.0000
  H   H1906     1.0  0.65137  0.83847  0.75656  1.0000
  H   H1907     1.0  0.65279  0.86109  0.79149  1.0000
  H   H1908     1.0  0.68537  0.85827  0.81860  1.0000
  H   H1909     1.0  0.74012  0.84400  0.81115  1.0000
  H   H1910     1.0  0.71722  0.82516  0.80644  1.0000
  H   H1911     1.0  0.77092  0.83820  0.76219  1.0000
  H   H1912     1.0  0.74904  0.81818  0.76369  1.0000
  H   H1913     1.0  0.71326  0.87906  0.79945  1.0000
  H   H1914     1.0  0.75583  0.86844  0.79339  1.0000
  H   H1915     1.0  0.66611  0.82952  0.82812  1.0000
  H   H1916     1.0  0.63371  0.83063  0.80038  1.0000
  H   H1917     1.0  0.68850  0.84510  0.71724  1.0000
  H   H1918     1.0  0.72421  0.83108  0.72775  1.0000
  H   H1919     1.0  0.64793  0.82105  0.71123  1.0000
  H   H1920     1.0  0.68853  0.81851  0.69060  1.0000
  H   H1921     1.0  0.84449  0.91507  0.93857  1.0000
  H   H1922     1.0  0.77920  0.81240  0.81017  1.0000
  H   H1923     1.0  0.80956  0.81477  0.78082  1.0000
  H   H1924     1.0  0.75569  0.89838  0.77950  1.0000
  H   H1925     1.0  0.72076  0.89506  0.75440  1.0000
  H   H1926     1.0  0.63450  0.85365  0.85197  1.0000
  H   H1927     1.0  0.60162  0.85418  0.82404  1.0000
  H   H1928     1.0  0.60606  0.83604  0.84675  1.0000
  C   C1100     1.0  0.61701  0.72940  0.90368  1.0000
  H   H1929     1.0  0.91623  0.81908  0.67767  1.0000
  H   H1930     1.0  0.69480  0.65758  0.48497  1.0000
  H   H1931     1.0  0.54224  0.96229  0.50234  1.0000
  C   C1101     1.0  0.79745  0.89724  0.60705  1.0000
  H   H1932     1.0  0.95936  0.93758  0.95144  1.0000
  H   H1933     1.0  0.71966  0.80629  0.52787  1.0000
  H   H1934     1.0  0.91418  0.83771  0.54115  1.0000
  C   C1102     1.0  0.81056  0.75620  0.90647  1.0000
  H   H1935     1.0  0.92493  0.95416  0.75421  1.0000
  C   C1103     1.0  0.71198  0.80165  0.50676  1.0000
  H   H1936     1.0  0.86603  0.94970  0.93859  1.0000
  H   H1937     1.0  0.90033  0.93518  0.72213  1.0000
  H   H1938     1.0  0.64212  0.77497  0.52605  1.0000
  H   H1939     1.0  0.99054  0.90624  0.88539  1.0000
  N   N59       1.0  0.77386  0.79664  0.94517  1.0000
  C   C1104     1.0  0.79728  0.80896  0.92971  1.0000
  H   H1940     1.0  0.86173  0.90776  0.97192  1.0000
  H   H1941     1.0  0.88036  0.82225  0.53614  1.0000
  H   H1942     1.0  0.82168  0.85106  0.93347  1.0000
  N   N60       1.0  0.85225  0.96241  0.73695  1.0000
  H   H1943     1.0  0.78175  0.84281  0.65587  1.0000
  H   H1944     1.0  0.89143  0.96646  0.84458  1.0000
  H   H1945     1.0  0.77156  0.70306  0.49325  1.0000
  C   C1105     1.0  0.82335  0.81688  0.49037  1.0000
  H   H1946     1.0  0.89057  0.79319  0.69800  1.0000
  H   H1947     1.0  0.85631  0.92967  0.71041  1.0000
  H   H1948     1.0  0.95518  0.93199  0.91575  1.0000
  H   H1949     1.0  0.78981  0.80937  0.90701  1.0000
  H   H1950     1.0  0.82588  0.80483  0.92988  1.0000
  C   C1106     1.0  0.69585  0.97108  0.47770  1.0000
  H   H1951     1.0  0.75489  0.77939  0.91369  1.0000
  H   H1952     1.0  0.82908  0.94023  0.75537  1.0000
  H   H1953     1.0  0.97983  0.75967  0.62470  1.0000
  H   H1954     1.0  0.68197  0.77939  0.54573  1.0000
  H   H1955     1.0  0.94240  0.96969  0.89491  1.0000
  H   H1956     1.0  0.80099  0.95588  0.71939  1.0000
  H   H1957     1.0  0.94135  0.97680  0.94338  1.0000
  N   N61       1.0  0.60173  0.72858  0.93324  1.0000
  H   H1958     1.0  0.86183  0.96147  0.89099  1.0000
  H   H1959     1.0  0.83985  0.92809  0.96942  1.0000
  H   H1960     1.0  0.75647  0.67035  0.48477  1.0000
  C   C1107     1.0  0.54049  0.78784  0.77907  1.0000
  N   N62       1.0  0.94632  0.82206  0.62188  1.0000
  H   H1961     1.0  0.51237  0.88781  0.63306  1.0000
  H   H1962     1.0  0.53443  0.72928  0.50769  1.0000
  C   C1108     1.0  0.74747  0.74623  0.48389  1.0000
  C   C1109     1.0  0.87318  0.93153  0.72923  1.0000
  H   H1963     1.0  0.69323  0.83280  0.51352  1.0000
  H   H1964     1.0  0.73282  0.81508  0.95697  1.0000
  H   H1965     1.0  0.81515  0.78227  0.89669  1.0000
  C   C1110     1.0  0.88875  0.79584  0.67507  1.0000
  H   H1966     1.0  0.80348  0.83172  0.80535  1.0000
  H   H1967     1.0  0.76229  0.98179  0.80102  1.0000
  H   H1968     1.0  0.85066  0.90934  0.74889  1.0000
  C   C1111     1.0  0.82529  0.83773  0.92720  1.0000
  C   C1112     1.0  0.79541  0.82733  0.94030  1.0000
  H   H1969     1.0  0.79825  0.82799  0.96345  1.0000
  H   H1970     1.0  0.75860  0.82723  0.50961  1.0000
  C   C1113     1.0  0.59634  0.74639  0.94333  1.0000
  H   H1971     1.0  0.54184  0.75132  0.92623  1.0000
  H   H1972     1.0  0.76465  0.88506  0.74983  1.0000
  H   H1973     1.0  0.77374  0.89978  0.64784  1.0000
  H   H1974     1.0  0.59761  0.73559  0.88899  1.0000
  H   H1975     1.0  0.87120  0.94497  0.76902  1.0000
  C   C1114     1.0  0.87737  0.91453  0.74395  1.0000
  H   H1976     1.0  0.95524  0.83488  0.58203  1.0000
  H   H1977     1.0  0.72961  0.79049  0.50326  1.0000
  H   H1978     1.0  0.65654  0.80495  0.52197  1.0000
  C   C1115     1.0  0.52578  0.92131  0.58071  1.0000
  H   H1979     1.0  0.62551  0.70544  0.94967  1.0000
  H   H1980     1.0  0.88182  0.93664  0.91111  1.0000
  C   C1116     1.0  0.50730  0.71158  0.95408  1.0000
  C   C1117     1.0  0.95627  0.94299  0.93004  1.0000
  H   H1981     1.0  0.96186  0.96607  0.71533  1.0000
  H   H1982     1.0  0.73906  0.81404  0.65465  1.0000
  H   H1983     1.0  0.67214  0.72099  0.86471  1.0000
  H   H1984     1.0  0.86146  0.98342  0.85451  1.0000
  H   H1985     1.0  0.54003  0.73133  0.96873  1.0000
  H   H1986     1.0  0.82693  0.86323  0.66922  1.0000
  H   H1987     1.0  0.90675  0.86307  0.66890  1.0000
  H   H1988     1.0  0.57204  0.70600  0.92615  1.0000
  H   H1989     1.0  0.92752  0.87333  0.63899  1.0000
  C   C1118     1.0  0.83642  0.87310  0.71060  1.0000
  C   C1119     1.0  0.90626  0.82074  0.57672  1.0000
  H   H1990     1.0  0.71747  0.81578  0.62092  1.0000
  C   C1120     1.0  0.71527  0.87260  0.66579  1.0000
  H   H1991     1.0  0.63989  0.96576  0.48333  1.0000
  H   H1992     1.0  0.96071  0.81290  0.58039  1.0000
  C   C1121     1.0  0.94383  0.82297  0.59009  1.0000
  H   H1993     1.0  0.71744  0.73671  0.51911  1.0000
  C   C1122     1.0  0.92019  0.96758  0.94819  1.0000
  H   H1994     1.0  0.98654  0.94638  0.80551  1.0000
  C   C1123     1.0  0.90503  0.86530  0.64583  1.0000
  H   H1995     1.0  0.84551  0.80743  0.48797  1.0000
  C   C1124     1.0  0.81315  0.86359  0.68998  1.0000
  H   H1996     1.0  0.84031  0.88617  0.70313  1.0000
  H   H1997     1.0  0.89605  0.96174  0.70659  1.0000
  H   H1998     1.0  0.77202  0.89998  0.59572  1.0000
  H   H1999     1.0  0.64131  0.73732  0.90325  1.0000
  H   H2000     1.0  0.83717  0.95428  0.69535  1.0000
  C   C1125     1.0  0.73568  0.80351  0.94409  1.0000
  N   N63       1.0  0.75386  0.86666  0.66213  1.0000
  H   H2001     1.0  0.94480  0.80076  0.67223  1.0000
  H   H2002     1.0  0.70029  0.84029  0.64879  1.0000
  C   C1126     1.0  0.78414  0.79476  0.97576  1.0000
  C   C1127     1.0  0.77494  0.87165  0.68766  1.0000
  H   H2003     1.0  0.60304  0.70485  0.88630  1.0000
  H   H2004     1.0  0.74782  0.87477  0.61873  1.0000
  C   C1128     1.0  0.70594  0.79147  0.95418  1.0000
  C   C1129     1.0  0.78699  0.97723  0.67700  1.0000
  C   C1130     1.0  0.78945  0.89015  0.63627  1.0000
  C   C1131     1.0  0.72814  0.83977  0.64020  1.0000
  H   H2005     1.0  0.74788  0.84237  0.68237  1.0000
  C   C1132     1.0  0.98331  0.76685  0.60551  1.0000
  C   C1133     1.0  0.75429  0.84770  0.66125  1.0000
  H   H2006     1.0  0.81444  0.88831  0.59471  1.0000
  H   H2007     1.0  0.76439  0.82032  0.62380  1.0000
  H   H2008     1.0  0.86227  0.80199  0.67083  1.0000
  H   H2009     1.0  0.76935  0.83337  0.93429  1.0000
  H   H2010     1.0  0.92541  0.95044  0.88233  1.0000
  H   H2011     1.0  0.54343  0.78214  0.92808  1.0000
  H   H2012     1.0  0.81127  0.85046  0.69775  1.0000
  H   H2013     1.0  0.81551  0.88841  0.64717  1.0000
  H   H2014     1.0  0.69392  0.75678  0.96506  1.0000
  C   C1134     1.0  0.73795  0.82137  0.63468  1.0000
  H   H2015     1.0  0.55789  0.71037  0.97507  1.0000
  C   C1135     1.0  0.76940  0.87330  0.63477  1.0000
  H   H2016     1.0  0.50258  0.78100  0.74770  1.0000
  H   H2017     1.0  0.84854  0.71595  0.48701  1.0000
  H   H2018     1.0  0.54357  0.80071  0.77051  1.0000
  H   H2019     1.0  0.49537  0.74599  0.84151  1.0000
  C   C1136     1.0  0.80023  0.97156  0.77051  1.0000
  C   C1137     1.0  0.81106  0.77446  0.91586  1.0000
  H   H2020     1.0  0.82368  0.82166  0.51223  1.0000
  C   C1138     1.0  0.56260  0.77443  0.94081  1.0000
  C   C1139     1.0  0.89404  0.92679  0.95171  1.0000
  C   C1140     1.0  0.88788  0.96850  0.72613  1.0000
  C   C1141     1.0  0.98298  0.81487  0.62949  1.0000
  H   H2021     1.0  0.89769  0.80756  0.57946  1.0000
  C   C1142     1.0  0.98970  0.91512  0.86808  1.0000
  H   H2022     1.0  0.83465  0.77595  0.92952  1.0000
  H   H2023     1.0  0.90267  0.85170  0.60740  1.0000
  H   H2024     1.0  0.65680  0.72154  0.94382  1.0000
  C   C1143     1.0  0.77523  0.77977  0.93067  1.0000
  C   C1144     1.0  0.99283  0.78539  0.55629  1.0000
  H   H2025     1.0  0.54335  0.78813  0.80233  1.0000
  H   H2026     1.0  0.85663  0.97271  0.77877  1.0000
  H   H2027     1.0  0.87940  0.87212  0.64122  1.0000
  H   H2028     1.0  0.88542  0.98190  0.71965  1.0000
  H   H2029     1.0  0.56996  0.73835  0.48668  1.0000
  H   H2030     1.0  0.56243  0.77969  0.77041  1.0000
  H   H2031     1.0  0.79669  0.96864  0.66011  1.0000
  H   H2032     1.0  0.83068  0.70502  0.51747  1.0000
  H   H2033     1.0  0.78031  0.97285  0.75336  1.0000
  N   N64       1.0  0.71843  0.81502  0.48484  1.0000
  H   H2034     1.0  0.64895  0.79161  0.96407  1.0000
  C   C1145     1.0  0.82375  0.71317  0.49917  1.0000
  H   H2035     1.0  0.67117  0.81058  0.97361  1.0000
  H   H2036     1.0  0.65976  0.79474  0.48850  1.0000
  C   C1146     1.0  0.54044  0.73675  0.48848  1.0000
  C   C1147     1.0  0.75593  0.82152  0.48836  1.0000
  H   H2037     1.0  0.91137  0.91698  0.94162  1.0000
  H   H2038     1.0  0.76756  0.76962  0.94564  1.0000
  H   H2039     1.0  0.78898  0.75441  0.89081  1.0000
  H   H2040     1.0  0.96330  0.84767  0.62541  1.0000
  C   C1148     1.0  0.78744  0.80877  0.48435  1.0000
  C   C1149     1.0  0.50406  0.78088  0.77099  1.0000
  H   H2041     1.0  0.53027  0.94083  0.49520  1.0000
  H   H2042     1.0  0.50371  0.76766  0.77837  1.0000
  H   H2043     1.0  0.90642  0.93008  0.97195  1.0000
  H   H2044     1.0  0.81228  0.72520  0.50728  1.0000
  H   H2045     1.0  0.83666  0.75268  0.89644  1.0000
  H   H2046     1.0  0.97628  0.97260  0.74959  1.0000
  C   C1150     1.0  0.79627  0.70482  0.48044  1.0000
  C   C1151     1.0  0.70092  0.72522  0.48009  1.0000
  H   H2047     1.0  0.99371  0.95402  0.89957  1.0000
  H   H2048     1.0  0.90936  0.98578  0.85762  1.0000
  C   C1152     1.0  0.66626  0.85808  0.47792  1.0000
