data_image0
_chemical_formula_structural       FeS2FeS2FeSFeS3FeS2FeS2FeSFeS3FeS2H3FeS2C2H2C7H4C2H3C2H2CHC2H2C7H4CH4NH4C3H2CHCH2CH5CH2CH3CH3NH5C2H9CHCH4C2H8CH2CH3C5H3C2H2CH6C2H2CH3NCHC9H10CH7CH2CH3CHCNCHC2H9NC10HCH7CHCH2C2H3CH3CH2CH2CHCH4CH5CH4CH6FeS2FeS2FeSFeS3FeS2FeS2FeSFeS5HCHCHC7H4C3H2C2H2C3H3C6H6C2HCHCNCHCH6NC12H27CH2C3HC2H8CH2CH2SCHCH3NH5C2HCHCH4CHCHCSH2CH4C2H2CHCFeCH6CH10CH4CHCHCH2C2H3C2H2CH9CHCH3C3H3NHC3HCH3C2HC2H3CFeCH5C2H2CH7CH3FeS2FeS2FeSFeS3FeS2FeS2FeSFeS3FeS2FeS2C2H4C2H2C6H4C4H5C2H2C6H4C2NH3CH3C2H3CH8C3HCH7CH2NCH2CHC2HCH2CH16CH2CH5CHC2H2CH5C5H4CH2CHNH7CH2NC12H28NC5H2C2HCH8C2H4C3HC2H2CH2C5H2CH3CH4CHCH6CH2C2HCHCHFeS2FeS2FeSFeS3FeS2FeS2FeSFeS3FeHSCS2CHC6H7C3HCHC2HCHCH2C6H5C2H3NC12H28FeH2C2H3CHCH2CH6CH6C2HNH2CH2C2H5CHC3HSCH2CH3CH4CHCH2N2H2CH4C4HC3H5C2H2CH3CH4CHCH2CHCHNH6C2HCH2C2HFeS2FeS2FeSFeS3FeS2FeS2FeSFeS3H2SHS2CH2C6H5C3H2C3H3C2H2C2HCH3C6H6C3H2CHCH2CH4CH2CHNHFeH2CH3C2H11CH2CH4C2H2C2H2C6H3CH7C2H3CHCH3CHC4HC2H4CH6CH4CH7C2HCH3NCFeCHC2H4C8SH4NH11CH6CNCH2CHC2H2CH6CH2CHCH2NH3CH2CH2CHFeS2FeS2FeSFeS3FeS2FeS2FeSFeS3FeS2FeS2C6H5C2H2C3H3C3H3C6H4C2H3CH2CH3C2NH5C2H4C2HCH3CHCH3C2H8C3HCH5CHCH5C3HCHC2H4CH7CH3C2HCH3CH10NH2NC6HC4H17CH4CH8CHNH2C2HC2HNC12H6CH8C2HCH2C2HCH3CH5CH6NFeS2FeS2FeSFeS3FeS2FeS2FeSFeS3FeS2HFeSCSH3C6H4C3H6C4H2C6H4C3H3C3H4CHNC4HC2HC3H2CH12CH2CHC2H9C2H12NC10HCH19C2HCHCH6CH4CH5CH2CH5C2H5CH2C2H3CHCHNHCHCH3CH2CHC2H2CH5C2H3CHCH2C3NCH3NCH2C2H4C2H5CHCH2CH2CH3FeS2FeS2FeSFeS3FeS2FeS2FeSFeS3HS3C6H4CH3C2H6C2H3CH2C2H3CH2SHC6H4C2H5CHNHCH6CH8CH5C2H3CH3C4H2FeHCHC2HC7H4C2NH12C3H6CHCH7C2HCFeCHCH7CHCH3NC12H29C6HCHCH3CH3CH2CH2C2HC2H2CHCHCFeS2FeS2FeSFeS3FeS2FeS2FeSFeS3FeS2FeS2CH2C2H2CHCHC6H4CHCH2C2H6C6H4C2H3C2HCHCNH17CHCH5C2HNC4H3CH7C2HCH3C2H2NC8H3CH4CH9CHCHCH13CH2C2HCH6NC3HCH4CH3C2H4C2H2CH3C3H2CH3CH3CH3C3HNH3NC6H4CH4CHCH2CH2CH2CHCFeS2FeS2FeSFeS3FeS2FeS2FeSFeS3HCSHSHCHCH2C6H5C2HCH4C2HCHC2H3C3HCHCHC6H5CH3NC3FeSHCH3NH3CHCH4CH5CH5CH4CHNCH3FeH2CH2C3H3CHCH4CHCH4CHC3H3NC10HCH26CSHCHNHC4HCH2CHCHC2HCH8CH4C2H2CHC2H2C2HNCH5CH5CHCH4CH2CH2CHC2H3C2H8CFeS2FeS2FeSFeS3FeS2FeS2FeSFeS3FeS2CH2FeSCSH2C6H3C2SHC7H4CHCH2C6H4C2H8CH4FeCFeH12CHC2H3CH4NHC6HNH6CH3CH4NCH2CHCH4SHCHC2HCNC4HC3H2C2H8C2H5CHC2H9CH13CH6C2H8CHCHCHCH2CHCH2CH3C4HCH2C2H2CHCH2NCFeS2FeS2FeSFeS3FeS2FeS2FeSFeS3H2CH4CH3CH3C2HCHC7H4CHC2HC6H4C3H3C2H4CH2CH3CH3CHCHCNC3H7CH4CHNC6HCH2CH7CHCH9SC2H3CH4CH2CH3SH5CH3CHC2HCHC2H3C3H7C2HC2H2C2H2CHC2H8NHC4HNH4CH6CH3CHCH2CH5C2HC3HCH2CHCH3CH5CNH4CH3CHCH10FeS2FeS2FeSFeS3FeS2FeS2FeSFeS3FeS2FeS2C2NCHCHC9H4CH2C6H6CHC3H6C2H2NH2CH5C2H3CH2C5H3CH3C2H3C4HNC2H2C2H5CHC2HC4H5CH9C5HCH3CHCH3CHCH12CHNH2CH3CH3CHCH3CH4CH5CHCH3C3H2CH7CH7CHCHCH4CH2C2HCHCHCH5CH5CNCHC2NCHFeS2FeS2FeSFeS3FeS2FeS2FeSFeS3H2SCSHCH3CH3C6H5C2H3CH2C2HCH2C6H5C2H2C2H6C2H2SCHC4H2C3H3C2HCH8C3HCHC2H2CH7C2H4CH2CHFeH4CH2CH5CH5NH3CH3CHC3HCHC2HSH4CH2CFeH3CH3C3HCH2CHCHCH3CH2CH6CHCNC2NH3CH5NHC4H2CH4C3H17CHCHFeS2FeS2FeSFeS3FeS2FeS2FeSFeS3FeS2FeS2CH4CH2C7H6C2H3C2H3C2H3C6H5NHCHC2HCHC2H8CH3CH5C2H6CNC4H2C2NHC2H8C2HCH5CH3CHCH7CH2C2H2C2H2CNH3CH2CH3C2NH5CH4C2HC2HCH3CH3CHCHCHCH2CH5CHNCHCH9CHCHC2HC3H2CH5CH4CHC2H3C2H5CH2CH2C2HC2FeS2FeS2FeSFeS3FeS2FeS2FeSFeS3H2SFeS2CH2C2H2C6H4C3HCHCH2CHCH2C6H8CHC2H5CHCHC8H4CHCH7CH4CH7CH3CH7CH4CH3CNCH5FeH2CHCH3C2H4C2H5C4SH2C3HCHCH4CH2C2HCH2CHCH3CH3CH5CH3CH2CH2C3H2N2H3CH6CNHCH3CHCH2C2H2C2H6C2H4CH2CH2
_chemical_formula_sum              "Fe160 S320 H2560 C1440 N80"
_cell_length_a       54.9352
_cell_length_b       58.2717
_cell_length_c       59.035
_cell_angle_alpha    88.9378
_cell_angle_beta     90.1114
_cell_angle_gamma    92.3039

_space_group_name_H-M_alt    "P 1"
_space_group_IT_number       1

loop_
  _space_group_symop_operation_xyz
  'x, y, z'

loop_
  _atom_site_type_symbol
  _atom_site_label
  _atom_site_symmetry_multiplicity
  _atom_site_fract_x
  _atom_site_fract_y
  _atom_site_fract_z
  _atom_site_occupancy
  Fe  Fe1       1.0  0.36825  0.08559  0.11022  1.0000
  S   S1        1.0  0.40542  0.09228  0.09557  1.0000
  S   S2        1.0  0.34966  0.05037  0.10775  1.0000
  Fe  Fe2       1.0  0.36104  0.13646  0.12049  1.0000
  S   S3        1.0  0.39821  0.14701  0.10640  1.0000
  S   S4        1.0  0.33024  0.16073  0.12871  1.0000
  Fe  Fe3       1.0  0.38972  0.12264  0.07805  1.0000
  S   S5        1.0  0.40358  0.13077  0.04257  1.0000
  Fe  Fe4       1.0  0.41135  0.11575  0.12476  1.0000
  S   S6        1.0  0.44797  0.11444  0.14218  1.0000
  S   S7        1.0  0.35185  0.11435  0.09031  1.0000
  S   S8        1.0  0.37492  0.10674  0.14127  1.0000
  Fe  Fe5       1.0  0.10988  0.38139  0.07289  1.0000
  S   S9        1.0  0.09011  0.41399  0.07676  1.0000
  S   S10       1.0  0.10039  0.35960  0.04260  1.0000
  Fe  Fe6       1.0  0.13810  0.38652  0.11742  1.0000
  S   S11       1.0  0.12028  0.41980  0.12479  1.0000
  S   S12       1.0  0.17019  0.37622  0.14001  1.0000
  Fe  Fe7       1.0  0.08544  0.40242  0.11293  1.0000
  S   S13       1.0  0.05041  0.40863  0.13135  1.0000
  Fe  Fe8       1.0  0.12603  0.42908  0.08821  1.0000
  S   S14       1.0  0.13959  0.46379  0.07455  1.0000
  S   S15       1.0  0.10242  0.36833  0.10854  1.0000
  S   S16       1.0  0.14647  0.39731  0.08120  1.0000
  Fe  Fe9       1.0  0.27334  0.24301  0.22598  1.0000
  S   S17       1.0  0.23388  0.23380  0.21997  1.0000
  S   S18       1.0  0.30576  0.22233  0.21424  1.0000
  H   H1        1.0  0.30089  0.06881  0.04146  1.0000
  H   H2        1.0  0.25044  0.16696  0.17087  1.0000
  H   H3        1.0  0.38068  0.22494  0.12329  1.0000
  Fe  Fe10      1.0  0.22792  0.27195  0.21749  1.0000
  S   S19       1.0  0.20020  0.28252  0.19006  1.0000
  S   S20       1.0  0.26813  0.28117  0.22121  1.0000
  C   C1        1.0  0.13059  0.48834  0.08895  1.0000
  C   C2        1.0  0.11648  0.48621  0.10860  1.0000
  H   H4        1.0  0.37744  0.16989  0.01493  1.0000
  H   H5        1.0  0.10978  0.46944  0.11446  1.0000
  C   C3        1.0  0.40490  0.04520  0.04236  1.0000
  C   C4        1.0  0.17766  0.35017  0.15449  1.0000
  C   C5        1.0  0.16265  0.33021  0.15386  1.0000
  C   C6        1.0  0.16981  0.30982  0.16492  1.0000
  C   C7        1.0  0.19176  0.30915  0.17731  1.0000
  C   C8        1.0  0.20658  0.32923  0.17825  1.0000
  C   C9        1.0  0.19964  0.34950  0.16680  1.0000
  H   H6        1.0  0.14548  0.33048  0.14494  1.0000
  H   H7        1.0  0.15812  0.29447  0.16411  1.0000
  H   H8        1.0  0.22356  0.32905  0.18756  1.0000
  H   H9        1.0  0.21143  0.36479  0.16754  1.0000
  C   C10       1.0  0.02478  0.39048  0.09536  1.0000
  C   C11       1.0  0.02360  0.40179  0.11597  1.0000
  H   H10       1.0  0.16852  0.34607  0.09880  1.0000
  H   H11       1.0  0.48932  0.13561  0.07051  1.0000
  H   H12       1.0  0.04220  0.38577  0.08878  1.0000
  C   C12       1.0  0.49717  0.11759  0.13350  1.0000
  C   C13       1.0  0.47365  0.11973  0.12456  1.0000
  H   H13       1.0  0.19029  0.43234  0.17539  1.0000
  H   H14       1.0  0.18423  0.43323  0.09173  1.0000
  C   C14       1.0  0.14075  0.36894  0.01567  1.0000
  H   H15       1.0  0.13273  0.33012  0.10571  1.0000
  C   C15       1.0  0.38814  0.12311  0.01743  1.0000
  C   C16       1.0  0.36365  0.11562  0.01744  1.0000
  H   H16       1.0  0.09869  0.29231  0.08587  1.0000
  H   H17       1.0  0.35381  0.11392  0.03324  1.0000
  C   C17       1.0  0.22960  0.10289  0.24856  1.0000
  C   C18       1.0  0.32415  0.17811  0.15251  1.0000
  C   C19       1.0  0.30328  0.19142  0.15218  1.0000
  C   C20       1.0  0.29747  0.20524  0.17070  1.0000
  C   C21       1.0  0.31242  0.20585  0.18993  1.0000
  C   C22       1.0  0.33335  0.19264  0.19019  1.0000
  C   C23       1.0  0.33922  0.17890  0.17164  1.0000
  H   H18       1.0  0.29150  0.19106  0.13748  1.0000
  H   H19       1.0  0.28149  0.21548  0.17007  1.0000
  H   H20       1.0  0.34515  0.19302  0.20489  1.0000
  H   H21       1.0  0.35537  0.16887  0.17220  1.0000
  C   C24       1.0  0.36603  0.02626  0.11620  1.0000
  H   H22       1.0  0.37609  0.01038  0.18511  1.0000
  H   H23       1.0  0.39050  0.04475  0.13853  1.0000
  H   H24       1.0  0.03739  0.31705  0.05119  1.0000
  H   H25       1.0  0.30576  0.13933  0.02898  1.0000
  N   N1        1.0  0.38043  0.04119  0.03106  1.0000
  H   H26       1.0  0.20892  0.31552  0.01512  1.0000
  H   H27       1.0  0.22966  0.42711  0.19413  1.0000
  H   H28       1.0  0.34082  0.00211  0.15908  1.0000
  H   H29       1.0  0.35499  0.01356  0.02171  1.0000
  C   C25       1.0  0.27664  0.16537  0.23786  1.0000
  C   C26       1.0  0.34174  0.16829  0.04735  1.0000
  C   C27       1.0  0.23688  0.17116  0.18392  1.0000
  H   H30       1.0  0.18217  0.34111  0.03611  1.0000
  H   H31       1.0  0.21638  0.44034  0.08981  1.0000
  C   C28       1.0  0.22373  0.19221  0.17522  1.0000
  H   H32       1.0  0.35229  0.15319  0.05286  1.0000
  C   C29       1.0  0.35921  0.00463  0.10765  1.0000
  H   H33       1.0  0.31538  0.12660  0.05552  1.0000
  H   H34       1.0  0.19969  0.38276  0.06695  1.0000
  C   C30       1.0  0.22279  0.44470  0.19199  1.0000
  H   H35       1.0  0.29819  0.12247  0.22392  1.0000
  H   H36       1.0  0.19416  0.47313  0.10368  1.0000
  H   H37       1.0  0.40188  0.01727  0.06835  1.0000
  H   H38       1.0  0.03352  0.36855  0.04002  1.0000
  H   H39       1.0  0.02486  0.33782  0.06995  1.0000
  C   C31       1.0  0.15059  0.46953  0.16296  1.0000
  H   H40       1.0  0.14867  0.48286  0.17597  1.0000
  H   H41       1.0  0.40972  0.06400  0.04248  1.0000
  C   C32       1.0  0.40704  0.03585  0.06708  1.0000
  H   H42       1.0  0.05623  0.34050  0.06174  1.0000
  H   H43       1.0  0.18256  0.44791  0.04942  1.0000
  H   H44       1.0  0.22611  0.38142  0.08503  1.0000
  C   C33       1.0  0.20093  0.43727  0.10173  1.0000
  H   H45       1.0  0.37315  0.20015  0.01081  1.0000
  H   H46       1.0  0.23672  0.20721  0.17315  1.0000
  H   H47       1.0  0.36753  0.01026  0.04898  1.0000
  N   N2        1.0  0.17496  0.47228  0.15120  1.0000
  H   H48       1.0  0.21342  0.44918  0.20788  1.0000
  H   H49       1.0  0.15278  0.41903  0.03323  1.0000
  H   H50       1.0  0.23305  0.13109  0.21062  1.0000
  H   H51       1.0  0.36886  0.07214  0.04712  1.0000
  H   H52       1.0  0.14555  0.46029  0.02664  1.0000
  C   C34       1.0  0.27887  0.14623  0.20072  1.0000
  C   C35       1.0  0.20514  0.44530  0.17197  1.0000
  H   H53       1.0  0.48704  0.03992  0.13490  1.0000
  H   H54       1.0  0.23430  0.27849  0.11985  1.0000
  H   H55       1.0  0.06125  0.48023  0.14104  1.0000
  H   H56       1.0  0.21530  0.18854  0.15850  1.0000
  H   H57       1.0  0.35326  0.03170  0.18556  1.0000
  H   H58       1.0  0.09214  0.31102  0.10888  1.0000
  H   H59       1.0  0.13567  0.47217  0.15051  1.0000
  H   H60       1.0  0.14830  0.43143  0.16532  1.0000
  H   H61       1.0  0.33069  0.23048  0.07433  1.0000
  C   C36       1.0  0.18878  0.31378  0.01355  1.0000
  H   H62       1.0  0.07568  0.39784  0.01917  1.0000
  C   C37       1.0  0.37224  0.01612  0.03138  1.0000
  H   H63       1.0  0.45290  0.12779  0.09467  1.0000
  H   H64       1.0  0.43938  0.05728  0.07502  1.0000
  H   H65       1.0  0.43367  0.03314  0.09405  1.0000
  H   H66       1.0  0.35962  0.04623  0.06157  1.0000
  C   C38       1.0  0.06898  0.41410  0.01185  1.0000
  C   C39       1.0  0.38369  0.18727  0.02032  1.0000
  H   H67       1.0  0.32780  0.03760  0.03180  1.0000
  H   H68       1.0  0.21161  0.34400  0.10074  1.0000
  H   H69       1.0  0.15889  0.45641  0.12163  1.0000
  H   H70       1.0  0.21509  0.43961  0.15686  1.0000
  H   H71       1.0  0.33646  0.06413  0.01732  1.0000
  H   H72       1.0  0.04429  0.34723  0.02155  1.0000
  H   H73       1.0  0.22315  0.15675  0.18526  1.0000
  H   H74       1.0  0.31829  0.13246  0.17592  1.0000
  C   C40       1.0  0.47093  0.12606  0.10174  1.0000
  H   H75       1.0  0.41761  0.20794  0.01713  1.0000
  H   H76       1.0  0.15669  0.44560  0.19126  1.0000
  C   C41       1.0  0.18758  0.43652  0.03544  1.0000
  H   H77       1.0  0.13479  0.29982  0.11045  1.0000
  H   H78       1.0  0.31709  0.05878  0.06609  1.0000
  H   H79       1.0  0.19645  0.38333  0.09747  1.0000
  C   C42       1.0  0.33609  0.05507  0.03402  1.0000
  C   C43       1.0  0.14511  0.44652  0.17586  1.0000
  C   C44       1.0  0.30926  0.23992  0.04557  1.0000
  C   C45       1.0  0.35701  0.01356  0.19000  1.0000
  C   C46       1.0  0.41042  0.19035  0.01331  1.0000
  H   H80       1.0  0.30186  0.10656  0.18542  1.0000
  H   H81       1.0  0.20491  0.42237  0.11296  1.0000
  H   H82       1.0  0.34080  0.16771  0.02856  1.0000
  C   C47       1.0  0.11856  0.44463  0.18369  1.0000
  C   C48       1.0  0.30494  0.14061  0.04772  1.0000
  H   H83       1.0  0.21190  0.48067  0.16250  1.0000
  H   H84       1.0  0.15654  0.32138  0.03160  1.0000
  C   C49       1.0  0.31916  0.06787  0.04944  1.0000
  H   H85       1.0  0.34459  0.00310  0.09539  1.0000
  H   H86       1.0  0.15080  0.37198  0.03116  1.0000
  H   H87       1.0  0.47916  0.01257  0.09995  1.0000
  H   H88       1.0  0.21525  0.29843  0.13358  1.0000
  H   H89       1.0  0.31556  0.14782  0.21543  1.0000
  H   H90       1.0  0.17512  0.43733  0.13876  1.0000
  C   C50       1.0  0.17562  0.45531  0.13222  1.0000
  C   C51       1.0  0.39647  0.00828  0.13971  1.0000
  H   H91       1.0  0.19590  0.42107  0.04295  1.0000
  H   H92       1.0  0.04078  0.48991  0.16234  1.0000
  C   C52       1.0  0.30204  0.13449  0.20957  1.0000
  H   H93       1.0  0.32644  0.08561  0.05225  1.0000
  H   H94       1.0  0.11453  0.45888  0.19517  1.0000
  H   H95       1.0  0.09638  0.32286  0.08072  1.0000
  N   N3        1.0  0.35473  0.19019  0.05493  1.0000
  C   C53       1.0  0.35570  0.19011  0.08049  1.0000
  H   H96       1.0  0.41968  0.03756  0.03266  1.0000
  C   C54       1.0  0.38063  0.18983  0.04631  1.0000
  C   C55       1.0  0.34284  0.21111  0.04502  1.0000
  C   C56       1.0  0.32261  0.22183  0.05933  1.0000
  C   C57       1.0  0.37304  0.20871  0.09108  1.0000
  C   C58       1.0  0.48594  0.00767  0.11694  1.0000
  C   C59       1.0  0.24271  0.13838  0.22557  1.0000
  C   C60       1.0  0.43310  0.03892  0.07601  1.0000
  C   C61       1.0  0.36207  0.05408  0.04441  1.0000
  C   C62       1.0  0.36832  0.21122  0.11640  1.0000
  H   H97       1.0  0.16352  0.49753  0.12630  1.0000
  H   H98       1.0  0.36152  0.17316  0.08698  1.0000
  H   H99       1.0  0.33737  0.19169  0.08797  1.0000
  H   H100      1.0  0.20910  0.19666  0.18716  1.0000
  H   H101      1.0  0.32225  0.25378  0.03946  1.0000
  H   H102      1.0  0.39047  0.17571  0.05486  1.0000
  H   H103      1.0  0.39092  0.20597  0.05072  1.0000
  H   H104      1.0  0.35667  0.22533  0.04186  1.0000
  H   H105      1.0  0.33513  0.20715  0.02799  1.0000
  H   H106      1.0  0.23487  0.18200  0.21849  1.0000
  C   C63       1.0  0.17675  0.49611  0.14052  1.0000
  H   H107      1.0  0.39228  0.20379  0.08924  1.0000
  H   H108      1.0  0.37109  0.22567  0.08259  1.0000
  H   H109      1.0  0.00431  0.37599  0.06771  1.0000
  H   H110      1.0  0.10774  0.43940  0.02498  1.0000
  H   H111      1.0  0.44567  0.02850  0.06616  1.0000
  H   H112      1.0  0.29085  0.17808  0.23156  1.0000
  H   H113      1.0  0.21472  0.46278  0.12491  1.0000
  C   C64       1.0  0.31404  0.12112  0.19085  1.0000
  H   H114      1.0  0.20995  0.28043  0.08497  1.0000
  H   H115      1.0  0.39514  0.04519  0.07855  1.0000
  C   C65       1.0  0.16506  0.42925  0.02167  1.0000
  H   H116      1.0  0.22089  0.30847  0.09290  1.0000
  H   H117      1.0  0.34920  0.21585  0.11950  1.0000
  H   H118      1.0  0.37190  0.19492  0.12564  1.0000
  C   C66       1.0  0.00331  0.38490  0.08340  1.0000
  H   H119      1.0  0.42157  0.17756  0.02235  1.0000
  C   C67       1.0  0.24934  0.17589  0.20714  1.0000
  N   N4        1.0  0.26208  0.15600  0.21811  1.0000
  C   C68       1.0  0.19751  0.45868  0.11572  1.0000
  H   H120      1.0  0.11514  0.42807  0.19301  1.0000
  C   C69       1.0  0.38510  0.02813  0.13186  1.0000
  C   C70       1.0  0.11573  0.36358  0.01656  1.0000
  H   H121      1.0  0.26855  0.13399  0.18964  1.0000
  H   H122      1.0  0.33135  0.11415  0.19719  1.0000
  H   H123      1.0  0.20304  0.27024  0.12630  1.0000
  H   H124      1.0  0.23860  0.45686  0.18903  1.0000
  H   H125      1.0  0.28618  0.16014  0.18913  1.0000
  H   H126      1.0  0.30336  0.17705  0.04762  1.0000
  H   H127      1.0  0.29984  0.23196  0.03082  1.0000
  H   H128      1.0  0.21515  0.34339  0.07025  1.0000
  H   H129      1.0  0.35500  0.01104  0.20860  1.0000
  N   N5        1.0  0.17230  0.31608  0.07812  1.0000
  C   C71       1.0  0.18376  0.30894  0.05622  1.0000
  C   C72       1.0  0.18103  0.30151  0.09779  1.0000
  C   C73       1.0  0.14504  0.31183  0.07576  1.0000
  C   C74       1.0  0.17698  0.34131  0.08254  1.0000
  C   C75       1.0  0.20400  0.34973  0.08423  1.0000
  C   C76       1.0  0.17647  0.32272  0.03464  1.0000
  C   C77       1.0  0.12985  0.31319  0.09783  1.0000
  C   C78       1.0  0.20791  0.29421  0.09752  1.0000
  C   C79       1.0  0.21550  0.28475  0.12071  1.0000
  C   C80       1.0  0.20662  0.37593  0.08332  1.0000
  H   H130      1.0  0.02897  0.47898  0.13577  1.0000
  C   C81       1.0  0.10262  0.30960  0.09293  1.0000
  H   H131      1.0  0.17921  0.29040  0.05330  1.0000
  H   H132      1.0  0.20391  0.31019  0.05705  1.0000
  H   H133      1.0  0.17783  0.31029  0.11406  1.0000
  H   H134      1.0  0.17016  0.28494  0.09892  1.0000
  H   H135      1.0  0.14091  0.29453  0.06860  1.0000
  H   H136      1.0  0.13726  0.32443  0.06360  1.0000
  H   H137      1.0  0.16777  0.35193  0.06950  1.0000
  C   C82       1.0  0.00080  0.40758  0.12444  1.0000
  H   H138      1.0  0.41051  0.00972  0.15254  1.0000
  C   C83       1.0  0.03100  0.35035  0.03517  1.0000
  H   H139      1.0  0.31361  0.16432  0.07409  1.0000
  H   H140      1.0  0.10598  0.44506  0.16893  1.0000
  C   C84       1.0  0.19567  0.46986  0.16790  1.0000
  C   C85       1.0  0.03768  0.33547  0.05572  1.0000
  H   H141      1.0  0.26242  0.19082  0.20459  1.0000
  H   H142      1.0  0.29539  0.24770  0.05638  1.0000
  H   H143      1.0  0.28564  0.13820  0.05313  1.0000
  C   C86       1.0  0.31512  0.16403  0.05537  1.0000
  H   H144      1.0  0.30889  0.20890  0.06567  1.0000
  H   H145      1.0  0.45099  0.01401  0.13266  1.0000
  H   H146      1.0  0.20131  0.44570  0.02444  1.0000
  C   C87       1.0  0.15209  0.45049  0.01197  1.0000
  H   H147      1.0  0.06476  0.42574  0.02589  1.0000
  H   H148      1.0  0.19047  0.47676  0.18462  1.0000
  C   C88       1.0  0.04406  0.48920  0.14381  1.0000
  H   H149      1.0  0.40877  0.00164  0.02798  1.0000
  H   H150      1.0  0.11940  0.41407  0.01354  1.0000
  C   C89       1.0  0.00448  0.34438  0.02738  1.0000
  H   H151      1.0  0.26197  0.10632  0.22859  1.0000
  C   C90       1.0  0.49159  0.13053  0.08808  1.0000
  H   H152      1.0  0.19501  0.49942  0.13271  1.0000
  H   H153      1.0  0.22827  0.14665  0.23541  1.0000
  H   H154      1.0  0.21791  0.09663  0.23440  1.0000
  H   H155      1.0  0.00790  0.39119  0.02393  1.0000
  C   C91       1.0  0.25133  0.11750  0.23952  1.0000
  H   H156      1.0  0.00376  0.32606  0.02231  1.0000
  H   H157      1.0  0.18326  0.29548  0.01085  1.0000
  H   H158      1.0  0.28699  0.15183  0.24650  1.0000
  H   H159      1.0  0.16639  0.46189  0.00403  1.0000
  H   H160      1.0  0.14333  0.49507  0.00322  1.0000
  C   C92       1.0  0.11222  0.43103  0.00872  1.0000
  H   H161      1.0  0.17117  0.41809  0.00797  1.0000
  H   H162      1.0  0.49939  0.11276  0.15114  1.0000
  H   H163      1.0  0.37766  0.06979  0.00725  1.0000
  H   H164      1.0  0.25421  0.19325  0.24958  1.0000
  C   C93       1.0  0.38085  0.05102  0.00712  1.0000
  H   H165      1.0  0.49575  0.08392  0.06168  1.0000
  H   H166      1.0  0.49220  0.06097  0.09949  1.0000
  H   H167      1.0  0.99980  0.41633  0.14039  1.0000
  H   H168      1.0  0.32049  0.00085  0.18311  1.0000
  H   H169      1.0  0.05192  0.41009  0.00241  1.0000
  H   H170      1.0  0.39019  0.00086  0.00261  1.0000
  Fe  Fe11      1.0  0.41708  0.39663  0.37880  1.0000
  S   S21       1.0  0.40361  0.36307  0.39357  1.0000
  S   S22       1.0  0.45446  0.40351  0.36350  1.0000
  Fe  Fe12      1.0  0.36915  0.41906  0.38821  1.0000
  S   S23       1.0  0.35175  0.38646  0.40369  1.0000
  S   S24       1.0  0.34978  0.45232  0.38200  1.0000
  Fe  Fe13      1.0  0.38807  0.38378  0.42134  1.0000
  S   S25       1.0  0.39981  0.37409  0.45700  1.0000
  Fe  Fe14      1.0  0.36866  0.36829  0.37424  1.0000
  S   S26       1.0  0.35687  0.33598  0.35416  1.0000
  S   S27       1.0  0.40406  0.41731  0.40765  1.0000
  S   S28       1.0  0.38339  0.40114  0.35785  1.0000
  Fe  Fe15      1.0  0.10447  0.11831  0.41746  1.0000
  S   S29       1.0  0.08881  0.09077  0.39481  1.0000
  S   S30       1.0  0.08826  0.11314  0.45278  1.0000
  Fe  Fe16      1.0  0.13466  0.14115  0.37828  1.0000
  S   S31       1.0  0.12111  0.11485  0.35349  1.0000
  S   S32       1.0  0.15959  0.17264  0.36878  1.0000
  Fe  Fe17      1.0  0.08430  0.11904  0.36923  1.0000
  S   S33       1.0  0.05095  0.11974  0.34666  1.0000
  Fe  Fe18      1.0  0.12661  0.08864  0.38135  1.0000
  S   S34       1.0  0.14373  0.05483  0.37343  1.0000
  S   S35       1.0  0.09711  0.14692  0.39250  1.0000
  S   S36       1.0  0.14305  0.11450  0.40550  1.0000
  S   S37       1.0  0.27258  0.31100  0.28206  1.0000
  S   S38       1.0  0.20647  0.20545  0.27327  1.0000
  H   H171      1.0  0.45967  0.36309  0.39301  1.0000
  C   C94       1.0  0.13045  0.02814  0.38274  1.0000
  H   H172      1.0  0.06873  0.13786  0.29951  1.0000
  C   C95       1.0  0.43380  0.35427  0.31688  1.0000
  H   H173      1.0  0.10374  0.04263  0.40420  1.0000
  C   C96       1.0  0.07662  0.19558  0.35115  1.0000
  C   C97       1.0  0.17250  0.18153  0.34209  1.0000
  C   C98       1.0  0.18516  0.20302  0.34011  1.0000
  C   C99       1.0  0.19565  0.21072  0.31930  1.0000
  C   C100      1.0  0.19358  0.19700  0.30010  1.0000
  C   C101      1.0  0.18086  0.17557  0.30210  1.0000
  C   C102      1.0  0.17045  0.16786  0.32290  1.0000
  H   H174      1.0  0.18687  0.21378  0.35481  1.0000
  H   H175      1.0  0.20533  0.22721  0.31809  1.0000
  H   H176      1.0  0.17917  0.16474  0.28745  1.0000
  H   H177      1.0  0.16111  0.15119  0.32415  1.0000
  C   C103      1.0  0.02286  0.14286  0.37695  1.0000
  C   C104      1.0  0.02386  0.13146  0.35636  1.0000
  C   C105      1.0  0.32294  0.43440  0.44245  1.0000
  H   H178      1.0  0.03909  0.14504  0.38721  1.0000
  H   H179      1.0  0.47668  0.49388  0.37215  1.0000
  C   C106      1.0  0.11672  0.14407  0.47768  1.0000
  C   C107      1.0  0.09817  0.12692  0.47776  1.0000
  H   H180      1.0  0.08155  0.19464  0.39798  1.0000
  H   H181      1.0  0.12512  0.14966  0.46185  1.0000
  C   C108      1.0  0.48200  0.33607  0.33510  1.0000
  C   C109      1.0  0.37816  0.48124  0.40911  1.0000
  C   C110      1.0  0.36031  0.47933  0.39222  1.0000
  H   H182      1.0  0.15471  0.00838  0.36294  1.0000
  H   H183      1.0  0.38681  0.46603  0.41531  1.0000
  H   H184      1.0  0.47131  0.42183  0.44429  1.0000
  C   C111      1.0  0.33408  0.33011  0.33315  1.0000
  C   C112      1.0  0.33461  0.30944  0.32113  1.0000
  C   C113      1.0  0.31640  0.30353  0.30503  1.0000
  C   C114      1.0  0.29716  0.31810  0.30093  1.0000
  C   C115      1.0  0.29673  0.33880  0.31286  1.0000
  C   C116      1.0  0.31506  0.34484  0.32876  1.0000
  H   H185      1.0  0.34917  0.29786  0.32436  1.0000
  H   H186      1.0  0.31713  0.28762  0.29596  1.0000
  H   H187      1.0  0.28200  0.35027  0.30985  1.0000
  H   H188      1.0  0.31428  0.36076  0.33783  1.0000
  H   H189      1.0  0.08932  0.15449  0.33856  1.0000
  H   H190      1.0  0.46343  0.30416  0.32506  1.0000
  C   C117      1.0  0.38257  0.37885  0.48154  1.0000
  C   C118      1.0  0.35775  0.38321  0.48046  1.0000
  H   H191      1.0  0.03012  0.08972  0.38739  1.0000
  C   C119      1.0  0.02387  0.13235  0.47296  1.0000
  H   H192      1.0  0.34857  0.38335  0.46424  1.0000
  C   C120      1.0  0.47559  0.40518  0.43672  1.0000
  N   N6        1.0  0.36548  0.46409  0.48755  1.0000
  C   C121      1.0  0.47744  0.36867  0.38674  1.0000
  H   H193      1.0  0.08115  0.04093  0.36004  1.0000
  C   C122      1.0  0.11126  0.02700  0.39825  1.0000
  H   H194      1.0  0.08718  0.20854  0.29559  1.0000
  H   H195      1.0  0.00781  0.12556  0.46336  1.0000
  H   H196      1.0  0.39018  0.46854  0.45906  1.0000
  H   H197      1.0  0.13602  0.06188  0.43175  1.0000
  H   H198      1.0  0.08591  0.22550  0.31994  1.0000
  H   H199      1.0  0.38883  0.39372  0.30543  1.0000
  N   N7        1.0  0.25851  0.27526  0.34807  1.0000
  C   C123      1.0  0.27811  0.28882  0.36063  1.0000
  C   C124      1.0  0.26991  0.26092  0.33005  1.0000
  C   C125      1.0  0.24241  0.29234  0.33643  1.0000
  C   C126      1.0  0.24260  0.26050  0.36378  1.0000
  C   C127      1.0  0.25543  0.24247  0.37859  1.0000
  C   C128      1.0  0.26940  0.30558  0.37874  1.0000
  C   C129      1.0  0.22325  0.28231  0.31948  1.0000
  C   C130      1.0  0.29514  0.25090  0.33554  1.0000
  C   C131      1.0  0.30269  0.23415  0.31750  1.0000
  C   C132      1.0  0.23769  0.23104  0.39570  1.0000
  C   C133      1.0  0.29114  0.31743  0.39059  1.0000
  C   C134      1.0  0.20850  0.30140  0.30877  1.0000
  H   H200      1.0  0.28948  0.29919  0.34826  1.0000
  H   H201      1.0  0.29093  0.27738  0.36933  1.0000
  H   H202      1.0  0.25713  0.24652  0.32511  1.0000
  H   H203      1.0  0.27307  0.27140  0.31425  1.0000
  H   H204      1.0  0.25377  0.30565  0.32710  1.0000
  H   H205      1.0  0.23192  0.30180  0.34907  1.0000
  H   H206      1.0  0.23197  0.27143  0.37508  1.0000
  H   H207      1.0  0.22867  0.25052  0.35393  1.0000
  H   H208      1.0  0.27089  0.25021  0.38826  1.0000
  H   H209      1.0  0.26191  0.22861  0.36778  1.0000
  H   H210      1.0  0.25865  0.31936  0.37091  1.0000
  H   H211      1.0  0.25821  0.29632  0.39188  1.0000
  H   H212      1.0  0.21011  0.27015  0.32808  1.0000
  H   H213      1.0  0.23204  0.27322  0.30554  1.0000
  H   H214      1.0  0.30940  0.26494  0.33599  1.0000
  H   H215      1.0  0.29542  0.24182  0.35211  1.0000
  H   H216      1.0  0.30490  0.24318  0.30086  1.0000
  H   H217      1.0  0.32044  0.22691  0.32220  1.0000
  H   H218      1.0  0.28892  0.21979  0.31601  1.0000
  H   H219      1.0  0.23078  0.24392  0.40748  1.0000
  H   H220      1.0  0.22204  0.22243  0.38686  1.0000
  H   H221      1.0  0.24716  0.21784  0.40583  1.0000
  H   H222      1.0  0.30270  0.32739  0.37813  1.0000
  H   H223      1.0  0.28457  0.32952  0.40334  1.0000
  H   H224      1.0  0.30244  0.30463  0.39941  1.0000
  H   H225      1.0  0.40044  0.28033  0.28441  1.0000
  H   H226      1.0  0.19466  0.29384  0.29705  1.0000
  C   C135      1.0  0.13987  0.00761  0.37499  1.0000
  H   H227      1.0  0.43643  0.46384  0.39567  1.0000
  H   H228      1.0  0.47949  0.33334  0.35356  1.0000
  C   C136      1.0  0.39860  0.43626  0.47545  1.0000
  C   C137      1.0  0.39954  0.29829  0.27788  1.0000
  C   C138      1.0  0.40757  0.36309  0.31555  1.0000
  H   H229      1.0  0.42468  0.44370  0.44819  1.0000
  C   C139      1.0  0.43020  0.32946  0.35075  1.0000
  C   C140      1.0  0.45776  0.49141  0.37854  1.0000
  H   H230      1.0  0.46827  0.46580  0.40390  1.0000
  H   H231      1.0  0.41515  0.38835  0.28845  1.0000
  H   H232      1.0  0.11256  0.19111  0.36687  1.0000
  H   H233      1.0  0.10684  0.22028  0.35804  1.0000
  H   H234      1.0  0.42160  0.29557  0.31979  1.0000
  H   H235      1.0  0.39560  0.35241  0.30447  1.0000
  H   H236      1.0  0.10694  0.06661  0.44440  1.0000
  H   H237      1.0  0.26712  0.19273  0.28916  1.0000
  C   C141      1.0  0.12183  0.06438  0.48952  1.0000
  H   H238      1.0  0.01720  0.04797  0.34108  1.0000
  H   H239      1.0  0.39928  0.36299  0.33261  1.0000
  C   C142      1.0  0.12463  0.05837  0.44706  1.0000
  H   H240      1.0  0.30520  0.43851  0.45007  1.0000
  H   H241      1.0  0.41893  0.39938  0.31679  1.0000
  S   S39       1.0  0.22007  0.27379  0.25490  1.0000
  C   C143      1.0  0.40774  0.38765  0.30595  1.0000
  H   H242      1.0  0.40933  0.31181  0.39123  1.0000
  C   C144      1.0  0.03739  0.19919  0.31670  1.0000
  H   H243      1.0  0.06113  0.03994  0.33587  1.0000
  H   H244      1.0  0.06043  0.17704  0.29842  1.0000
  H   H245      1.0  0.44218  0.35646  0.29979  1.0000
  N   N8        1.0  0.43610  0.32999  0.32579  1.0000
  H   H246      1.0  0.41069  0.33306  0.35336  1.0000
  H   H247      1.0  0.32136  0.43616  0.42374  1.0000
  H   H248      1.0  0.44432  0.36656  0.32775  1.0000
  H   H249      1.0  0.15054  0.02544  0.48873  1.0000
  H   H250      1.0  0.11541  0.17220  0.33549  1.0000
  C   C145      1.0  0.34957  0.49933  0.38399  1.0000
  C   C146      1.0  0.35866  0.48876  0.48414  1.0000
  H   H251      1.0  0.46479  0.39105  0.44534  1.0000
  C   C147      1.0  0.34329  0.45073  0.45092  1.0000
  H   H252      1.0  0.11262  0.04715  0.48883  1.0000
  C   C148      1.0  0.01361  0.08693  0.39797  1.0000
  H   H253      1.0  0.44499  0.49147  0.36397  1.0000
  H   H254      1.0  0.09318  0.12215  0.31185  1.0000
  H   H255      1.0  0.04841  0.05369  0.38434  1.0000
  H   H256      1.0  0.39942  0.31664  0.31910  1.0000
  C   C149      1.0  0.10305  0.15804  0.30375  1.0000
  H   H257      1.0  0.21852  0.11302  0.26020  1.0000
  C   C150      1.0  0.08865  0.13556  0.29913  1.0000
  H   H258      1.0  0.48197  0.35480  0.33134  1.0000
  C   C151      1.0  0.41857  0.31351  0.31408  1.0000
  S   S40       1.0  0.26857  0.24368  0.26406  1.0000
  H   H259      1.0  0.12125  0.03953  0.44900  1.0000
  H   H260      1.0  0.38636  0.42561  0.46459  1.0000
  C   C152      1.0  0.17467  0.01645  0.43465  1.0000
  H   H261      1.0  0.04425  0.21633  0.31047  1.0000
  H   H262      1.0  0.00357  0.12050  0.32702  1.0000
  H   H263      1.0  0.06390  0.20989  0.35146  1.0000
  H   H264      1.0  0.07809  0.22422  0.38922  1.0000
  C   C153      1.0  0.42886  0.30820  0.38878  1.0000
  C   C154      1.0  0.13762  0.06810  0.46788  1.0000
  H   H265      1.0  0.03989  0.02685  0.37140  1.0000
  H   H266      1.0  0.18186  0.03188  0.40122  1.0000
  C   C155      1.0  0.09073  0.20981  0.38954  1.0000
  H   H267      1.0  0.49597  0.34072  0.40291  1.0000
  C   C156      1.0  0.43461  0.30646  0.36358  1.0000
  Fe  Fe19      1.0  0.26079  0.28105  0.25896  1.0000
  C   C157      1.0  0.42014  0.31340  0.28784  1.0000
  H   H268      1.0  0.12268  0.15421  0.30303  1.0000
  H   H269      1.0  0.08727  0.00490  0.41855  1.0000
  H   H270      1.0  0.32788  0.45220  0.48431  1.0000
  H   H271      1.0  0.33579  0.49801  0.37090  1.0000
  H   H272      1.0  0.10702  0.21496  0.39972  1.0000
  H   H273      1.0  0.10670  0.07650  0.48793  1.0000
  C   C158      1.0  0.49803  0.35609  0.39241  1.0000
  H   H274      1.0  0.43253  0.29168  0.39757  1.0000
  H   H275      1.0  0.02877  0.10969  0.42346  1.0000
  H   H276      1.0  0.41874  0.33084  0.28026  1.0000
  H   H277      1.0  0.20683  0.03509  0.42105  1.0000
  H   H278      1.0  0.43769  0.30646  0.28242  1.0000
  H   H279      1.0  0.12425  0.24896  0.31443  1.0000
  H   H280      1.0  0.18033  0.05211  0.42376  1.0000
  H   H281      1.0  0.15548  0.06002  0.46969  1.0000
  H   H282      1.0  0.12963  0.20947  0.33013  1.0000
  H   H283      1.0  0.40116  0.29819  0.25913  1.0000
  C   C159      1.0  0.18670  0.03495  0.41922  1.0000
  H   H284      1.0  0.02509  0.07464  0.35315  1.0000
  H   H285      1.0  0.32545  0.39005  0.49961  1.0000
  H   H286      1.0  0.45952  0.45432  0.37685  1.0000
  H   H287      1.0  0.09351  0.12930  0.28214  1.0000
  C   C160      1.0  0.01573  0.14490  0.49400  1.0000
  H   H288      1.0  0.12895  0.19832  0.30226  1.0000
  C   C161      1.0  0.02021  0.05639  0.35765  1.0000
  H   H289      1.0  0.32701  0.41630  0.44668  1.0000
  C   C162      1.0  0.47991  0.38821  0.37264  1.0000
  H   H290      1.0  0.42962  0.41772  0.46427  1.0000
  H   H291      1.0  0.06734  0.18083  0.36044  1.0000
  C   C163      1.0  0.10190  0.00558  0.40629  1.0000
  C   C164      1.0  0.27815  0.18391  0.27646  1.0000
  H   H292      1.0  0.47002  0.40575  0.41862  1.0000
  H   H293      1.0  0.44046  0.34352  0.35959  1.0000
  H   H294      1.0  0.00499  0.09001  0.43383  1.0000
  C   C165      1.0  0.12438  0.15406  0.49820  1.0000
  C   C166      1.0  0.09755  0.16828  0.32736  1.0000
  H   H295      1.0  0.28571  0.16843  0.28464  1.0000
  H   H296      1.0  0.19893  0.31093  0.32197  1.0000
  C   C167      1.0  0.09861  0.20419  0.36550  1.0000
  H   H297      1.0  0.14109  0.08681  0.46461  1.0000
  H   H298      1.0  0.39926  0.42804  0.49250  1.0000
  H   H299      1.0  0.42269  0.29237  0.35683  1.0000
  H   H300      1.0  0.35984  0.49378  0.46586  1.0000
  H   H301      1.0  0.33874  0.46839  0.44554  1.0000
  H   H302      1.0  0.36022  0.44619  0.44222  1.0000
  H   H303      1.0  0.15469  0.01848  0.43364  1.0000
  H   H304      1.0  0.05023  0.16558  0.32503  1.0000
  H   H305      1.0  0.03012  0.20081  0.33412  1.0000
  C   C168      1.0  0.06493  0.04860  0.35217  1.0000
  H   H306      1.0  0.02155  0.19016  0.28393  1.0000
  C   C169      1.0  0.13013  0.23492  0.30347  1.0000
  H   H307      1.0  0.40434  0.47115  0.48587  1.0000
  H   H308      1.0  0.07295  0.10670  0.49865  1.0000
  H   H309      1.0  0.06931  0.06714  0.34879  1.0000
  C   C170      1.0  0.04311  0.04553  0.36815  1.0000
  C   C171      1.0  0.34601  0.44871  0.47705  1.0000
  C   C172      1.0  0.46178  0.32287  0.32158  1.0000
  H   H310      1.0  0.44042  0.32199  0.39662  1.0000
  H   H311      1.0  0.22060  0.31361  0.29889  1.0000
  H   H312      1.0  0.03563  0.11795  0.47767  1.0000
  N   N9        1.0  0.08183  0.18896  0.32706  1.0000
  H   H313      1.0  0.45381  0.30152  0.36221  1.0000
  C   C173      1.0  0.01586  0.19138  0.30190  1.0000
  C   C174      1.0  0.12135  0.21156  0.31317  1.0000
  C   C175      1.0  0.05778  0.18152  0.31645  1.0000
  H   H314      1.0  0.09992  0.17036  0.28962  1.0000
  C   C176      1.0  0.09300  0.20914  0.31367  1.0000
  H   H315      1.0  0.46646  0.32531  0.30334  1.0000
  H   H316      1.0  0.24685  0.16581  0.26301  1.0000
  H   H317      1.0  0.18059  0.01990  0.45224  1.0000
  C   C177      1.0  0.08732  0.11993  0.49843  1.0000
  C   C178      1.0  0.26193  0.17724  0.25639  1.0000
  H   H318      1.0  0.16315  0.09117  0.49774  1.0000
  C   C179      1.0  0.00066  0.15136  0.38437  1.0000
  C   C180      1.0  0.42421  0.43582  0.46547  1.0000
  H   H319      1.0  0.15036  0.23573  0.30262  1.0000
  H   H320      1.0  0.12292  0.23753  0.28605  1.0000
  H   H321      1.0  0.29334  0.19583  0.27081  1.0000
  C   C181      1.0  0.45534  0.46745  0.38953  1.0000
  Fe  Fe20      1.0  0.22861  0.23633  0.25773  1.0000
  C   C182      1.0  0.34471  0.38694  0.50049  1.0000
  H   H322      1.0  0.38153  0.30505  0.28225  1.0000
  H   H323      1.0  0.23620  0.08778  0.25815  1.0000
  H   H324      1.0  0.34901  0.43044  0.48149  1.0000
  H   H325      1.0  0.03458  0.14443  0.46168  1.0000
  H   H326      1.0  0.13869  0.16738  0.49806  1.0000
  C   C183      1.0  0.00272  0.12892  0.34315  1.0000
  C   C184      1.0  0.02103  0.09182  0.42242  1.0000
  H   H327      1.0  0.03523  0.07997  0.42819  1.0000
  H   H328      1.0  0.01370  0.04994  0.40487  1.0000
  C   C185      1.0  0.38993  0.46120  0.47661  1.0000
  H   H329      1.0  0.00825  0.17439  0.30795  1.0000
  H   H330      1.0  0.00127  0.20400  0.30287  1.0000
  H   H331      1.0  0.00412  0.15889  0.48804  1.0000
  H   H332      1.0  0.99996  0.16032  0.40023  1.0000
  H   H333      1.0  0.33924  0.49095  0.48867  1.0000
  H   H334      1.0  0.43756  0.44513  0.47646  1.0000
  H   H335      1.0  0.00151  0.01889  0.38096  1.0000
  C   C186      1.0  0.00210  0.06230  0.39568  1.0000
  H   H336      1.0  0.00020  0.09979  0.39279  1.0000
  H   H337      1.0  0.26243  0.12278  0.25436  1.0000
  H   H338      1.0  0.03233  0.15262  0.50206  1.0000
  Fe  Fe21      1.0  0.40751  0.38668  0.60501  1.0000
  S   S41       1.0  0.37129  0.36710  0.60345  1.0000
  S   S42       1.0  0.44273  0.36891  0.59880  1.0000
  Fe  Fe22      1.0  0.38428  0.43356  0.60816  1.0000
  S   S43       1.0  0.34641  0.41755  0.60703  1.0000
  S   S44       1.0  0.39543  0.47087  0.60030  1.0000
  Fe  Fe23      1.0  0.36029  0.39045  0.63128  1.0000
  S   S45       1.0  0.33811  0.37985  0.66309  1.0000
  Fe  Fe24      1.0  0.36040  0.39541  0.57950  1.0000
  S   S46       1.0  0.33970  0.39174  0.54642  1.0000
  S   S47       1.0  0.39770  0.40837  0.63436  1.0000
  S   S48       1.0  0.39713  0.41295  0.57911  1.0000
  Fe  Fe25      1.0  0.08984  0.11570  0.61405  1.0000
  S   S49       1.0  0.10857  0.15086  0.61121  1.0000
  S   S50       1.0  0.05297  0.10335  0.62738  1.0000
  Fe  Fe26      1.0  0.13340  0.09088  0.59623  1.0000
  S   S51       1.0  0.15552  0.12387  0.59173  1.0000
  S   S52       1.0  0.14896  0.05713  0.58576  1.0000
  Fe  Fe27      1.0  0.14164  0.13393  0.62588  1.0000
  S   S53       1.0  0.17020  0.14328  0.65313  1.0000
  Fe  Fe28      1.0  0.12126  0.13807  0.57735  1.0000
  S   S54       1.0  0.12461  0.15879  0.54450  1.0000
  S   S55       1.0  0.12171  0.09967  0.63106  1.0000
  S   S56       1.0  0.10022  0.10439  0.57938  1.0000
  Fe  Fe29      1.0  0.27610  0.26865  0.73311  1.0000
  S   S57       1.0  0.23732  0.27912  0.73762  1.0000
  S   S58       1.0  0.30263  0.28196  0.70516  1.0000
  Fe  Fe30      1.0  0.22713  0.24141  0.73389  1.0000
  S   S59       1.0  0.19354  0.23326  0.71178  1.0000
  S   S60       1.0  0.26549  0.23115  0.72806  1.0000
  C   C187      1.0  0.11398  0.14659  0.51893  1.0000
  C   C188      1.0  0.21181  0.07738  0.69122  1.0000
  H   H339      1.0  0.20639  0.03695  0.66616  1.0000
  H   H340      1.0  0.20949  0.10325  0.71735  1.0000
  H   H341      1.0  0.08707  0.12383  0.53472  1.0000
  H   H342      1.0  0.16096  0.06632  0.63901  1.0000
  C   C189      1.0  0.13844  0.03138  0.59934  1.0000
  C   C190      1.0  0.12146  0.03149  0.61695  1.0000
  H   H343      1.0  0.46158  0.44167  0.63959  1.0000
  H   H344      1.0  0.11392  0.04748  0.62197  1.0000
  C   C191      1.0  0.17648  0.16875  0.66886  1.0000
  C   C192      1.0  0.19634  0.16936  0.68402  1.0000
  C   C193      1.0  0.20186  0.18890  0.69717  1.0000
  C   C194      1.0  0.18753  0.20817  0.69540  1.0000
  C   C195      1.0  0.16779  0.20766  0.68012  1.0000
  C   C196      1.0  0.16230  0.18812  0.66690  1.0000
  H   H345      1.0  0.20747  0.15452  0.68570  1.0000
  H   H346      1.0  0.21708  0.18894  0.70884  1.0000
  H   H347      1.0  0.15670  0.22250  0.67836  1.0000
  H   H348      1.0  0.14702  0.18800  0.65531  1.0000
  C   C197      1.0  0.41355  0.33373  0.64440  1.0000
  C   C198      1.0  0.02676  0.11875  0.62115  1.0000
  C   C199      1.0  0.02838  0.14161  0.61355  1.0000
  C   C200      1.0  0.17985  0.31427  0.71973  1.0000
  H   H349      1.0  0.04606  0.15026  0.61161  1.0000
  H   H350      1.0  0.49162  0.36441  0.58353  1.0000
  H   H351      1.0  0.49136  0.42869  0.54005  1.0000
  H   H352      1.0  0.38663  0.31909  0.62090  1.0000
  H   H353      1.0  0.38055  0.47858  0.64732  1.0000
  C   C201      1.0  0.14789  0.01046  0.59285  1.0000
  C   C202      1.0  0.14766  0.05073  0.67735  1.0000
  H   H354      1.0  0.39048  0.38179  0.53888  1.0000
  H   H355      1.0  0.02945  0.12863  0.56668  1.0000
  C   C203      1.0  0.32694  0.35255  0.67366  1.0000
  C   C204      1.0  0.31411  0.35134  0.69433  1.0000
  C   C205      1.0  0.30593  0.33001  0.70395  1.0000
  C   C206      1.0  0.31092  0.30952  0.69322  1.0000
  C   C207      1.0  0.32372  0.31074  0.67254  1.0000
  C   C208      1.0  0.33123  0.33209  0.66259  1.0000
  H   H356      1.0  0.31058  0.36704  0.70303  1.0000
  H   H357      1.0  0.29623  0.32944  0.71989  1.0000
  H   H358      1.0  0.32781  0.29503  0.66410  1.0000
  H   H359      1.0  0.34064  0.33274  0.64649  1.0000
  C   C209      1.0  0.40650  0.31863  0.62431  1.0000
  C   C210      1.0  0.47072  0.37924  0.61002  1.0000
  N   N10       1.0  0.13507  0.06784  0.51172  1.0000
  H   H360      1.0  0.45527  0.39531  0.63890  1.0000
  H   H361      1.0  0.12230  0.26704  0.72104  1.0000
  H   H362      1.0  0.21457  0.09090  0.67786  1.0000
  C   C211      1.0  0.03405  0.14019  0.55203  1.0000
  H   H363      1.0  0.41635  0.32500  0.60888  1.0000
  H   H364      1.0  0.13549  0.07468  0.70282  1.0000
  H   H365      1.0  0.43980  0.45939  0.62535  1.0000
  C   C212      1.0  0.35015  0.45813  0.55220  1.0000
  C   C213      1.0  0.11455  0.01087  0.62841  1.0000
  H   H366      1.0  0.04728  0.16893  0.57264  1.0000
  H   H367      1.0  0.47064  0.37976  0.54951  1.0000
  H   H368      1.0  0.20189  0.10585  0.62684  1.0000
  C   C214      1.0  0.15355  0.04983  0.51670  1.0000
  H   H369      1.0  0.19973  0.05297  0.62766  1.0000
  H   H370      1.0  0.37559  0.30616  0.74614  1.0000
  H   H371      1.0  0.38847  0.41464  0.71046  1.0000
  H   H372      1.0  0.46255  0.47230  0.64359  1.0000
  H   H373      1.0  0.41146  0.30059  0.62766  1.0000
  H   H374      1.0  0.18017  0.32995  0.73018  1.0000
  H   H375      1.0  0.22361  0.06285  0.68789  1.0000
  H   H376      1.0  0.32940  0.44997  0.52243  1.0000
  C   C215      1.0  0.38132  0.38240  0.52267  1.0000
  C   C216      1.0  0.47186  0.39176  0.63000  1.0000
  C   C217      1.0  0.13208  0.07095  0.68466  1.0000
  H   H377      1.0  0.16844  0.13453  0.51964  1.0000
  C   C218      1.0  0.35647  0.38666  0.52164  1.0000
  H   H378      1.0  0.09425  0.07995  0.68754  1.0000
  H   H379      1.0  0.47389  0.47924  0.60339  1.0000
  H   H380      1.0  0.01515  0.11474  0.51503  1.0000
  H   H381      1.0  0.09933  0.04984  0.69244  1.0000
  H   H382      1.0  0.40419  0.29809  0.71513  1.0000
  H   H383      1.0  0.35010  0.30340  0.72679  1.0000
  H   H384      1.0  0.40938  0.35167  0.63972  1.0000
  C   C219      1.0  0.38580  0.30382  0.71054  1.0000
  H   H385      1.0  0.36441  0.47072  0.55806  1.0000
  H   H386      1.0  0.40309  0.37645  0.71749  1.0000
  N   N11       1.0  0.17426  0.05655  0.67245  1.0000
  C   C220      1.0  0.11644  0.06838  0.53047  1.0000
  H   H387      1.0  0.43352  0.33287  0.64671  1.0000
  H   H388      1.0  0.33855  0.47984  0.52504  1.0000
  C   C221      1.0  0.45922  0.39193  0.53998  1.0000
  H   H389      1.0  0.18480  0.12681  0.54490  1.0000
  C   C222      1.0  0.15978  0.09996  0.53285  1.0000
  C   C223      1.0  0.10122  0.04591  0.53527  1.0000
  H   H390      1.0  0.18436  0.01284  0.51364  1.0000
  C   C224      1.0  0.10483  0.06521  0.68198  1.0000
  H   H391      1.0  0.44014  0.36472  0.71487  1.0000
  H   H392      1.0  0.48076  0.48367  0.56082  1.0000
  C   C225      1.0  0.18456  0.06966  0.69238  1.0000
  H   H393      1.0  0.12533  0.07248  0.54683  1.0000
  H   H394      1.0  0.10369  0.08243  0.52712  1.0000
  H   H395      1.0  0.06126  0.16772  0.54496  1.0000
  H   H396      1.0  0.45278  0.43842  0.59222  1.0000
  H   H397      1.0  0.47372  0.46437  0.53881  1.0000
  H   H398      1.0  0.15648  0.04820  0.53536  1.0000
  H   H399      1.0  0.17346  0.08942  0.65474  1.0000
  H   H400      1.0  0.11318  0.03241  0.54186  1.0000
  H   H401      1.0  0.18147  0.05936  0.70830  1.0000
  H   H402      1.0  0.14580  0.03730  0.69101  1.0000
  H   H403      1.0  0.09152  0.03983  0.51990  1.0000
  H   H404      1.0  0.14533  0.10607  0.54413  1.0000
  H   H405      1.0  0.13675  0.08680  0.67472  1.0000
  H   H406      1.0  0.43373  0.31612  0.69535  1.0000
  H   H407      1.0  0.33342  0.46028  0.56234  1.0000
  H   H408      1.0  0.17639  0.31936  0.70182  1.0000
  C   C226      1.0  0.17768  0.12031  0.52850  1.0000
  H   H409      1.0  0.18651  0.08719  0.60670  1.0000
  H   H410      1.0  0.44798  0.41035  0.56870  1.0000
  C   C227      1.0  0.20189  0.08874  0.61881  1.0000
  H   H411      1.0  0.09109  0.05370  0.56990  1.0000
  H   H412      1.0  0.04175  0.12997  0.53836  1.0000
  H   H413      1.0  0.17054  0.02548  0.63753  1.0000
  H   H414      1.0  0.16113  0.01027  0.57934  1.0000
  H   H415      1.0  0.17179  0.05528  0.50982  1.0000
  C   C228      1.0  0.01110  0.15278  0.54432  1.0000
  H   H416      1.0  0.23975  0.09383  0.71212  1.0000
  C   C229      1.0  0.45754  0.41447  0.55259  1.0000
  C   C230      1.0  0.38294  0.49500  0.63859  1.0000
  H   H417      1.0  0.38106  0.40823  0.68159  1.0000
  H   H418      1.0  0.10022  0.06192  0.66396  1.0000
  C   C231      1.0  0.18693  0.03412  0.67069  1.0000
  H   H419      1.0  0.38360  0.46655  0.52018  1.0000
  H   H420      1.0  0.16962  0.08628  0.54191  1.0000
  H   H421      1.0  0.13868  0.04305  0.66219  1.0000
  H   H422      1.0  0.20905  0.00446  0.63996  1.0000
  H   H423      1.0  0.11363  0.29409  0.74887  1.0000
  C   C232      1.0  0.34469  0.46204  0.52706  1.0000
  C   C233      1.0  0.48304  0.42573  0.55704  1.0000
  C   C234      1.0  0.22027  0.08806  0.71351  1.0000
  C   C235      1.0  0.17606  0.07101  0.65089  1.0000
  C   C236      1.0  0.45901  0.45856  0.63109  1.0000
  H   H424      1.0  0.41266  0.41005  0.69063  1.0000
  H   H425      1.0  0.18718  0.02515  0.68753  1.0000
  H   H426      1.0  0.43317  0.45360  0.56211  1.0000
  H   H427      1.0  0.17491  0.08591  0.69457  1.0000
  C   C237      1.0  0.14823  0.09115  0.51046  1.0000
  H   H428      1.0  0.44197  0.47760  0.57904  1.0000
  H   H429      1.0  0.42680  0.34071  0.73117  1.0000
  C   C238      1.0  0.19977  0.06951  0.63670  1.0000
  H   H430      1.0  0.25725  0.18429  0.68114  1.0000
  N   N12       1.0  0.48377  0.44765  0.57037  1.0000
  H   H431      1.0  0.41365  0.48884  0.54946  1.0000
  H   H432      1.0  0.21912  0.08745  0.60920  1.0000
  H   H433      1.0  0.35640  0.44047  0.55534  1.0000
  H   H434      1.0  0.38876  0.33894  0.72120  1.0000
  H   H435      1.0  0.19329  0.11507  0.51813  1.0000
  H   H436      1.0  0.49525  0.46160  0.61790  1.0000
  H   H437      1.0  0.21645  0.07052  0.64714  1.0000
  C   C239      1.0  0.09535  0.12954  0.51893  1.0000
  H   H438      1.0  0.06978  0.06318  0.54854  1.0000
  H   H439      1.0  0.46679  0.39504  0.52274  1.0000
  N   N13       1.0  0.25112  0.26083  0.65282  1.0000
  C   C240      1.0  0.24103  0.26986  0.67454  1.0000
  C   C241      1.0  0.26557  0.23992  0.65836  1.0000
  C   C242      1.0  0.26871  0.27917  0.64337  1.0000
  C   C243      1.0  0.23168  0.25541  0.63530  1.0000
  C   C244      1.0  0.20613  0.24727  0.64433  1.0000
  C   C245      1.0  0.22756  0.29283  0.67246  1.0000
  C   C246      1.0  0.28348  0.27272  0.62218  1.0000
  C   C247      1.0  0.25109  0.21853  0.66785  1.0000
  C   C248      1.0  0.26809  0.19922  0.67400  1.0000
  C   C249      1.0  0.19020  0.23706  0.62549  1.0000
  C   C250      1.0  0.24266  0.31355  0.68119  1.0000
  C   C251      1.0  0.29592  0.29400  0.61104  1.0000
  H   H440      1.0  0.25570  0.27175  0.68746  1.0000
  H   H441      1.0  0.22809  0.25720  0.68260  1.0000
  H   H442      1.0  0.27471  0.23376  0.64298  1.0000
  H   H443      1.0  0.28040  0.24449  0.67065  1.0000
  H   H444      1.0  0.28215  0.28455  0.65661  1.0000
  H   H445      1.0  0.25888  0.29484  0.63858  1.0000
  H   H446      1.0  0.22851  0.27069  0.62421  1.0000
  H   H447      1.0  0.23807  0.24216  0.62356  1.0000
  H   H448      1.0  0.19652  0.26194  0.65135  1.0000
  H   H449      1.0  0.20720  0.23415  0.65796  1.0000
  H   H450      1.0  0.22151  0.29653  0.65489  1.0000
  H   H451      1.0  0.21070  0.29120  0.68286  1.0000
  H   H452      1.0  0.27162  0.26421  0.60934  1.0000
  H   H453      1.0  0.29811  0.26098  0.62710  1.0000
  H   H454      1.0  0.24085  0.22251  0.68331  1.0000
  H   H455      1.0  0.23824  0.21164  0.65489  1.0000
  H   H456      1.0  0.44647  0.42590  0.54189  1.0000
  H   H457      1.0  0.27782  0.19357  0.65873  1.0000
  H   H458      1.0  0.28165  0.20495  0.68690  1.0000
  H   H459      1.0  0.19828  0.22134  0.61887  1.0000
  H   H460      1.0  0.17185  0.23216  0.63233  1.0000
  H   H461      1.0  0.18809  0.24975  0.61143  1.0000
  H   H462      1.0  0.24795  0.31078  0.69915  1.0000
  H   H463      1.0  0.25947  0.31690  0.67111  1.0000
  H   H464      1.0  0.23168  0.32912  0.68014  1.0000
  H   H465      1.0  0.28216  0.30605  0.60474  1.0000
  H   H466      1.0  0.30815  0.30303  0.62328  1.0000
  H   H467      1.0  0.30702  0.28883  0.59642  1.0000
  N   N14       1.0  0.40441  0.33871  0.68735  1.0000
  C   C252      1.0  0.38619  0.32995  0.70495  1.0000
  C   C253      1.0  0.40083  0.36391  0.68210  1.0000
  C   C254      1.0  0.39949  0.32533  0.66602  1.0000
  C   C255      1.0  0.43035  0.33481  0.69442  1.0000
  C   C256      1.0  0.14799  0.02539  0.50736  1.0000
  H   H468      1.0  0.16281  0.00690  0.53638  1.0000
  H   H469      1.0  0.44069  0.38375  0.53832  1.0000
  C   C257      1.0  0.39229  0.37893  0.70190  1.0000
  C   C258      1.0  0.39382  0.40450  0.69566  1.0000
  H   H470      1.0  0.37292  0.37438  0.70604  1.0000
  C   C259      1.0  0.36882  0.29780  0.73046  1.0000
  H   H471      1.0  0.36742  0.33401  0.69933  1.0000
  H   H472      1.0  0.18061  0.27792  0.75168  1.0000
  H   H473      1.0  0.41773  0.37212  0.67465  1.0000
  H   H474      1.0  0.38660  0.36583  0.66881  1.0000
  H   H475      1.0  0.37976  0.32532  0.66184  1.0000
  H   H476      1.0  0.40390  0.30699  0.66861  1.0000
  H   H477      1.0  0.15989  0.28215  0.71650  1.0000
  H   H478      1.0  0.44321  0.34189  0.68128  1.0000
  C   C260      1.0  0.47260  0.44274  0.59340  1.0000
  C   C261      1.0  0.43900  0.34574  0.71685  1.0000
  H   H479      1.0  0.37886  0.29385  0.69586  1.0000
  H   H480      1.0  0.12911  0.01905  0.51083  1.0000
  H   H481      1.0  0.07101  0.03313  0.55625  1.0000
  H   H482      1.0  0.43328  0.47878  0.52762  1.0000
  C   C262      1.0  0.36741  0.45771  0.51239  1.0000
  C   C263      1.0  0.17528  0.01682  0.65371  1.0000
  C   C264      1.0  0.49237  0.37448  0.59875  1.0000
  H   H483      1.0  0.06949  0.14787  0.56711  1.0000
  C   C265      1.0  0.05415  0.15729  0.55964  1.0000
  C   C266      1.0  0.11702  0.23039  0.72219  1.0000
  H   H484      1.0  0.49416  0.41264  0.56584  1.0000
  H   H485      1.0  0.21840  0.07532  0.72770  1.0000
  C   C267      1.0  0.47157  0.46669  0.55737  1.0000
  H   H486      1.0  0.47058  0.34669  0.73904  1.0000
  H   H487      1.0  0.19792  0.30650  0.72070  1.0000
  C   C268      1.0  0.47643  0.46198  0.61105  1.0000
  C   C269      1.0  0.44412  0.46994  0.56216  1.0000
  C   C270      1.0  0.43293  0.48621  0.54480  1.0000
  C   C271      1.0  0.08210  0.04931  0.55357  1.0000
  C   C272      1.0  0.46455  0.33826  0.72315  1.0000
  H   H488      1.0  0.47777  0.34335  0.70955  1.0000
  H   H489      1.0  0.36788  0.27891  0.73344  1.0000
  C   C273      1.0  0.38955  0.49582  0.61569  1.0000
  H   H490      1.0  0.48049  0.42711  0.60096  1.0000
  H   H491      1.0  0.37058  0.43905  0.51461  1.0000
  H   H492      1.0  0.49548  0.40904  0.65413  1.0000
  C   C274      1.0  0.49461  0.39952  0.63857  1.0000
  H   H493      1.0  0.10322  0.23068  0.70842  1.0000
  H   H494      1.0  0.15827  0.00874  0.66095  1.0000
  H   H495      1.0  0.13493  0.22681  0.71461  1.0000
  H   H496      1.0  0.46459  0.31935  0.72592  1.0000
  C   C275      1.0  0.00376  0.10782  0.62420  1.0000
  H   H497      1.0  0.13572  0.10444  0.50433  1.0000
  C   C276      1.0  0.15985  0.29710  0.72791  1.0000
  H   H498      1.0  0.11180  0.21629  0.73437  1.0000
  H   H499      1.0  0.00332  0.15982  0.56001  1.0000
  H   H500      1.0  0.01692  0.16818  0.53395  1.0000
  H   H501      1.0  0.15444  0.24629  0.74646  1.0000
  H   H502      1.0  0.10175  0.01113  0.64230  1.0000
  H   H503      1.0  0.01186  0.09756  0.55129  1.0000
  C   C277      1.0  0.00202  0.12812  0.51081  1.0000
  H   H504      1.0  0.00250  0.09028  0.63044  1.0000
  H   H505      1.0  0.00835  0.17119  0.60331  1.0000
  C   C278      1.0  0.16508  0.00796  0.51768  1.0000
  C   C279      1.0  0.11830  0.25352  0.73403  1.0000
  H   H506      1.0  0.14237  0.30575  0.72608  1.0000
  C   C280      1.0  0.00704  0.15341  0.60893  1.0000
  H   H507      1.0  0.41339  0.37475  0.50364  1.0000
  C   C281      1.0  0.39425  0.37834  0.50271  1.0000
  H   H508      1.0  0.09995  0.25631  0.74114  1.0000
  Fe  Fe31      1.0  0.38266  0.08076  0.87572  1.0000
  S   S61       1.0  0.39879  0.08254  0.91051  1.0000
  S   S62       1.0  0.38278  0.04706  0.85697  1.0000
  Fe  Fe32      1.0  0.37727  0.13306  0.87157  1.0000
  S   S63       1.0  0.39382  0.13854  0.90637  1.0000
  S   S64       1.0  0.36905  0.16526  0.84996  1.0000
  Fe  Fe33      1.0  0.42125  0.11269  0.89683  1.0000
  S   S65       1.0  0.46050  0.11356  0.90927  1.0000
  Fe  Fe34      1.0  0.37034  0.10800  0.91746  1.0000
  S   S66       1.0  0.34931  0.10580  0.95065  1.0000
  S   S67       1.0  0.40699  0.10952  0.86136  1.0000
  S   S68       1.0  0.35183  0.10389  0.88339  1.0000
  Fe  Fe35      1.0  0.08673  0.37608  0.89178  1.0000
  S   S69       1.0  0.10297  0.39837  0.86381  1.0000
  S   S70       1.0  0.04689  0.36794  0.90026  1.0000
  Fe  Fe36      1.0  0.13582  0.37264  0.91640  1.0000
  S   S71       1.0  0.15572  0.39422  0.88984  1.0000
  S   S72       1.0  0.15610  0.36394  0.94874  1.0000
  Fe  Fe37      1.0  0.12378  0.41719  0.89125  1.0000
  S   S73       1.0  0.12650  0.45372  0.90436  1.0000
  Fe  Fe38      1.0  0.13384  0.37323  0.86460  1.0000
  S   S74       1.0  0.14908  0.36077  0.83072  1.0000
  S   S75       1.0  0.10538  0.39638  0.91901  1.0000
  S   S76       1.0  0.11600  0.34991  0.89130  1.0000
  Fe  Fe39      1.0  0.26906  0.22684  0.76602  1.0000
  H   H509      1.0  0.17811  0.41224  0.95296  1.0000
  S   S77       1.0  0.28102  0.19427  0.78499  1.0000
  C   C282      1.0  0.40472  0.04928  0.99332  1.0000
  S   S78       1.0  0.23009  0.28799  0.80782  1.0000
  S   S79       1.0  0.28230  0.26345  0.77083  1.0000
  C   C283      1.0  0.12485  0.48075  0.89053  1.0000
  H   H510      1.0  0.11722  0.46810  0.85714  1.0000
  C   C284      1.0  0.17202  0.34073  0.82492  1.0000
  C   C285      1.0  0.18043  0.33875  0.80250  1.0000
  C   C286      1.0  0.19824  0.32290  0.79699  1.0000
  C   C287      1.0  0.20769  0.30850  0.81376  1.0000
  C   C288      1.0  0.19942  0.31057  0.83619  1.0000
  C   C289      1.0  0.18173  0.32651  0.84174  1.0000
  H   H511      1.0  0.17336  0.34985  0.78938  1.0000
  H   H512      1.0  0.20502  0.32214  0.77985  1.0000
  H   H513      1.0  0.20666  0.29969  0.84939  1.0000
  H   H514      1.0  0.17555  0.32778  0.85905  1.0000
  H   H515      1.0  0.06221  0.46147  0.83085  1.0000
  H   H516      1.0  0.44259  0.07367  0.88052  1.0000
  H   H517      1.0  0.41210  0.18761  0.99482  1.0000
  C   C290      1.0  0.14009  0.36500  0.97454  1.0000
  C   C291      1.0  0.11487  0.36081  0.97538  1.0000
  C   C292      1.0  0.00181  0.44277  0.89627  1.0000
  H   H518      1.0  0.05189  0.42423  0.86751  1.0000
  C   C293      1.0  0.11963  0.46782  0.98860  1.0000
  H   H519      1.0  0.10484  0.35742  0.95992  1.0000
  C   C294      1.0  0.12510  0.31447  0.77716  1.0000
  C   C295      1.0  0.02133  0.37751  0.88503  1.0000
  H   H520      1.0  0.04042  0.38561  0.85393  1.0000
  C   C296      1.0  0.48549  0.11556  0.89048  1.0000
  H   H521      1.0  0.18315  0.32394  0.99843  1.0000
  C   C297      1.0  0.15971  0.44354  0.96101  1.0000
  H   H522      1.0  0.43591  0.05698  0.85554  1.0000
  H   H523      1.0  0.46437  0.11920  0.85997  1.0000
  C   C298      1.0  0.34467  0.17241  0.83134  1.0000
  C   C299      1.0  0.34689  0.19274  0.81806  1.0000
  C   C300      1.0  0.32789  0.19952  0.80352  1.0000
  C   C301      1.0  0.30614  0.18625  0.80233  1.0000
  C   C302      1.0  0.30397  0.16585  0.81550  1.0000
  C   C303      1.0  0.32306  0.15895  0.82989  1.0000
  H   H524      1.0  0.36352  0.20327  0.81896  1.0000
  H   H525      1.0  0.33005  0.21505  0.79328  1.0000
  H   H526      1.0  0.28736  0.15529  0.81462  1.0000
  H   H527      1.0  0.32100  0.14328  0.83994  1.0000
  H   H528      1.0  0.02645  0.44288  0.94106  1.0000
  C   C304      1.0  0.36445  0.11284  0.97616  1.0000
  C   C305      1.0  0.38893  0.12037  0.97622  1.0000
  H   H529      1.0  0.48148  0.17060  0.96918  1.0000
  H   H530      1.0  0.39877  0.12222  0.96039  1.0000
  H   H531      1.0  0.12327  0.42966  0.96368  1.0000
  N   N15       1.0  0.27916  0.23558  0.85484  1.0000
  C   C306      1.0  0.29450  0.22853  0.87489  1.0000
  C   C307      1.0  0.26195  0.25402  0.86131  1.0000
  C   C308      1.0  0.26397  0.21458  0.84805  1.0000
  C   C309      1.0  0.29450  0.24334  0.83474  1.0000
  C   C310      1.0  0.31350  0.26323  0.83861  1.0000
  C   C311      1.0  0.31344  0.21007  0.87026  1.0000
  C   C312      1.0  0.24412  0.21852  0.82983  1.0000
  C   C313      1.0  0.27140  0.27240  0.87822  1.0000
  C   C314      1.0  0.25429  0.29244  0.87905  1.0000
  C   C315      1.0  0.33224  0.26497  0.81948  1.0000
  C   C316      1.0  0.32809  0.20455  0.89157  1.0000
  C   C317      1.0  0.22948  0.19623  0.82513  1.0000
  H   H532      1.0  0.28244  0.22195  0.88894  1.0000
  H   H533      1.0  0.30485  0.24338  0.88209  1.0000
  H   H534      1.0  0.25546  0.26316  0.84579  1.0000
  H   H535      1.0  0.24521  0.24615  0.86942  1.0000
  H   H536      1.0  0.25471  0.20651  0.86317  1.0000
  H   H537      1.0  0.27567  0.20126  0.84106  1.0000
  H   H538      1.0  0.30397  0.22859  0.82784  1.0000
  H   H539      1.0  0.28278  0.24919  0.82057  1.0000
  H   H540      1.0  0.32383  0.26107  0.85455  1.0000
  H   H541      1.0  0.30413  0.27976  0.83885  1.0000
  H   H542      1.0  0.30453  0.19371  0.86473  1.0000
  H   H543      1.0  0.32662  0.21618  0.85705  1.0000
  H   H544      1.0  0.25262  0.22459  0.81373  1.0000
  H   H545      1.0  0.23107  0.23138  0.83516  1.0000
  H   H546      1.0  0.27227  0.26465  0.89554  1.0000
  H   H547      1.0  0.28976  0.27951  0.87385  1.0000
  H   H548      1.0  0.26103  0.30507  0.89169  1.0000
  H   H549      1.0  0.25352  0.30131  0.86223  1.0000
  H   H550      1.0  0.23561  0.28627  0.88397  1.0000
  H   H551      1.0  0.32316  0.26738  0.80286  1.0000
  H   H552      1.0  0.34502  0.27991  0.82223  1.0000
  H   H553      1.0  0.34294  0.24920  0.81911  1.0000
  H   H554      1.0  0.34140  0.19130  0.88766  1.0000
  H   H555      1.0  0.33836  0.22010  0.89751  1.0000
  H   H556      1.0  0.31589  0.19765  0.90527  1.0000
  H   H557      1.0  0.24169  0.18273  0.81944  1.0000
  H   H558      1.0  0.21956  0.19000  0.84057  1.0000
  H   H559      1.0  0.21600  0.19928  0.81148  1.0000
  Fe  Fe40      1.0  0.24246  0.27130  0.77490  1.0000
  H   H560      1.0  0.02817  0.35516  0.94522  1.0000
  H   H561      1.0  0.17250  0.37244  0.99414  1.0000
  C   C318      1.0  0.37225  0.02093  0.86979  1.0000
  C   C319      1.0  0.04356  0.43402  0.93784  1.0000
  H   H562      1.0  0.15284  0.45836  0.95116  1.0000
  H   H563      1.0  0.41808  0.05424  0.95884  1.0000
  H   H564      1.0  0.13060  0.31269  0.79517  1.0000
  C   C320      1.0  0.01158  0.36229  0.98918  1.0000
  H   H565      1.0  0.13265  0.49873  0.92141  1.0000
  C   C321      1.0  0.06433  0.44424  0.83882  1.0000
  H   H566      1.0  0.49679  0.13339  0.94866  1.0000
  H   H567      1.0  0.15790  0.28720  0.79724  1.0000
  C   C322      1.0  0.40073  0.05535  0.96830  1.0000
  H   H568      1.0  0.08692  0.31772  0.78626  1.0000
  H   H569      1.0  0.02496  0.40035  0.93604  1.0000
  H   H570      1.0  0.14387  0.41477  0.98068  1.0000
  H   H571      1.0  0.46980  0.03165  0.86552  1.0000
  H   H572      1.0  0.40568  0.00353  0.95971  1.0000
  H   H573      1.0  0.38692  0.04339  0.96064  1.0000
  C   C323      1.0  0.08800  0.42546  0.99592  1.0000
  H   H574      1.0  0.10667  0.28090  0.77532  1.0000
  H   H575      1.0  0.36554  0.04329  0.99703  1.0000
  H   H576      1.0  0.41210  0.03194  0.99433  1.0000
  H   H577      1.0  0.05811  0.44212  0.94849  1.0000
  H   H578      1.0  0.05702  0.47671  0.86973  1.0000
  H   H579      1.0  0.01343  0.47306  0.91391  1.0000
  C   C324      1.0  0.02305  0.38546  0.86257  1.0000
  C   C325      1.0  0.13756  0.25365  0.75331  1.0000
  H   H580      1.0  0.35183  0.03631  0.89619  1.0000
  N   N16       1.0  0.44931  0.00336  0.90086  1.0000
  H   H581      1.0  0.16934  0.23832  0.78225  1.0000
  H   H582      1.0  0.05363  0.35428  0.96466  1.0000
  C   C326      1.0  0.17645  0.24811  0.81643  1.0000
  H   H583      1.0  0.19206  0.23671  0.81798  1.0000
  H   H584      1.0  0.44409  0.00789  0.93687  1.0000
  C   C327      1.0  0.03697  0.34480  0.95867  1.0000
  C   C328      1.0  0.48247  0.11810  0.86705  1.0000
  H   H585      1.0  0.00310  0.33023  0.97102  1.0000
  H   H586      1.0  0.17097  0.30396  0.76252  1.0000
  H   H587      1.0  0.43784  0.15834  0.96355  1.0000
  H   H588      1.0  0.48719  0.00809  0.89057  1.0000
  H   H589      1.0  0.45679  0.15186  0.93989  1.0000
  C   C329      1.0  0.10155  0.32757  0.77687  1.0000
  H   H590      1.0  0.43905  0.03815  0.90822  1.0000
  C   C330      1.0  0.05908  0.47737  0.91528  1.0000
  C   C331      1.0  0.04978  0.44189  0.86085  1.0000
  C   C332      1.0  0.17266  0.25454  0.79150  1.0000
  H   H591      1.0  0.05040  0.47788  0.93226  1.0000
  S   S80       1.0  0.22953  0.23442  0.77131  1.0000
  C   C333      1.0  0.05111  0.43606  0.91252  1.0000
  H   H592      1.0  0.16000  0.23883  0.82343  1.0000
  H   H593      1.0  0.07884  0.45747  0.88048  1.0000
  C   C334      1.0  0.47554  0.15247  0.97240  1.0000
  H   H594      1.0  0.08352  0.35533  0.99701  1.0000
  H   H595      1.0  0.13028  0.24072  0.76600  1.0000
  H   H596      1.0  0.00363  0.39907  0.83377  1.0000
  C   C335      1.0  0.44250  0.02728  0.89330  1.0000
  H   H597      1.0  0.08397  0.44169  0.84204  1.0000
  H   H598      1.0  0.18248  0.43538  0.93245  1.0000
  H   H599      1.0  0.00324  0.37265  0.97538  1.0000
  H   H600      1.0  0.15384  0.41932  0.93368  1.0000
  C   C336      1.0  0.16907  0.42654  0.94403  1.0000
  H   H601      1.0  0.44670  0.12922  0.95954  1.0000
  C   C337      1.0  0.15153  0.27123  0.78863  1.0000
  H   H602      1.0  0.09550  0.33092  0.75919  1.0000
  H   H603      1.0  0.03049  0.44457  0.85636  1.0000
  N   N17       1.0  0.04667  0.45893  0.90112  1.0000
  N   N18       1.0  0.14367  0.27634  0.76455  1.0000
  H   H604      1.0  0.18985  0.26291  0.78517  1.0000
  H   H605      1.0  0.02840  0.37224  0.99421  1.0000
  C   C338      1.0  0.11941  0.48317  0.86747  1.0000
  H   H606      1.0  0.05691  0.39958  0.94332  1.0000
  H   H607      1.0  0.18054  0.26369  0.82651  1.0000
  H   H608      1.0  0.03509  0.40823  0.96394  1.0000
  H   H609      1.0  0.13573  0.26408  0.79870  1.0000
  C   C339      1.0  0.05896  0.45972  0.87825  1.0000
  C   C340      1.0  0.47632  0.00272  0.90564  1.0000
  C   C341      1.0  0.03995  0.40899  0.94572  1.0000
  C   C342      1.0  0.45041  0.06247  0.86764  1.0000
  H   H610      1.0  0.05760  0.43099  0.82678  1.0000
  C   C343      1.0  0.35728  0.02039  0.88893  1.0000
  C   C344      1.0  0.46158  0.04167  0.87901  1.0000
  C   C345      1.0  0.01918  0.33971  0.97815  1.0000
  H   H611      1.0  0.07084  0.43241  0.91173  1.0000
  H   H612      1.0  0.10986  0.46554  0.97216  1.0000
  H   H613      1.0  0.09113  0.41334  0.98200  1.0000
  H   H614      1.0  0.46465  0.07260  0.85807  1.0000
  H   H615      1.0  0.47648  0.04814  0.89027  1.0000
  C   C346      1.0  0.13885  0.43240  0.97554  1.0000
  C   C347      1.0  0.15298  0.36917  0.99474  1.0000
  H   H616      1.0  0.07850  0.47331  0.91846  1.0000
  H   H617      1.0  0.17555  0.44934  0.97132  1.0000
  C   C348      1.0  0.45287  0.14758  0.95797  1.0000
  H   H618      1.0  0.13910  0.32533  0.76806  1.0000
  H   H619      1.0  0.42494  0.02647  0.88376  1.0000
  H   H620      1.0  0.10476  0.34433  0.78529  1.0000
  C   C349      1.0  0.12140  0.29069  0.76587  1.0000
  H   H621      1.0  0.04203  0.42167  0.90330  1.0000
  H   H622      1.0  0.39441  0.07314  0.96636  1.0000
  H   H623      1.0  0.48012  0.06461  0.80909  1.0000
  H   H624      1.0  0.33283  0.10485  0.99684  1.0000
  C   C350      1.0  0.01990  0.46378  0.89887  1.0000
  H   H625      1.0  0.04247  0.32848  0.95111  1.0000
  C   C351      1.0  0.40068  0.12554  0.99679  1.0000
  H   H626      1.0  0.02816  0.32826  0.99052  1.0000
  H   H627      1.0  0.41957  0.13151  0.99671  1.0000
  C   C352      1.0  0.35181  0.11058  0.99683  1.0000
  H   H628      1.0  0.10549  0.47247  0.00107  1.0000
  C   C353      1.0  0.13661  0.48973  0.98625  1.0000
  H   H629      1.0  0.15260  0.48693  0.97544  1.0000
  N   N19       1.0  0.13115  0.44563  0.99588  1.0000
  H   H630      1.0  0.00811  0.43035  0.88390  1.0000
  H   H631      1.0  0.41881  0.06165  0.99995  1.0000
  H   H632      1.0  0.47001  0.15064  0.99048  1.0000
  H   H633      1.0  0.48869  0.11862  0.97416  1.0000
  H   H634      1.0  0.44632  0.00406  0.85122  1.0000
  H   H635      1.0  0.08002  0.44109  0.98856  1.0000
  C   C354      1.0  0.49594  0.13551  0.96736  1.0000
  C   C355      1.0  0.10283  0.35965  0.99638  1.0000
  H   H636      1.0  0.40372  0.01876  0.91947  1.0000
  C   C356      1.0  0.16457  0.28895  0.75257  1.0000
  H   H637      1.0  0.48141  0.01542  0.91892  1.0000
  H   H638      1.0  0.01707  0.47576  0.88425  1.0000
  C   C357      1.0  0.00218  0.39295  0.85114  1.0000
  C   C358      1.0  0.40824  0.00063  0.92296  1.0000
  H   H639      1.0  0.39047  0.00050  0.84549  1.0000
  Fe  Fe41      1.0  0.35716  0.88393  0.13203  1.0000
  S   S81       1.0  0.35474  0.91839  0.11429  1.0000
  S   S82       1.0  0.32104  0.87074  0.14806  1.0000
  Fe  Fe42      1.0  0.41028  0.88063  0.11816  1.0000
  S   S83       1.0  0.41181  0.91455  0.09987  1.0000
  S   S84       1.0  0.44355  0.85912  0.11660  1.0000
  Fe  Fe43      1.0  0.39115  0.92712  0.12936  1.0000
  S   S85       1.0  0.40231  0.96186  0.14339  1.0000
  Fe  Fe44      1.0  0.37552  0.90363  0.08573  1.0000
  S   S86       1.0  0.36770  0.91707  0.05038  1.0000
  S   S87       1.0  0.39254  0.89389  0.14943  1.0000
  S   S88       1.0  0.37505  0.86832  0.10176  1.0000
  Fe  Fe45      1.0  0.11948  0.58821  0.11877  1.0000
  S   S89       1.0  0.10525  0.59989  0.08514  1.0000
  S   S90       1.0  0.11591  0.55122  0.13153  1.0000
  Fe  Fe46      1.0  0.12580  0.63742  0.13675  1.0000
  S   S91       1.0  0.11046  0.65263  0.10451  1.0000
  S   S92       1.0  0.13454  0.65678  0.16979  1.0000
  Fe  Fe47      1.0  0.08233  0.62344  0.10484  1.0000
  S   S93       1.0  0.04450  0.62225  0.08903  1.0000
  Fe  Fe48      1.0  0.13403  0.62796  0.08653  1.0000
  S   S94       1.0  0.15125  0.64238  0.05407  1.0000
  S   S95       1.0  0.09501  0.61034  0.13856  1.0000
  S   S96       1.0  0.15115  0.61426  0.11881  1.0000
  H   H640      1.0  0.09546  0.59976  0.01081  1.0000
  H   H641      1.0  0.01963  0.57113  0.09829  1.0000
  S   S97       1.0  0.29714  0.81055  0.23772  1.0000
  H   H642      1.0  0.20672  0.62681  0.19111  1.0000
  S   S98       1.0  0.22067  0.72549  0.20466  1.0000
  S   S99       1.0  0.27149  0.74808  0.24155  1.0000
  C   C359      1.0  0.14854  0.62764  0.02817  1.0000
  H   H643      1.0  0.28939  0.75013  0.18941  1.0000
  H   H644      1.0  0.14844  0.59374  0.04322  1.0000
  C   C360      1.0  0.15901  0.67550  0.17920  1.0000
  C   C361      1.0  0.15777  0.68497  0.20097  1.0000
  C   C362      1.0  0.17637  0.70018  0.20911  1.0000
  C   C363      1.0  0.19667  0.70607  0.19562  1.0000
  C   C364      1.0  0.19810  0.69640  0.17398  1.0000
  C   C365      1.0  0.17945  0.68125  0.16580  1.0000
  H   H645      1.0  0.14207  0.68072  0.21150  1.0000
  H   H646      1.0  0.17475  0.70758  0.22567  1.0000
  H   H647      1.0  0.21364  0.70078  0.16333  1.0000
  H   H648      1.0  0.18077  0.67417  0.14906  1.0000
  H   H649      1.0  0.06163  0.52265  0.14180  1.0000
  C   C366      1.0  0.02775  0.55493  0.10445  1.0000
  C   C367      1.0  0.01735  0.62170  0.10491  1.0000
  C   C368      1.0  0.01678  0.62935  0.12720  1.0000
  H   H650      1.0  0.36316  0.97036  0.02053  1.0000
  H   H651      1.0  0.03353  0.63479  0.13555  1.0000
  C   C369      1.0  0.02148  0.59906  0.02467  1.0000
  C   C370      1.0  0.12033  0.52764  0.11390  1.0000
  C   C371      1.0  0.13346  0.52994  0.09366  1.0000
  H   H652      1.0  0.21075  0.80257  0.18717  1.0000
  H   H653      1.0  0.14025  0.54675  0.08794  1.0000
  H   H654      1.0  0.29172  0.96955  0.18183  1.0000
  C   C372      1.0  0.37352  0.90120  0.02599  1.0000
  C   C373      1.0  0.38077  0.87849  0.02741  1.0000
  H   H655      1.0  0.31450  0.94878  0.10412  1.0000
  H   H656      1.0  0.38256  0.87012  0.04381  1.0000
  C   C374      1.0  0.38928  0.98658  0.13155  1.0000
  C   C375      1.0  0.37109  0.98490  0.11499  1.0000
  H   H657      1.0  0.26080  0.69126  0.19027  1.0000
  C   C376      1.0  0.04602  0.59503  0.01266  1.0000
  H   H658      1.0  0.30899  0.96287  0.20611  1.0000
  H   H659      1.0  0.36576  0.96835  0.10821  1.0000
  H   H660      1.0  0.44735  0.95125  0.08596  1.0000
  C   C377      1.0  0.31494  0.85320  0.17259  1.0000
  C   C378      1.0  0.33349  0.84433  0.18599  1.0000
  C   C379      1.0  0.32767  0.83123  0.20574  1.0000
  C   C380      1.0  0.30329  0.82618  0.21200  1.0000
  C   C381      1.0  0.28472  0.83478  0.19841  1.0000
  C   C382      1.0  0.29056  0.84836  0.17896  1.0000
  H   H661      1.0  0.35233  0.84788  0.18138  1.0000
  H   H662      1.0  0.34220  0.82492  0.21626  1.0000
  H   H663      1.0  0.26592  0.83163  0.20332  1.0000
  H   H664      1.0  0.27606  0.85538  0.16888  1.0000
  H   H665      1.0  0.42723  0.90298  0.02006  1.0000
  H   H666      1.0  0.46662  0.93555  0.04011  1.0000
  C   C383      1.0  0.44696  0.89997  0.01745  1.0000
  C   C384      1.0  0.47209  0.87314  0.12135  1.0000
  C   C385      1.0  0.20724  0.78549  0.17948  1.0000
  H   H667      1.0  0.24126  0.71936  0.12888  1.0000
  H   H668      1.0  0.43272  0.82131  0.05292  1.0000
  C   C386      1.0  0.29135  0.82683  0.10795  1.0000
  H   H669      1.0  0.28842  0.77750  0.20231  1.0000
  C   C387      1.0  0.34960  0.89931  0.20377  1.0000
  H   H670      1.0  0.05475  0.57685  0.19989  1.0000
  H   H671      1.0  0.25207  0.76701  0.18363  1.0000
  C   C388      1.0  0.47118  0.92466  0.07426  1.0000
  H   H672      1.0  0.33745  0.93217  0.21383  1.0000
  H   H673      1.0  0.32437  0.75741  0.21496  1.0000
  H   H674      1.0  0.45993  0.85162  0.03479  1.0000
  H   H675      1.0  0.36270  0.96921  0.17239  1.0000
  C   C389      1.0  0.29514  0.80633  0.12393  1.0000
  H   H676      1.0  0.14966  0.51209  0.06610  1.0000
  H   H677      1.0  0.28646  0.73132  0.15776  1.0000
  C   C390      1.0  0.47382  0.89431  0.13211  1.0000
  H   H678      1.0  0.32372  0.91701  0.17170  1.0000
  N   N20       1.0  0.45998  0.89861  0.04004  1.0000
  H   H679      1.0  0.33376  0.78252  0.19855  1.0000
  Fe  Fe49      1.0  0.26648  0.78508  0.24919  1.0000
  H   H680      1.0  0.02475  0.60444  0.04241  1.0000
  H   H681      1.0  0.28449  0.75866  0.12694  1.0000
  C   C391      1.0  0.31995  0.95912  0.14973  1.0000
  H   H682      1.0  0.06266  0.57439  0.10292  1.0000
  H   H683      1.0  0.30333  0.79804  0.16995  1.0000
  H   H684      1.0  0.47574  0.94947  0.10103  1.0000
  C   C392      1.0  0.17248  0.51644  0.15647  1.0000
  C   C393      1.0  0.34815  0.92519  0.19981  1.0000
  H   H685      1.0  0.25641  0.80017  0.12719  1.0000
  H   H686      1.0  0.25505  0.73488  0.16576  1.0000
  H   H687      1.0  0.04082  0.58350  0.13785  1.0000
  H   H688      1.0  0.27269  0.71596  0.12065  1.0000
  H   H689      1.0  0.25503  0.79715  0.18130  1.0000
  H   H690      1.0  0.28381  0.92425  0.17821  1.0000
  H   H691      1.0  0.28266  0.94461  0.14683  1.0000
  H   H692      1.0  0.25263  0.76072  0.12870  1.0000
  H   H693      1.0  0.22125  0.76444  0.15349  1.0000
  H   H694      1.0  0.20778  0.77200  0.19295  1.0000
  H   H695      1.0  0.03845  0.54593  0.17580  1.0000
  C   C394      1.0  0.14806  0.60364  0.02755  1.0000
  H   H696      1.0  0.20097  0.54006  0.14297  1.0000
  H   H697      1.0  0.31286  0.97661  0.14749  1.0000
  C   C395      1.0  0.25600  0.68233  0.23753  1.0000
  H   H698      1.0  0.25981  0.69965  0.14429  1.0000
  H   H699      1.0  0.29936  0.79145  0.11342  1.0000
  H   H700      1.0  0.04807  0.57245  0.06376  1.0000
  H   H701      1.0  0.25987  0.69770  0.24811  1.0000
  C   C396      1.0  0.06603  0.62978  0.02727  1.0000
  C   C397      1.0  0.26368  0.93933  0.20480  1.0000
  H   H702      1.0  0.22406  0.79500  0.14799  1.0000
  H   H703      1.0  0.17615  0.55368  0.15666  1.0000
  C   C398      1.0  0.44631  0.88066  0.05438  1.0000
  C   C399      1.0  0.30374  0.95632  0.18909  1.0000
  H   H704      1.0  0.29022  0.96710  0.11184  1.0000
  H   H705      1.0  0.09847  0.65061  0.01581  1.0000
  C   C400      1.0  0.30058  0.94295  0.13857  1.0000
  C   C401      1.0  0.44323  0.85654  0.04368  1.0000
  C   C402      1.0  0.08089  0.65277  0.02446  1.0000
  C   C403      1.0  0.01560  0.69644  0.03253  1.0000
  C   C404      1.0  0.43656  0.83793  0.06137  1.0000
  C   C405      1.0  0.04097  0.56504  0.14327  1.0000
  H   H706      1.0  0.42761  0.88635  0.05816  1.0000
  H   H707      1.0  0.45483  0.87861  0.07128  1.0000
  H   H708      1.0  0.34958  0.96984  0.19971  1.0000
  C   C406      1.0  0.26931  0.75927  0.13930  1.0000
  H   H709      1.0  0.47538  0.96209  0.07291  1.0000
  H   H710      1.0  0.35889  0.89581  0.22013  1.0000
  H   H711      1.0  0.27562  0.71408  0.20606  1.0000
  H   H712      1.0  0.15251  0.82118  0.24826  1.0000
  H   H713      1.0  0.07683  0.55881  0.06655  1.0000
  H   H714      1.0  0.03210  0.68684  0.02861  1.0000
  H   H715      1.0  0.45747  0.90232  0.13762  1.0000
  C   C407      1.0  0.11174  0.50575  0.12122  1.0000
  C   C408      1.0  0.22818  0.64513  0.21636  1.0000
  H   H716      1.0  0.22931  0.60978  0.20494  1.0000
  H   H717      1.0  0.06631  0.54416  0.10418  1.0000
  H   H718      1.0  0.15270  0.51754  0.16005  1.0000
  C   C409      1.0  0.45829  0.92170  0.05107  1.0000
  H   H719      1.0  0.45189  0.83576  0.07342  1.0000
  C   C410      1.0  0.33702  0.93100  0.17627  1.0000
  H   H720      1.0  0.04872  0.63455  0.03529  1.0000
  H   H721      1.0  0.07570  0.57195  0.17717  1.0000
  H   H722      1.0  0.38201  0.97106  0.04569  1.0000
  C   C411      1.0  0.48628  0.89295  0.03614  1.0000
  H   H723      1.0  0.26976  0.81674  0.14925  1.0000
  C   C412      1.0  0.34529  0.97194  0.18138  1.0000
  C   C413      1.0  0.27695  0.69603  0.20081  1.0000
  C   C414      1.0  0.05738  0.57820  0.18126  1.0000
  C   C415      1.0  0.13878  0.51029  0.08134  1.0000
  H   H724      1.0  0.39440  0.96223  0.01919  1.0000
  C   C416      1.0  0.25999  0.71653  0.13524  1.0000
  C   C417      1.0  0.08673  0.66310  0.04749  1.0000
  H   H725      1.0  0.07544  0.61890  0.04008  1.0000
  H   H726      1.0  0.01550  0.52330  0.15357  1.0000
  H   H727      1.0  0.30830  0.83083  0.09816  1.0000
  H   H728      1.0  0.33450  0.75435  0.18615  1.0000
  C   C418      1.0  0.25217  0.78140  0.17107  1.0000
  H   H729      1.0  0.27631  0.82295  0.09584  1.0000
  H   H730      1.0  0.26685  0.94846  0.22097  1.0000
  H   H731      1.0  0.36695  0.93295  0.20082  1.0000
  H   H732      1.0  0.33686  0.95892  0.13940  1.0000
  H   H733      1.0  0.42005  0.84246  0.07092  1.0000
  H   H734      1.0  0.35197  0.92970  0.16367  1.0000
  C   C419      1.0  0.29810  0.76750  0.18957  1.0000
  H   H735      1.0  0.28366  0.93726  0.10576  1.0000
  H   H736      1.0  0.18867  0.78496  0.17198  1.0000
  H   H737      1.0  0.25767  0.63030  0.23464  1.0000
  H   H738      1.0  0.43876  0.92587  0.05315  1.0000
  C   C420      1.0  0.29702  0.78007  0.16623  1.0000
  H   H739      1.0  0.05670  0.58375  0.02407  1.0000
  H   H740      1.0  0.05985  0.55985  0.14006  1.0000
  H   H741      1.0  0.09729  0.67963  0.04521  1.0000
  H   H742      1.0  0.06979  0.66618  0.05704  1.0000
  H   H743      1.0  0.09801  0.65122  0.05747  1.0000
  H   H744      1.0  0.31138  0.81077  0.13445  1.0000
  H   H745      1.0  0.05658  0.59657  0.17604  1.0000
  C   C421      1.0  0.24184  0.64070  0.23912  1.0000
  C   C422      1.0  0.22602  0.78134  0.16108  1.0000
  H   H746      1.0  0.01877  0.54088  0.09453  1.0000
  C   C423      1.0  0.32434  0.76533  0.19770  1.0000
  H   H747      1.0  0.02129  0.71166  0.04260  1.0000
  H   H748      1.0  0.28708  0.84228  0.11772  1.0000
  H   H749      1.0  0.44759  0.88331  0.00859  1.0000
  N   N21       1.0  0.32597  0.95426  0.17428  1.0000
  C   C424      1.0  0.27224  0.80118  0.13896  1.0000
  Fe  Fe50      1.0  0.23076  0.74467  0.23734  1.0000
  C   C425      1.0  0.29710  0.94948  0.11357  1.0000
  H   H750      1.0  0.29527  0.68473  0.23100  1.0000
  C   C426      1.0  0.03747  0.56386  0.16932  1.0000
  C   C427      1.0  0.18094  0.53937  0.14553  1.0000
  H   H751      1.0  0.46923  0.99378  0.14813  1.0000
  H   H752      1.0  0.33103  0.89105  0.20444  1.0000
  H   H753      1.0  0.49116  0.92344  0.07232  1.0000
  H   H754      1.0  0.04920  0.54131  0.06439  1.0000
  C   C428      1.0  0.05486  0.55766  0.09706  1.0000
  C   C429      1.0  0.26809  0.73551  0.15147  1.0000
  C   C430      1.0  0.05726  0.55751  0.07130  1.0000
  C   C431      1.0  0.46709  0.94834  0.08403  1.0000
  C   C432      1.0  0.28789  0.93399  0.19376  1.0000
  C   C433      1.0  0.04619  0.51343  0.13337  1.0000
  C   C434      1.0  0.02209  0.52601  0.13588  1.0000
  C   C435      1.0  0.21576  0.62311  0.20757  1.0000
  S   S100      1.0  0.22581  0.78258  0.24311  1.0000
  H   H755      1.0  0.42829  0.85657  0.03104  1.0000
  H   H756      1.0  0.30581  0.92477  0.13944  1.0000
  H   H757      1.0  0.25272  0.95007  0.19322  1.0000
  H   H758      1.0  0.21406  0.65804  0.21771  1.0000
  N   N22       1.0  0.27267  0.77996  0.15415  1.0000
  H   H759      1.0  0.46442  0.91158  0.08682  1.0000
  H   H760      1.0  0.36005  0.89154  0.19001  1.0000
  H   H761      1.0  0.00697  0.67485  0.06140  1.0000
  H   H762      1.0  0.31120  0.77316  0.15505  1.0000
  H   H763      1.0  0.29360  0.69468  0.19037  1.0000
  H   H764      1.0  0.24011  0.68698  0.22714  1.0000
  H   H765      1.0  0.25311  0.92304  0.20853  1.0000
  H   H766      1.0  0.24118  0.65160  0.20314  1.0000
  H   H767      1.0  0.20756  0.68913  0.24821  1.0000
  H   H768      1.0  0.01975  0.57074  0.17426  1.0000
  H   H769      1.0  0.29746  0.92232  0.20552  1.0000
  C   C436      1.0  0.27826  0.68011  0.22159  1.0000
  H   H770      1.0  0.18237  0.51439  0.17274  1.0000
  H   H771      1.0  0.05038  0.51138  0.11517  1.0000
  H   H772      1.0  0.17177  0.54194  0.12893  1.0000
  H   H773      1.0  0.20159  0.61646  0.21968  1.0000
  H   H774      1.0  0.27976  0.66231  0.21557  1.0000
  H   H775      1.0  0.19723  0.65925  0.25077  1.0000
  C   C437      1.0  0.38184  0.97424  0.02706  1.0000
  N   N23       1.0  0.02262  0.55124  0.12946  1.0000
  C   C438      1.0  0.46368  0.99977  0.13098  1.0000
  H   H776      1.0  0.00733  0.70223  0.01633  1.0000
  H   H777      1.0  0.49758  0.99262  0.11559  1.0000
  C   C439      1.0  0.14852  0.64030  0.00766  1.0000
  H   H778      1.0  0.07014  0.66541  0.01485  1.0000
  C   C440      1.0  0.33922  0.99749  0.17738  1.0000
  C   C441      1.0  0.49679  0.90487  0.13630  1.0000
  H   H779      1.0  0.45374  0.98530  0.12253  1.0000
  H   H780      1.0  0.01119  0.61247  0.01569  1.0000
  C   C442      1.0  0.38534  0.86648  0.00749  1.0000
  H   H781      1.0  0.00858  0.51628  0.12539  1.0000
  H   H782      1.0  0.10175  0.50383  0.13695  1.0000
  H   H783      1.0  0.01515  0.56294  0.03429  1.0000
  H   H784      1.0  0.45226  0.93597  0.00582  1.0000
  H   H785      1.0  0.48797  0.88222  0.02085  1.0000
  H   H786      1.0  0.14913  0.65887  0.00801  1.0000
  C   C443      1.0  0.14861  0.59249  0.00660  1.0000
  H   H787      1.0  0.14934  0.57398  0.00629  1.0000
  H   H788      1.0  0.39060  0.84880  0.00858  1.0000
  C   C444      1.0  0.00539  0.57703  0.02577  1.0000
  H   H789      1.0  0.49218  0.84649  0.10599  1.0000
  C   C445      1.0  0.49344  0.86286  0.11434  1.0000
  H   H790      1.0  0.49343  0.86128  0.05563  1.0000
  H   H791      1.0  0.49513  0.88620  0.07250  1.0000
  N   N24       1.0  0.06115  0.61631  0.00600  1.0000
  H   H792      1.0  0.49803  0.92099  0.14513  1.0000
  H   H793      1.0  0.49732  0.90899  0.03223  1.0000
  H   H794      1.0  0.00701  0.68486  0.13290  1.0000
  C   C446      1.0  0.39002  0.99906  0.02135  1.0000
  H   H795      1.0  0.00098  0.69465  0.09246  1.0000
  H   H796      1.0  0.23008  0.62893  0.24988  1.0000
  C   C447      1.0  0.37090  0.91178  0.00463  1.0000
  H   H797      1.0  0.99997  0.57169  0.00844  1.0000
  H   H798      1.0  0.49933  0.88317  0.20968  1.0000
  C   C448      1.0  0.49927  0.87972  0.05556  1.0000
  H   H799      1.0  0.36497  0.92923  0.00339  1.0000
  Fe  Fe51      1.0  0.41004  0.62004  0.38356  1.0000
  S   S101      1.0  0.37811  0.59751  0.37204  1.0000
  S   S102      1.0  0.44525  0.62232  0.36317  1.0000
  Fe  Fe52      1.0  0.38437  0.63303  0.42690  1.0000
  S   S103      1.0  0.35103  0.61137  0.41884  1.0000
  S   S104      1.0  0.38836  0.65361  0.45898  1.0000
  Fe  Fe53      1.0  0.37685  0.58456  0.40824  1.0000
  S   S105      1.0  0.37942  0.54889  0.42435  1.0000
  Fe  Fe54      1.0  0.35482  0.62651  0.38332  1.0000
  S   S106      1.0  0.31892  0.63832  0.36739  1.0000
  S   S107      1.0  0.40991  0.60556  0.41883  1.0000
  S   S108      1.0  0.38695  0.64985  0.39227  1.0000
  Fe  Fe55      1.0  0.07714  0.87936  0.38652  1.0000
  S   S109      1.0  0.10370  0.90360  0.36848  1.0000
  S   S110      1.0  0.04177  0.86592  0.37085  1.0000
  Fe  Fe56      1.0  0.10851  0.87699  0.42930  1.0000
  S   S111      1.0  0.13769  0.90084  0.41453  1.0000
  S   S112      1.0  0.10513  0.86169  0.46485  1.0000
  Fe  Fe57      1.0  0.10683  0.92189  0.40170  1.0000
  S   S113      1.0  0.09979  0.95886  0.41063  1.0000
  Fe  Fe58      1.0  0.13258  0.88040  0.38231  1.0000
  S   S114      1.0  0.16505  0.87239  0.35942  1.0000
  S   S115      1.0  0.07806  0.89903  0.41857  1.0000
  S   S116      1.0  0.10555  0.85499  0.39830  1.0000
  Fe  Fe59      1.0  0.26589  0.74006  0.27852  1.0000
  S   S117      1.0  0.22545  0.73426  0.27402  1.0000
  S   S118      1.0  0.29521  0.71796  0.29488  1.0000
  Fe  Fe60      1.0  0.22298  0.77252  0.28040  1.0000
  S   S119      1.0  0.19398  0.78181  0.30659  1.0000
  S   S120      1.0  0.26323  0.77748  0.28675  1.0000
  C   C449      1.0  0.17294  0.84691  0.34510  1.0000
  C   C450      1.0  0.16120  0.82554  0.34949  1.0000
  C   C451      1.0  0.16796  0.80592  0.33760  1.0000
  C   C452      1.0  0.18657  0.80728  0.32116  1.0000
  C   C453      1.0  0.19834  0.82865  0.31678  1.0000
  C   C454      1.0  0.19159  0.84826  0.32870  1.0000
  H   H800      1.0  0.14695  0.82409  0.36212  1.0000
  H   H801      1.0  0.15869  0.78953  0.34120  1.0000
  H   H802      1.0  0.21265  0.83009  0.30421  1.0000
  H   H803      1.0  0.20090  0.86465  0.32514  1.0000
  H   H804      1.0  0.06282  0.84498  0.43963  1.0000
  C   C455      1.0  0.11133  0.98507  0.39861  1.0000
  C   C456      1.0  0.45160  0.62073  0.48451  1.0000
  H   H805      1.0  0.44099  0.52909  0.43596  1.0000
  H   H806      1.0  0.13765  0.97041  0.37679  1.0000
  C   C457      1.0  0.13545  0.95355  0.46175  1.0000
  C   C458      1.0  0.01571  0.88203  0.37544  1.0000
  C   C459      1.0  0.26288  0.61804  0.48946  1.0000
  H   H807      1.0  0.05560  0.84164  0.30316  1.0000
  H   H808      1.0  0.03554  0.91115  0.38926  1.0000
  H   H809      1.0  0.32933  0.65061  0.44112  1.0000
  C   C460      1.0  0.13585  0.89360  0.48576  1.0000
  C   C461      1.0  0.11886  0.87526  0.48843  1.0000
  C   C462      1.0  0.31892  0.66339  0.45032  1.0000
  H   H810      1.0  0.42120  0.55166  0.32467  1.0000
  H   H811      1.0  0.14081  0.89970  0.46893  1.0000
  H   H812      1.0  0.17650  0.95741  0.49196  1.0000
  C   C463      1.0  0.31275  0.66085  0.34749  1.0000
  C   C464      1.0  0.33129  0.67380  0.33640  1.0000
  C   C465      1.0  0.32548  0.69102  0.32034  1.0000
  C   C466      1.0  0.30112  0.69585  0.31530  1.0000
  C   C467      1.0  0.28254  0.68291  0.32638  1.0000
  C   C468      1.0  0.28834  0.66555  0.34232  1.0000
  H   H813      1.0  0.35013  0.67036  0.34001  1.0000
  H   H814      1.0  0.34005  0.70075  0.31179  1.0000
  H   H815      1.0  0.26373  0.68593  0.32240  1.0000
  H   H816      1.0  0.27383  0.65550  0.35060  1.0000
  C   C469      1.0  0.38134  0.61492  0.48607  1.0000
  C   C470      1.0  0.38553  0.63873  0.48515  1.0000
  H   H817      1.0  0.45375  0.60215  0.48161  1.0000
  H   H818      1.0  0.38106  0.60522  0.47060  1.0000
  H   H819      1.0  0.48348  0.53114  0.36327  1.0000
  C   C471      1.0  0.37305  0.52269  0.41051  1.0000
  H   H820      1.0  0.19126  0.93743  0.47382  1.0000
  H   H821      1.0  0.21527  0.94440  0.43211  1.0000
  C   C472      1.0  0.24522  0.82624  0.35767  1.0000
  H   H822      1.0  0.34743  0.53619  0.38663  1.0000
  H   H823      1.0  0.28054  0.67214  0.27385  1.0000
  H   H824      1.0  0.21680  0.91954  0.39894  1.0000
  C   C473      1.0  0.47305  0.61576  0.37655  1.0000
  C   C474      1.0  0.47486  0.61396  0.40013  1.0000
  N   N25       1.0  0.17514  0.97249  0.44372  1.0000
  H   H825      1.0  0.45928  0.61706  0.41054  1.0000
  H   H826      1.0  0.27356  0.65434  0.48856  1.0000
  H   H827      1.0  0.16151  0.95010  0.41750  1.0000
  H   H828      1.0  0.32021  0.70080  0.45237  1.0000
  H   H829      1.0  0.26072  0.64377  0.29912  1.0000
  C   C475      1.0  0.18096  0.99198  0.42704  1.0000
  C   C476      1.0  0.43337  0.56202  0.35833  1.0000
  H   H830      1.0  0.32990  0.75099  0.32215  1.0000
  H   H831      1.0  0.25111  0.72159  0.38634  1.0000
  H   H832      1.0  0.49252  0.61349  0.34506  1.0000
  H   H833      1.0  0.12961  0.94270  0.44731  1.0000
  C   C477      1.0  0.19898  0.92265  0.40696  1.0000
  C   C478      1.0  0.49382  0.61233  0.36333  1.0000
  H   H834      1.0  0.23792  0.68201  0.28017  1.0000
  C   C479      1.0  0.08071  0.81327  0.35399  1.0000
  H   H835      1.0  0.28360  0.72371  0.38105  1.0000
  H   H836      1.0  0.17112  0.98907  0.41076  1.0000
  H   H837      1.0  0.26142  0.83367  0.36661  1.0000
  C   C480      1.0  0.13024  0.98610  0.38278  1.0000
  H   H838      1.0  0.14634  0.94279  0.47304  1.0000
  C   C481      1.0  0.18821  0.67969  0.27870  1.0000
  H   H839      1.0  0.19453  0.90817  0.41895  1.0000
  H   H840      1.0  0.34270  0.57787  0.45894  1.0000
  H   H841      1.0  0.28106  0.79596  0.36214  1.0000
  C   C482      1.0  0.31633  0.61685  0.47034  1.0000
  C   C483      1.0  0.49706  0.60859  0.41039  1.0000
  H   H842      1.0  0.05391  0.87478  0.26214  1.0000
  H   H843      1.0  0.29759  0.58685  0.48769  1.0000
  H   H844      1.0  0.15037  0.98831  0.46667  1.0000
  H   H845      1.0  0.29300  0.61757  0.30699  1.0000
  H   H846      1.0  0.30512  0.62128  0.27872  1.0000
  H   H847      1.0  0.05652  0.88535  0.48507  1.0000
  H   H848      1.0  0.46358  0.50724  0.41068  1.0000
  H   H849      1.0  0.28748  0.65103  0.25383  1.0000
  C   C484      1.0  0.27298  0.65634  0.26553  1.0000
  C   C485      1.0  0.14980  0.97545  0.45297  1.0000
  C   C486      1.0  0.27038  0.63727  0.28418  1.0000
  H   H850      1.0  0.00168  0.89076  0.45589  1.0000
  C   C487      1.0  0.44805  0.56354  0.44678  1.0000
  H   H851      1.0  0.22690  0.65283  0.28127  1.0000
  H   H852      1.0  0.31386  0.76044  0.37090  1.0000
  H   H853      1.0  0.04426  0.91228  0.47534  1.0000
  H   H854      1.0  0.11748  0.96989  0.48978  1.0000
  H   H855      1.0  0.33113  0.73152  0.34637  1.0000
  C   C488      1.0  0.36592  0.53114  0.49237  1.0000
  H   H856      1.0  0.03189  0.87382  0.43852  1.0000
  C   C489      1.0  0.32342  0.57451  0.46409  1.0000
  H   H857      1.0  0.34976  0.68818  0.45085  1.0000
  H   H858      1.0  0.48514  0.68765  0.29736  1.0000
  H   H859      1.0  0.09634  0.80279  0.35907  1.0000
  H   H860      1.0  0.17130  0.93522  0.44199  1.0000
  H   H861      1.0  0.32178  0.55706  0.47192  1.0000
  C   C490      1.0  0.19248  0.95488  0.48099  1.0000
  C   C491      1.0  0.17589  0.95034  0.43090  1.0000
  C   C492      1.0  0.35616  0.52099  0.39285  1.0000
  H   H862      1.0  0.33089  0.68979  0.42597  1.0000
  C   C493      1.0  0.02579  0.85598  0.44333  1.0000
  H   H863      1.0  0.07666  0.90844  0.47538  1.0000
  C   C494      1.0  0.38409  0.50277  0.41854  1.0000
  C   C495      1.0  0.20047  0.94547  0.41936  1.0000
  H   H864      1.0  0.22540  0.79421  0.35384  1.0000
  H   H865      1.0  0.28040  0.76756  0.39019  1.0000
  H   H866      1.0  0.24708  0.82987  0.33920  1.0000
  H   H867      1.0  0.30674  0.61598  0.45370  1.0000
  C   C496      1.0  0.44690  0.55101  0.40566  1.0000
  H   H868      1.0  0.43586  0.62641  0.47428  1.0000
  H   H869      1.0  0.42682  0.55298  0.40550  1.0000
  H   H870      1.0  0.09488  0.85981  0.26937  1.0000
  H   H871      1.0  0.24010  0.79784  0.38087  1.0000
  H   H872      1.0  0.19553  0.69427  0.28879  1.0000
  H   H873      1.0  0.31389  0.78096  0.34759  1.0000
  H   H874      1.0  0.21490  0.70078  0.32694  1.0000
  C   C497      1.0  0.27966  0.63827  0.48081  1.0000
  H   H875      1.0  0.20411  0.71686  0.35043  1.0000
  H   H876      1.0  0.24921  0.71546  0.35027  1.0000
  H   H877      1.0  0.24858  0.76250  0.39068  1.0000
  C   C498      1.0  0.43655  0.53725  0.36775  1.0000
  C   C499      1.0  0.13181  0.81384  0.27928  1.0000
  H   H878      1.0  0.27541  0.64022  0.46249  1.0000
  C   C500      1.0  0.29532  0.62984  0.29245  1.0000
  H   H879      1.0  0.26696  0.79227  0.33523  1.0000
  H   H880      1.0  0.07168  0.81910  0.36958  1.0000
  H   H881      1.0  0.33590  0.62057  0.46625  1.0000
  C   C501      1.0  0.41492  0.56210  0.33892  1.0000
  H   H882      1.0  0.06728  0.80254  0.34435  1.0000
  H   H883      1.0  0.27456  0.71120  0.42011  1.0000
  H   H884      1.0  0.39684  0.55515  0.34483  1.0000
  H   H885      1.0  0.42672  0.57342  0.37160  1.0000
  H   H886      1.0  0.34969  0.75768  0.34573  1.0000
  H   H887      1.0  0.45075  0.56964  0.35156  1.0000
  H   H888      1.0  0.31161  0.57482  0.44880  1.0000
  H   H889      1.0  0.45491  0.56858  0.40220  1.0000
  H   H890      1.0  0.10267  0.94364  0.48034  1.0000
  H   H891      1.0  0.02887  0.86534  0.28013  1.0000
  N   N26       1.0  0.30669  0.63606  0.48428  1.0000
  H   H892      1.0  0.22880  0.83478  0.36380  1.0000
  H   H893      1.0  0.20479  0.72959  0.32225  1.0000
  N   N27       1.0  0.10919  0.84556  0.30059  1.0000
  C   C502      1.0  0.11526  0.86800  0.31214  1.0000
  C   C503      1.0  0.10269  0.82690  0.31799  1.0000
  C   C504      1.0  0.13180  0.83884  0.28811  1.0000
  C   C505      1.0  0.08900  0.84790  0.28343  1.0000
  C   C506      1.0  0.06426  0.85558  0.29252  1.0000
  C   C507      1.0  0.12420  0.88838  0.29660  1.0000
  H   H894      1.0  0.30657  0.64490  0.29820  1.0000
  C   C508      1.0  0.08946  0.83417  0.33979  1.0000
  C   C509      1.0  0.45285  0.54411  0.43056  1.0000
  C   C510      1.0  0.12853  0.91023  0.31021  1.0000
  C   C511      1.0  0.31925  0.65837  0.47630  1.0000
  H   H895      1.0  0.12971  0.86535  0.32502  1.0000
  H   H896      1.0  0.09956  0.87400  0.32187  1.0000
  H   H897      1.0  0.09170  0.81271  0.31004  1.0000
  H   H898      1.0  0.11944  0.81890  0.32445  1.0000
  H   H899      1.0  0.14815  0.84102  0.29922  1.0000
  H   H900      1.0  0.42838  0.56726  0.44677  1.0000
  H   H901      1.0  0.32870  0.59154  0.49556  1.0000
  H   H902      1.0  0.08495  0.83124  0.27512  1.0000
  H   H903      1.0  0.06622  0.87146  0.30251  1.0000
  H   H904      1.0  0.45889  0.57936  0.44187  1.0000
  H   H905      1.0  0.14176  0.88468  0.28844  1.0000
  H   H906      1.0  0.11056  0.89212  0.28330  1.0000
  H   H907      1.0  0.44227  0.52709  0.35306  1.0000
  H   H908      1.0  0.13296  0.80129  0.29359  1.0000
  H   H909      1.0  0.10228  0.84455  0.35040  1.0000
  H   H910      1.0  0.07357  0.84466  0.33613  1.0000
  H   H911      1.0  0.04433  0.84110  0.41475  1.0000
  C   C512      1.0  0.23093  0.66757  0.26948  1.0000
  H   H912      1.0  0.39717  0.50400  0.43221  1.0000
  H   H913      1.0  0.14203  0.90740  0.32394  1.0000
  H   H914      1.0  0.13575  0.92434  0.29891  1.0000
  H   H915      1.0  0.11121  0.91563  0.31777  1.0000
  C   C513      1.0  0.45179  0.51019  0.39575  1.0000
  H   H916      1.0  0.13525  0.85044  0.27317  1.0000
  H   H917      1.0  0.20556  0.95901  0.40659  1.0000
  H   H918      1.0  0.13784  0.98255  0.43952  1.0000
  H   H919      1.0  0.25804  0.73680  0.42494  1.0000
  H   H920      1.0  0.11520  0.80939  0.26938  1.0000
  H   H921      1.0  0.41286  0.58001  0.33263  1.0000
  H   H922      1.0  0.41808  0.53021  0.37277  1.0000
  H   H923      1.0  0.15435  0.79218  0.25918  1.0000
  C   C514      1.0  0.19405  0.97385  0.46231  1.0000
  H   H924      1.0  0.21271  0.97418  0.45500  1.0000
  N   N28       1.0  0.45417  0.53481  0.38728  1.0000
  H   H925      1.0  0.18492  0.92300  0.39340  1.0000
  H   H926      1.0  0.45325  0.55837  0.46426  1.0000
  C   C515      1.0  0.01777  0.90372  0.38511  1.0000
  C   C516      1.0  0.11258  0.95967  0.47463  1.0000
  H   H927      1.0  0.25039  0.72718  0.32208  1.0000
  C   C517      1.0  0.05943  0.90434  0.48470  1.0000
  C   C518      1.0  0.31575  0.59229  0.48114  1.0000
  H   H928      1.0  0.29057  0.73879  0.41960  1.0000
  N   N29       1.0  0.26431  0.76202  0.35712  1.0000
  C   C519      1.0  0.28591  0.75303  0.34473  1.0000
  C   C520      1.0  0.24071  0.75241  0.34712  1.0000
  C   C521      1.0  0.26492  0.78782  0.35361  1.0000
  C   C522      1.0  0.26544  0.75703  0.38228  1.0000
  C   C523      1.0  0.26826  0.73164  0.38971  1.0000
  C   C524      1.0  0.31137  0.76250  0.35235  1.0000
  C   C525      1.0  0.24240  0.80039  0.36233  1.0000
  C   C526      1.0  0.24042  0.72745  0.33842  1.0000
  C   C527      1.0  0.21442  0.71816  0.33426  1.0000
  C   C528      1.0  0.27314  0.72959  0.41517  1.0000
  C   C529      1.0  0.33170  0.74987  0.34090  1.0000
  C   C530      1.0  0.21484  0.95607  0.49643  1.0000
  H   H929      1.0  0.28429  0.75688  0.32627  1.0000
  H   H930      1.0  0.28625  0.73404  0.34583  1.0000
  H   H931      1.0  0.22549  0.75379  0.35941  1.0000
  H   H932      1.0  0.23537  0.76289  0.33204  1.0000
  H   H933      1.0  0.00015  0.85595  0.41556  1.0000
  H   H934      1.0  0.04009  0.82190  0.43902  1.0000
  C   C531      1.0  0.04429  0.83996  0.43355  1.0000
  H   H935      1.0  0.02626  0.85411  0.46206  1.0000
  H   H936      1.0  0.30012  0.66312  0.44348  1.0000
  H   H937      1.0  0.19316  0.99036  0.47130  1.0000
  H   H938      1.0  0.26439  0.60322  0.47809  1.0000
  H   H939      1.0  0.10033  0.96954  0.46343  1.0000
  H   H940      1.0  0.46818  0.63057  0.47853  1.0000
  H   H941      1.0  0.23058  0.62957  0.47162  1.0000
  H   H942      1.0  0.17102  0.81522  0.27290  1.0000
  C   C532      1.0  0.37459  0.50691  0.49700  1.0000
  C   C533      1.0  0.15377  0.81050  0.26397  1.0000
  H   H943      1.0  0.26012  0.62188  0.27787  1.0000
  C   C534      1.0  0.20584  0.67398  0.25979  1.0000
  H   H944      1.0  0.31102  0.67330  0.48437  1.0000
  H   H945      1.0  0.49824  0.60733  0.42866  1.0000
  C   C535      1.0  0.04663  0.86040  0.27310  1.0000
  C   C536      1.0  0.33065  0.68703  0.44464  1.0000
  H   H946      1.0  0.18476  0.66454  0.29011  1.0000
  C   C537      1.0  0.47946  0.54110  0.37863  1.0000
  H   H947      1.0  0.20068  0.99262  0.42261  1.0000
  H   H948      1.0  0.17057  0.68460  0.27115  1.0000
  H   H949      1.0  0.23317  0.63885  0.50070  1.0000
  C   C538      1.0  0.23617  0.62448  0.48904  1.0000
  H   H950      1.0  0.22445  0.60947  0.49467  1.0000
  H   H951      1.0  0.36663  0.53539  0.47394  1.0000
  H   H952      1.0  0.34699  0.53270  0.49859  1.0000
  H   H953      1.0  0.43283  0.50641  0.40183  1.0000
  H   H954      1.0  0.04344  0.84485  0.26271  1.0000
  C   C539      1.0  0.99988  0.85057  0.43380  1.0000
  H   H955      1.0  0.48068  0.55939  0.37287  1.0000
  H   H956      1.0  0.47202  0.53945  0.43273  1.0000
  H   H957      1.0  0.33875  0.65893  0.48164  1.0000
  H   H958      1.0  0.39387  0.50667  0.49151  1.0000
  H   H959      1.0  0.23162  0.95288  0.48670  1.0000
  H   H960      1.0  0.37792  0.54378  0.50136  1.0000
  N   N30       1.0  0.25007  0.66158  0.25246  1.0000
  Fe  Fe61      1.0  0.37263  0.61677  0.58670  1.0000
  S   S121      1.0  0.34730  0.60696  0.61540  1.0000
  S   S122      1.0  0.36521  0.60226  0.55191  1.0000
  Fe  Fe62      1.0  0.40960  0.63907  0.61812  1.0000
  S   S123      1.0  0.38771  0.63053  0.64954  1.0000
  S   S124      1.0  0.44578  0.65888  0.61707  1.0000
  Fe  Fe63      1.0  0.38075  0.59601  0.63363  1.0000
  S   S125      1.0  0.37942  0.56271  0.65420  1.0000
  Fe  Fe64      1.0  0.35567  0.64233  0.62921  1.0000
  S   S126      1.0  0.32271  0.66096  0.64299  1.0000
  S   S127      1.0  0.40566  0.60363  0.60422  1.0000
  S   S128      1.0  0.37807  0.65310  0.59842  1.0000
  Fe  Fe65      1.0  0.12664  0.92983  0.62555  1.0000
  S   S129      1.0  0.11913  0.89885  0.64814  1.0000
  S   S130      1.0  0.11627  0.96475  0.63792  1.0000
  Fe  Fe66      1.0  0.14285  0.90091  0.58626  1.0000
  S   S131      1.0  0.13664  0.86736  0.60546  1.0000
  S   S132      1.0  0.15603  0.90804  0.55028  1.0000
  Fe  Fe67      1.0  0.10207  0.88307  0.61729  1.0000
  S   S133      1.0  0.06615  0.86264  0.61798  1.0000
  Fe  Fe68      1.0  0.15425  0.88536  0.63520  1.0000
  S   S134      1.0  0.18320  0.87227  0.65992  1.0000
  S   S135      1.0  0.10698  0.91482  0.59572  1.0000
  S   S136      1.0  0.16318  0.91804  0.61499  1.0000
  Fe  Fe69      1.0  0.27613  0.74280  0.74295  1.0000
  S   S137      1.0  0.26580  0.78013  0.74222  1.0000
  S   S138      1.0  0.30992  0.73069  0.72440  1.0000
  H   H961      1.0  0.45231  0.61187  0.63212  1.0000
  Fe  Fe70      1.0  0.22719  0.76597  0.73983  1.0000
  S   S139      1.0  0.19814  0.77768  0.71445  1.0000
  C   C540      1.0  0.44792  0.63452  0.55786  1.0000
  S   S140      1.0  0.23783  0.72878  0.73860  1.0000
  H   H962      1.0  0.42478  0.56250  0.57880  1.0000
  H   H963      1.0  0.37444  0.68289  0.71369  1.0000
  H   H964      1.0  0.11926  0.87086  0.54634  1.0000
  C   C541      1.0  0.19530  0.80380  0.69858  1.0000
  C   C542      1.0  0.17648  0.80527  0.68240  1.0000
  C   C543      1.0  0.17291  0.82584  0.66999  1.0000
  C   C544      1.0  0.18791  0.84535  0.67381  1.0000
  C   C545      1.0  0.20702  0.84374  0.68965  1.0000
  C   C546      1.0  0.21075  0.82312  0.70192  1.0000
  H   H965      1.0  0.16454  0.79040  0.67952  1.0000
  H   H966      1.0  0.15852  0.82670  0.65754  1.0000
  H   H967      1.0  0.21880  0.85869  0.69272  1.0000
  H   H968      1.0  0.22528  0.82233  0.71428  1.0000
  C   C547      1.0  0.01457  0.90929  0.55812  1.0000
  C   C548      1.0  0.03900  0.87748  0.62118  1.0000
  C   C549      1.0  0.03952  0.90057  0.62725  1.0000
  H   H969      1.0  0.16075  0.91716  0.50282  1.0000
  H   H970      1.0  0.05681  0.90964  0.63011  1.0000
  H   H971      1.0  0.28486  0.82735  0.61100  1.0000
  H   H972      1.0  0.36200  0.55594  0.70163  1.0000
  H   H973      1.0  0.05338  0.84435  0.57447  1.0000
  H   H974      1.0  0.14837  0.97378  0.59921  1.0000
  C   C550      1.0  0.49007  0.62316  0.56108  1.0000
  C   C551      1.0  0.37594  0.61625  0.52701  1.0000
  C   C552      1.0  0.05476  0.89903  0.68954  1.0000
  C   C553      1.0  0.39272  0.51726  0.60461  1.0000
  H   H975      1.0  0.42988  0.63186  0.54966  1.0000
  H   H976      1.0  0.38095  0.64964  0.54167  1.0000
  C   C554      1.0  0.31978  0.67998  0.66606  1.0000
  C   C555      1.0  0.29667  0.68231  0.67586  1.0000
  C   C556      1.0  0.29338  0.69724  0.69409  1.0000
  C   C557      1.0  0.31307  0.71063  0.70229  1.0000
  C   C558      1.0  0.33613  0.70841  0.69239  1.0000
  C   C559      1.0  0.33952  0.69312  0.67449  1.0000
  H   H977      1.0  0.28122  0.67231  0.66944  1.0000
  H   H978      1.0  0.27558  0.69858  0.70165  1.0000
  H   H979      1.0  0.35149  0.71873  0.69854  1.0000
  H   H980      1.0  0.35736  0.69180  0.66699  1.0000
  C   C560      1.0  0.44703  0.62498  0.50960  1.0000
  C   C561      1.0  0.38293  0.53703  0.63913  1.0000
  C   C562      1.0  0.38915  0.53772  0.61617  1.0000
  H   H981      1.0  0.45688  0.59318  0.57686  1.0000
  H   H982      1.0  0.39128  0.55406  0.60732  1.0000
  H   H983      1.0  0.32550  0.71456  0.62817  1.0000
  C   C563      1.0  0.47199  0.64302  0.62190  1.0000
  C   C564      1.0  0.47006  0.62003  0.62908  1.0000
  C   C565      1.0  0.01646  0.86588  0.61763  1.0000
  H   H984      1.0  0.33688  0.62361  0.67703  1.0000
  H   H985      1.0  0.30449  0.62846  0.55537  1.0000
  H   H986      1.0  0.37230  0.58546  0.50746  1.0000
  H   H987      1.0  0.05405  0.78661  0.71350  1.0000
  C   C566      1.0  0.38147  0.63988  0.52628  1.0000
  H   H988      1.0  0.28489  0.63835  0.71534  1.0000
  N   N31       1.0  0.09542  0.84483  0.69295  1.0000
  C   C567      1.0  0.09307  0.83821  0.66838  1.0000
  C   C568      1.0  0.08615  0.86867  0.69649  1.0000
  C   C569      1.0  0.12227  0.84545  0.69878  1.0000
  C   C570      1.0  0.08260  0.82748  0.70851  1.0000
  H   H989      1.0  0.28518  0.65265  0.52521  1.0000
  C   C571      1.0  0.10043  0.81358  0.66252  1.0000
  C   C572      1.0  0.12926  0.85435  0.72269  1.0000
  H   H990      1.0  0.46568  0.66344  0.53838  1.0000
  C   C573      1.0  0.49117  0.60771  0.63298  1.0000
  C   C574      1.0  0.05175  0.94041  0.57814  1.0000
  C   C575      1.0  0.09848  0.80966  0.63704  1.0000
  H   H991      1.0  0.47419  0.51812  0.67296  1.0000
  H   H992      1.0  0.10403  0.85059  0.65755  1.0000
  C   C576      1.0  0.38542  0.66746  0.71181  1.0000
  H   H993      1.0  0.07074  0.87918  0.66387  1.0000
  H   H994      1.0  0.10091  0.88199  0.69307  1.0000
  H   H995      1.0  0.13276  0.85631  0.68608  1.0000
  H   H996      1.0  0.12972  0.82804  0.69793  1.0000
  H   H997      1.0  0.09176  0.81077  0.70809  1.0000
  H   H998      1.0  0.08416  0.83295  0.72640  1.0000
  H   H999      1.0  0.01575  0.91092  0.57685  1.0000
  H   H1000     1.0  0.04493  0.83823  0.70941  1.0000
  H   H1001     1.0  0.11941  0.81037  0.66754  1.0000
  H   H1002     1.0  0.08821  0.80054  0.67112  1.0000
  H   H1003     1.0  0.00142  0.96830  0.69598  1.0000
  H   H1004     1.0  0.12268  0.87183  0.72545  1.0000
  C   C577      1.0  0.06840  0.96166  0.58208  1.0000
  H   H1005     1.0  0.31204  0.71543  0.60039  1.0000
  H   H1006     1.0  0.06863  0.96574  0.60040  1.0000
  C   C578      1.0  0.12369  0.87738  0.52953  1.0000
  H   H1007     1.0  0.33450  0.80114  0.70407  1.0000
  C   C579      1.0  0.06449  0.87634  0.68157  1.0000
  C   C580      1.0  0.29435  0.63665  0.73187  1.0000
  H   H1008     1.0  0.38161  0.63248  0.70160  1.0000
  H   H1009     1.0  0.10382  0.79197  0.63319  1.0000
  H   H1010     1.0  0.11080  0.82202  0.62760  1.0000
  H   H1011     1.0  0.04239  0.94732  0.54324  1.0000
  H   H1012     1.0  0.30314  0.65350  0.73612  1.0000
  H   H1013     1.0  0.07088  0.93427  0.54713  1.0000
  H   H1014     1.0  0.06562  0.93229  0.50751  1.0000
  H   H1015     1.0  0.00635  0.87278  0.56504  1.0000
  H   H1016     1.0  0.01817  0.92963  0.63514  1.0000
  C   C581      1.0  0.15688  0.85558  0.72588  1.0000
  C   C582      1.0  0.05506  0.89157  0.55770  1.0000
  H   H1017     1.0  0.33563  0.65728  0.71563  1.0000
  H   H1018     1.0  0.31282  0.78262  0.71893  1.0000
  H   H1019     1.0  0.06930  0.91285  0.68864  1.0000
  H   H1020     1.0  0.43898  0.54799  0.55576  1.0000
  H   H1021     1.0  0.25547  0.82040  0.62338  1.0000
  H   H1022     1.0  0.34985  0.54111  0.72637  1.0000
  H   H1023     1.0  0.06424  0.86951  0.52943  1.0000
  H   H1024     1.0  0.05030  0.88845  0.57583  1.0000
  H   H1025     1.0  0.44418  0.63168  0.57626  1.0000
  H   H1026     1.0  0.39344  0.66285  0.72849  1.0000
  H   H1027     1.0  0.02413  0.92152  0.51585  1.0000
  H   H1028     1.0  0.37382  0.50382  0.51559  1.0000
  N   N32       1.0  0.27708  0.76011  0.65774  1.0000
  C   C583      1.0  0.29832  0.74838  0.64737  1.0000
  C   C584      1.0  0.28462  0.77065  0.68010  1.0000
  C   C585      1.0  0.25730  0.74184  0.66230  1.0000
  C   C586      1.0  0.26669  0.77790  0.64198  1.0000
  C   C587      1.0  0.28429  0.79771  0.63388  1.0000
  C   C588      1.0  0.29297  0.73477  0.62545  1.0000
  C   C589      1.0  0.23498  0.74919  0.67611  1.0000
  C   C590      1.0  0.31145  0.78005  0.68221  1.0000
  C   C591      1.0  0.31550  0.79389  0.70370  1.0000
  C   C592      1.0  0.27207  0.81297  0.61622  1.0000
  H   H1029     1.0  0.16066  0.99069  0.51081  1.0000
  C   C593      1.0  0.21677  0.72887  0.67961  1.0000
  H   H1030     1.0  0.30584  0.73602  0.65995  1.0000
  H   H1031     1.0  0.31362  0.76077  0.64345  1.0000
  H   H1032     1.0  0.27224  0.78459  0.68455  1.0000
  H   H1033     1.0  0.28246  0.75770  0.69414  1.0000
  H   H1034     1.0  0.26503  0.72699  0.67151  1.0000
  H   H1035     1.0  0.24979  0.73502  0.64614  1.0000
  H   H1036     1.0  0.25837  0.76963  0.62683  1.0000
  H   H1037     1.0  0.25141  0.78641  0.65035  1.0000
  H   H1038     1.0  0.30093  0.79126  0.62603  1.0000
  H   H1039     1.0  0.28936  0.80883  0.64833  1.0000
  H   H1040     1.0  0.28069  0.71955  0.62908  1.0000
  H   H1041     1.0  0.28455  0.74572  0.61229  1.0000
  H   H1042     1.0  0.22519  0.76301  0.66724  1.0000
  H   H1043     1.0  0.24052  0.75542  0.69306  1.0000
  H   H1044     1.0  0.32395  0.76550  0.68308  1.0000
  H   H1045     1.0  0.31713  0.79119  0.66765  1.0000
  H   H1046     1.0  0.30286  0.80828  0.70434  1.0000
  H   H1047     1.0  0.36370  0.65221  0.68552  1.0000
  H   H1048     1.0  0.47088  0.58085  0.55301  1.0000
  C   C594      1.0  0.31277  0.64533  0.54978  1.0000
  C   C595      1.0  0.38617  0.65110  0.50535  1.0000
  H   H1049     1.0  0.16558  0.86770  0.71328  1.0000
  C   C596      1.0  0.32213  0.62179  0.68991  1.0000
  H   H1050     1.0  0.41796  0.59602  0.55257  1.0000
  C   C597      1.0  0.37983  0.51558  0.65030  1.0000
  H   H1051     1.0  0.20975  0.72267  0.66307  1.0000
  H   H1052     1.0  0.22545  0.71457  0.68886  1.0000
  H   H1053     1.0  0.20109  0.73428  0.68978  1.0000
  H   H1054     1.0  0.07411  0.83947  0.66218  1.0000
  H   H1055     1.0  0.44120  0.69412  0.55489  1.0000
  H   H1056     1.0  0.08741  0.95861  0.57688  1.0000
  C   C598      1.0  0.01761  0.91186  0.63011  1.0000
  H   H1057     1.0  0.03528  0.86197  0.54149  1.0000
  H   H1058     1.0  0.37498  0.51488  0.66806  1.0000
  H   H1059     1.0  0.07470  0.89716  0.55795  1.0000
  H   H1060     1.0  0.06787  0.83383  0.54964  1.0000
  C   C599      1.0  0.35005  0.60041  0.71498  1.0000
  H   H1061     1.0  0.07949  0.81178  0.63109  1.0000
  H   H1062     1.0  0.02520  0.80008  0.71546  1.0000
  H   H1063     1.0  0.03951  0.90411  0.67837  1.0000
  H   H1064     1.0  0.30556  0.61590  0.51577  1.0000
  H   H1065     1.0  0.42423  0.67293  0.57168  1.0000
  C   C600      1.0  0.43451  0.67589  0.55564  1.0000
  H   H1066     1.0  0.19727  0.98819  0.66435  1.0000
  H   H1067     1.0  0.07711  0.90553  0.51726  1.0000
  C   C601      1.0  0.47522  0.52979  0.65787  1.0000
  H   H1068     1.0  0.43372  0.58146  0.53048  1.0000
  H   H1069     1.0  0.42212  0.67273  0.54105  1.0000
  H   H1070     1.0  0.40734  0.55511  0.55399  1.0000
  H   H1071     1.0  0.04784  0.89724  0.70717  1.0000
  H   H1072     1.0  0.12161  0.84265  0.73613  1.0000
  C   C602      1.0  0.04511  0.80255  0.71840  1.0000
  C   C603      1.0  0.05404  0.86805  0.54560  1.0000
  H   H1073     1.0  0.29137  0.59645  0.69499  1.0000
  H   H1074     1.0  0.30254  0.60103  0.72981  1.0000
  H   H1075     1.0  0.32917  0.74023  0.61056  1.0000
  H   H1076     1.0  0.31678  0.58627  0.67903  1.0000
  H   H1077     1.0  0.46358  0.54459  0.66096  1.0000
  C   C604      1.0  0.31640  0.72577  0.61559  1.0000
  H   H1078     1.0  0.26697  0.80299  0.60095  1.0000
  H   H1079     1.0  0.33291  0.64467  0.55113  1.0000
  C   C605      1.0  0.30553  0.60127  0.68227  1.0000
  C   C606      1.0  0.43273  0.58427  0.54898  1.0000
  H   H1080     1.0  0.46785  0.52056  0.64288  1.0000
  H   H1081     1.0  0.28069  0.59191  0.65500  1.0000
  H   H1082     1.0  0.08359  0.85518  0.56659  1.0000
  C   C607      1.0  0.06548  0.84929  0.56000  1.0000
  H   H1083     1.0  0.28050  0.62181  0.66243  1.0000
  C   C608      1.0  0.45758  0.59372  0.55795  1.0000
  H   H1084     1.0  0.03322  0.94476  0.58368  1.0000
  N   N33       1.0  0.46585  0.61749  0.54979  1.0000
  H   H1085     1.0  0.40050  0.67175  0.69975  1.0000
  C   C609      1.0  0.14100  0.89546  0.52683  1.0000
  H   H1086     1.0  0.01593  0.84801  0.61292  1.0000
  C   C610      1.0  0.45610  0.66021  0.55472  1.0000
  H   H1087     1.0  0.30661  0.65869  0.56140  1.0000
  H   H1088     1.0  0.08109  0.87082  0.71458  1.0000
  H   H1089     1.0  0.33322  0.63129  0.51057  1.0000
  C   C611      1.0  0.12427  0.98998  0.62215  1.0000
  H   H1090     1.0  0.35923  0.59815  0.69835  1.0000
  H   H1091     1.0  0.05789  0.92617  0.58912  1.0000
  C   C612      1.0  0.03735  0.90888  0.52223  1.0000
  H   H1092     1.0  0.16148  0.86175  0.74310  1.0000
  C   C613      1.0  0.49514  0.65350  0.61827  1.0000
  C   C614      1.0  0.31321  0.61746  0.73137  1.0000
  H   H1093     1.0  0.49728  0.64044  0.55542  1.0000
  H   H1094     1.0  0.21675  0.97312  0.50451  1.0000
  C   C615      1.0  0.46928  0.61832  0.52434  1.0000
  H   H1095     1.0  0.39777  0.51805  0.58691  1.0000
  H   H1096     1.0  0.47545  0.60148  0.51842  1.0000
  H   H1097     1.0  0.32188  0.61656  0.74845  1.0000
  H   H1098     1.0  0.02940  0.89201  0.51706  1.0000
  H   H1099     1.0  0.32261  0.57138  0.71346  1.0000
  C   C616      1.0  0.33929  0.57654  0.72290  1.0000
  C   C617      1.0  0.36975  0.64735  0.70280  1.0000
  H   H1100     1.0  0.30556  0.61115  0.64648  1.0000
  H   H1101     1.0  0.00411  0.92414  0.55182  1.0000
  H   H1102     1.0  0.04819  0.80550  0.73675  1.0000
  C   C618      1.0  0.30526  0.65120  0.52545  1.0000
  H   H1103     1.0  0.31192  0.63774  0.68795  1.0000
  C   C619      1.0  0.29227  0.60695  0.66022  1.0000
  H   H1104     1.0  0.36507  0.60443  0.72720  1.0000
  H   H1105     1.0  0.48771  0.62420  0.57977  1.0000
  C   C620      1.0  0.42565  0.56104  0.56009  1.0000
  C   C621      1.0  0.34715  0.64214  0.71802  1.0000
  C   C622      1.0  0.14072  0.98978  0.60411  1.0000
  N   N34       1.0  0.03969  0.91022  0.54768  1.0000
  C   C623      1.0  0.05154  0.93345  0.55288  1.0000
  H   H1106     1.0  0.05098  0.81940  0.68625  1.0000
  H   H1107     1.0  0.35332  0.64233  0.73604  1.0000
  H   H1108     1.0  0.06177  0.97671  0.57243  1.0000
  N   N35       1.0  0.33276  0.62004  0.71341  1.0000
  C   C624      1.0  0.05502  0.82306  0.70425  1.0000
  H   H1109     1.0  0.04916  0.86346  0.68140  1.0000
  H   H1110     1.0  0.31403  0.66817  0.52108  1.0000
  C   C625      1.0  0.19229  0.99749  0.64853  1.0000
  C   C626      1.0  0.14706  0.90348  0.50491  1.0000
  H   H1111     1.0  0.48426  0.63093  0.51948  1.0000
  H   H1112     1.0  0.16446  0.83833  0.72397  1.0000
  H   H1113     1.0  0.33465  0.57691  0.74120  1.0000
  H   H1114     1.0  0.44289  0.50318  0.54463  1.0000
  C   C627      1.0  0.06141  0.91350  0.50878  1.0000
  C   C628      1.0  0.35767  0.55782  0.71986  1.0000
  H   H1115     1.0  0.46886  0.66524  0.56858  1.0000
  H   H1116     1.0  0.26722  0.61273  0.50707  1.0000
  H   H1117     1.0  0.48951  0.59010  0.63900  1.0000
  H   H1118     1.0  0.18290  0.98505  0.63708  1.0000
  H   H1119     1.0  0.37477  0.56199  0.72927  1.0000
  C   C629      1.0  0.11289  0.86714  0.51036  1.0000
  H   H1120     1.0  0.10011  0.85266  0.51250  1.0000
  C   C630      1.0  0.31318  0.63251  0.50894  1.0000
  H   H1121     1.0  0.49673  0.67129  0.61271  1.0000
  H   H1122     1.0  0.26453  0.61507  0.74596  1.0000
  C   C631      1.0  0.27483  0.63132  0.74983  1.0000
  H   H1123     1.0  0.26182  0.64545  0.75004  1.0000
  H   H1124     1.0  0.43012  0.61528  0.51452  1.0000
  C   C632      1.0  0.37649  0.60375  0.50695  1.0000
  H   H1125     1.0  0.44353  0.64349  0.51129  1.0000
  H   H1126     1.0  0.21279  0.94269  0.51004  1.0000
  H   H1127     1.0  0.38952  0.66953  0.50470  1.0000
  Fe  Fe71      1.0  0.38705  0.88064  0.92770  1.0000
  S   S141      1.0  0.40032  0.91728  0.92397  1.0000
  S   S142      1.0  0.38940  0.86186  0.96151  1.0000
  Fe  Fe72      1.0  0.37702  0.87559  0.87673  1.0000
  S   S143      1.0  0.39075  0.91214  0.86923  1.0000
  S   S144      1.0  0.36664  0.85116  0.84775  1.0000
  Fe  Fe73      1.0  0.42093  0.90535  0.89398  1.0000
  S   S145      1.0  0.45884  0.92203  0.89189  1.0000
  Fe  Fe74      1.0  0.36922  0.92111  0.89978  1.0000
  S   S146      1.0  0.34585  0.95213  0.90198  1.0000
  S   S147      1.0  0.40952  0.86823  0.89892  1.0000
  S   S148      1.0  0.35369  0.88509  0.90613  1.0000
  Fe  Fe75      1.0  0.11688  0.58258  0.88245  1.0000
  S   S149      1.0  0.09438  0.61274  0.87338  1.0000
  S   S150      1.0  0.11630  0.55242  0.85871  1.0000
  Fe  Fe76      1.0  0.13298  0.60315  0.92770  1.0000
  S   S151      1.0  0.11199  0.63505  0.92192  1.0000
  S   S152      1.0  0.15066  0.59052  0.96018  1.0000
  Fe  Fe77      1.0  0.08186  0.61112  0.90952  1.0000
  S   S153      1.0  0.04373  0.60712  0.92402  1.0000
  Fe  Fe78      1.0  0.12664  0.63433  0.88593  1.0000
  S   S154      1.0  0.13669  0.66740  0.86556  1.0000
  S   S155      1.0  0.10206  0.57935  0.91744  1.0000
  S   S156      1.0  0.14998  0.60394  0.89278  1.0000
  H   H1128     1.0  0.03503  0.61882  0.97836  1.0000
  S   S157      1.0  0.22453  0.69603  0.79802  1.0000
  S   S158      1.0  0.26898  0.80243  0.80837  1.0000
  S   S159      1.0  0.27455  0.74026  0.78107  1.0000
  C   C633      1.0  0.16153  0.67553  0.84729  1.0000
  C   C634      1.0  0.15939  0.69434  0.83217  1.0000
  C   C635      1.0  0.17851  0.70109  0.81716  1.0000
  C   C636      1.0  0.20006  0.68909  0.81711  1.0000
  C   C637      1.0  0.20233  0.67054  0.83250  1.0000
  C   C638      1.0  0.18335  0.66402  0.84768  1.0000
  H   H1129     1.0  0.14271  0.70359  0.83188  1.0000
  H   H1130     1.0  0.17639  0.71535  0.80543  1.0000
  H   H1131     1.0  0.21892  0.66121  0.83275  1.0000
  H   H1132     1.0  0.18556  0.65021  0.85982  1.0000
  C   C639      1.0  0.01857  0.62071  0.91202  1.0000
  H   H1133     1.0  0.16845  0.56282  0.84950  1.0000
  H   H1134     1.0  0.03895  0.67433  0.96975  1.0000
  H   H1135     1.0  0.48436  0.96698  0.89862  1.0000
  C   C640      1.0  0.14807  0.62911  0.98670  1.0000
  C   C641      1.0  0.14857  0.60515  0.98609  1.0000
  H   H1136     1.0  0.25141  0.88653  0.79452  1.0000
  H   H1137     1.0  0.45258  0.92885  0.96489  1.0000
  H   H1138     1.0  0.14832  0.63905  0.97104  1.0000
  H   H1139     1.0  0.42138  0.98638  0.88069  1.0000
  H   H1140     1.0  0.05352  0.51946  0.93744  1.0000
  H   H1141     1.0  0.22575  0.59989  0.76769  1.0000
  C   C642      1.0  0.11962  0.52492  0.87113  1.0000
  C   C643      1.0  0.12555  0.52244  0.89403  1.0000
  H   H1142     1.0  0.23258  0.62687  0.85708  1.0000
  H   H1143     1.0  0.08513  0.51657  0.92963  1.0000
  H   H1144     1.0  0.12833  0.53746  0.90435  1.0000
  C   C644      1.0  0.06661  0.51989  0.92311  1.0000
  H   H1145     1.0  0.47881  0.82940  0.95362  1.0000
  H   H1146     1.0  0.46393  0.87284  0.88658  1.0000
  C   C645      1.0  0.35612  0.97841  0.88930  1.0000
  C   C646      1.0  0.21652  0.58066  0.79879  1.0000
  H   H1147     1.0  0.05762  0.67090  0.94503  1.0000
  H   H1148     1.0  0.33196  0.97646  0.80534  1.0000
  H   H1149     1.0  0.09706  0.59869  0.96350  1.0000
  C   C647      1.0  0.37134  0.97898  0.87032  1.0000
  H   H1150     1.0  0.28321  0.62988  0.76692  1.0000
  H   H1151     1.0  0.05555  0.57171  0.88736  1.0000
  S   S160      1.0  0.22170  0.76433  0.77775  1.0000
  H   H1152     1.0  0.37698  0.96311  0.86314  1.0000
  C   C648      1.0  0.33918  0.83778  0.83717  1.0000
  C   C649      1.0  0.31640  0.84090  0.84696  1.0000
  C   C650      1.0  0.29516  0.83032  0.83764  1.0000
  C   C651      1.0  0.29640  0.81595  0.81877  1.0000
  C   C652      1.0  0.31918  0.81267  0.80907  1.0000
  C   C653      1.0  0.34036  0.82364  0.81813  1.0000
  H   H1153     1.0  0.31521  0.85111  0.86192  1.0000
  H   H1154     1.0  0.27769  0.83290  0.84540  1.0000
  H   H1155     1.0  0.32051  0.80172  0.79456  1.0000
  H   H1156     1.0  0.35785  0.82102  0.81040  1.0000
  C   C654      1.0  0.38292  0.87716  0.98613  1.0000
  C   C655      1.0  0.37562  0.89984  0.98476  1.0000
  H   H1157     1.0  0.03134  0.65200  0.94970  1.0000
  H   H1158     1.0  0.37334  0.90811  0.96839  1.0000
  H   H1159     1.0  0.29159  0.88650  0.91125  1.0000
  H   H1160     1.0  0.17255  0.54513  0.80040  1.0000
  H   H1161     1.0  0.48129  0.84018  0.92510  1.0000
  C   C656      1.0  0.08850  0.56738  0.98194  1.0000
  H   H1162     1.0  0.35399  0.93204  0.81518  1.0000
  N   N36       1.0  0.17840  0.58763  0.82315  1.0000
  H   H1163     1.0  0.34186  0.91406  0.84977  1.0000
  C   C657      1.0  0.29250  0.90272  0.90104  1.0000
  H   H1164     1.0  0.30886  0.96580  0.85201  1.0000
  H   H1165     1.0  0.35782  0.88048  0.80604  1.0000
  H   H1166     1.0  0.22909  0.59160  0.80906  1.0000
  H   H1167     1.0  0.44951  0.89833  0.96998  1.0000
  H   H1168     1.0  0.28055  0.92808  0.86277  1.0000
  H   H1169     1.0  0.01133  0.57271  0.89044  1.0000
  C   C658      1.0  0.44125  0.98582  0.88364  1.0000
  H   H1170     1.0  0.27217  0.87453  0.77476  1.0000
  H   H1171     1.0  0.02260  0.59310  0.86934  1.0000
  H   H1172     1.0  0.14190  0.58276  0.80915  1.0000
  H   H1173     1.0  0.16502  0.51926  0.84587  1.0000
  H   H1174     1.0  0.45292  0.97090  0.82771  1.0000
  H   H1175     1.0  0.20253  0.58229  0.86787  1.0000
  H   H1176     1.0  0.31341  0.88781  0.87470  1.0000
  H   H1177     1.0  0.39916  0.98971  0.91016  1.0000
  C   C659      1.0  0.04721  0.63022  0.98879  1.0000
  H   H1178     1.0  0.43880  0.83924  0.93691  1.0000
  H   H1179     1.0  0.07533  0.55991  0.99450  1.0000
  H   H1180     1.0  0.26890  0.86198  0.80270  1.0000
  H   H1181     1.0  0.30710  0.88555  0.79870  1.0000
  H   H1182     1.0  0.28076  0.88603  0.87092  1.0000
  C   C660      1.0  0.32149  0.98092  0.82061  1.0000
  C   C661      1.0  0.29830  0.91958  0.86135  1.0000
  H   H1183     1.0  0.21735  0.56253  0.80468  1.0000
  H   H1184     1.0  0.18991  0.51681  0.82622  1.0000
  H   H1185     1.0  0.33646  0.95448  0.84168  1.0000
  C   C662      1.0  0.30289  0.94021  0.82542  1.0000
  H   H1186     1.0  0.07739  0.65535  0.97944  1.0000
  H   H1187     1.0  0.47306  0.98929  0.86078  1.0000
  H   H1188     1.0  0.05382  0.56649  0.85747  1.0000
  C   C663      1.0  0.45290  0.98840  0.85987  1.0000
  C   C664      1.0  0.28670  0.90010  0.82649  1.0000
  C   C665      1.0  0.45138  0.85276  0.94388  1.0000
  C   C666      1.0  0.16556  0.54448  0.81799  1.0000
  H   H1189     1.0  0.19908  0.61937  0.83007  1.0000
  H   H1190     1.0  0.21439  0.57067  0.76337  1.0000
  Fe  Fe79      1.0  0.23522  0.72842  0.77678  1.0000
  H   H1191     1.0  0.16130  0.63208  0.81848  1.0000
  C   C667      1.0  0.44535  0.91533  0.97687  1.0000
  H   H1192     1.0  0.12082  0.64375  0.80522  1.0000
  C   C668      1.0  0.15231  0.59457  0.82051  1.0000
  C   C669      1.0  0.01931  0.57455  0.87323  1.0000
  H   H1193     1.0  0.23793  0.60655  0.87977  1.0000
  C   C670      1.0  0.47759  0.84504  0.94286  1.0000
  C   C671      1.0  0.48437  0.90501  0.88898  1.0000
  C   C672      1.0  0.36568  0.89797  0.80934  1.0000
  C   C673      1.0  0.45687  0.91857  0.00027  1.0000
  C   C674      1.0  0.39710  0.99344  0.94585  1.0000
  C   C675      1.0  0.00045  0.64707  0.88510  1.0000
  C   C676      1.0  0.22370  0.61388  0.86871  1.0000
  H   H1194     1.0  0.47692  0.91794  0.99838  1.0000
  H   H1195     1.0  0.43848  0.97911  0.92771  1.0000
  H   H1196     1.0  0.03470  0.64169  0.99759  1.0000
  H   H1197     1.0  0.30762  0.93990  0.80722  1.0000
  C   C677      1.0  0.49584  0.86468  0.94995  1.0000
  C   C678      1.0  0.48186  0.88119  0.88676  1.0000
  N   N37       1.0  0.30507  0.91691  0.83672  1.0000
  H   H1198     1.0  0.04218  0.54497  0.87762  1.0000
  H   H1199     1.0  0.14280  0.59312  0.83720  1.0000
  H   H1200     1.0  0.04151  0.58470  0.99746  1.0000
  H   H1201     1.0  0.11616  0.50573  0.95888  1.0000
  H   H1202     1.0  0.06702  0.53738  0.91530  1.0000
  H   H1203     1.0  0.26789  0.90613  0.82896  1.0000
  H   H1204     1.0  0.10748  0.51414  0.98702  1.0000
  H   H1205     1.0  0.06546  0.59310  0.96745  1.0000
  H   H1206     1.0  0.19168  0.60766  0.79420  1.0000
  H   H1207     1.0  0.21047  0.62237  0.87968  1.0000
  H   H1208     1.0  0.04058  0.50647  0.89909  1.0000
  H   H1209     1.0  0.33180  0.99489  0.82950  1.0000
  C   C679      1.0  0.44537  0.96810  0.84502  1.0000
  C   C680      1.0  0.04654  0.66158  0.95824  1.0000
  C   C681      1.0  0.08329  0.59243  0.97616  1.0000
  H   H1210     1.0  0.17742  0.61139  0.85110  1.0000
  H   H1211     1.0  0.22497  0.58582  0.84580  1.0000
  H   H1212     1.0  0.07101  0.63394  0.95892  1.0000
  H   H1213     1.0  0.44597  0.85573  0.96167  1.0000
  H   H1214     1.0  0.14553  0.54623  0.81750  1.0000
  H   H1215     1.0  0.29002  0.91036  0.79033  1.0000
  C   C682      1.0  0.00251  0.56308  0.85517  1.0000
  H   H1216     1.0  0.47628  0.97136  0.92771  1.0000
  C   C683      1.0  0.12293  0.62675  0.81366  1.0000
  H   H1217     1.0  0.30778  0.91377  0.90761  1.0000
  H   H1218     1.0  0.49513  0.87743  0.93562  1.0000
  H   H1219     1.0  0.45253  0.95192  0.85209  1.0000
  H   H1220     1.0  0.31197  0.93106  0.86992  1.0000
  H   H1221     1.0  0.09725  0.62313  0.99198  1.0000
  H   H1222     1.0  0.42526  0.91661  0.97783  1.0000
  H   H1223     1.0  0.44395  0.96813  0.89025  1.0000
  C   C684      1.0  0.19038  0.58941  0.80019  1.0000
  C   C685      1.0  0.04417  0.56367  0.87387  1.0000
  H   H1224     1.0  0.42520  0.96622  0.84374  1.0000
  C   C686      1.0  0.08505  0.60836  0.99705  1.0000
  Fe  Fe80      1.0  0.26135  0.77626  0.78020  1.0000
  C   C687      1.0  0.14894  0.61912  0.81049  1.0000
  H   H1225     1.0  0.10957  0.61417  0.80628  1.0000
  C   C688      1.0  0.34542  0.91457  0.81350  1.0000
  H   H1226     1.0  0.44934  0.86882  0.93374  1.0000
  H   H1227     1.0  0.49158  0.83340  0.98852  1.0000
  H   H1228     1.0  0.08719  0.55711  0.96630  1.0000
  H   H1229     1.0  0.39941  0.97483  0.94923  1.0000
  H   H1230     1.0  0.37652  0.90382  0.79431  1.0000
  H   H1231     1.0  0.10724  0.56611  0.98877  1.0000
  H   H1232     1.0  0.15276  0.61943  0.79201  1.0000
  C   C689      1.0  0.11658  0.50523  0.85785  1.0000
  H   H1233     1.0  0.37726  0.99650  0.94557  1.0000
  C   C690      1.0  0.29646  0.89731  0.87610  1.0000
  H   H1234     1.0  0.37811  0.89712  0.82412  1.0000
  H   H1235     1.0  0.11902  0.62865  0.83194  1.0000
  H   H1236     1.0  0.27519  0.91163  0.90326  1.0000
  N   N38       1.0  0.25339  0.74201  0.86092  1.0000
  C   C691      1.0  0.25670  0.72292  0.84440  1.0000
  C   C692      1.0  0.23433  0.75803  0.85221  1.0000
  C   C693      1.0  0.27742  0.75555  0.86235  1.0000
  C   C694      1.0  0.24709  0.73282  0.88436  1.0000
  C   C695      1.0  0.22378  0.71708  0.88664  1.0000
  C   C696      1.0  0.27709  0.70606  0.85010  1.0000
  C   C697      1.0  0.27706  0.77891  0.87462  1.0000
  C   C698      1.0  0.21223  0.74715  0.83928  1.0000
  C   C699      1.0  0.19259  0.76458  0.83513  1.0000
  C   C700      1.0  0.22204  0.70575  0.91018  1.0000
  C   C701      1.0  0.27791  0.68710  0.83260  1.0000
  C   C702      1.0  0.30296  0.78878  0.87831  1.0000
  H   H1237     1.0  0.26059  0.73043  0.82726  1.0000
  H   H1238     1.0  0.23969  0.71235  0.84228  1.0000
  H   H1239     1.0  0.22737  0.76838  0.86631  1.0000
  H   H1240     1.0  0.24265  0.77071  0.83980  1.0000
  H   H1241     1.0  0.28475  0.75940  0.84498  1.0000
  H   H1242     1.0  0.29130  0.74526  0.87122  1.0000
  H   H1243     1.0  0.26263  0.72352  0.89171  1.0000
  H   H1244     1.0  0.24440  0.74717  0.89610  1.0000
  H   H1245     1.0  0.22317  0.70307  0.87420  1.0000
  H   H1246     1.0  0.20742  0.72747  0.88455  1.0000
  H   H1247     1.0  0.29526  0.71507  0.84992  1.0000
  H   H1248     1.0  0.27402  0.69768  0.86692  1.0000
  H   H1249     1.0  0.26821  0.77725  0.89143  1.0000
  H   H1250     1.0  0.26712  0.79163  0.86430  1.0000
  H   H1251     1.0  0.21825  0.74126  0.82250  1.0000
  H   H1252     1.0  0.20372  0.73213  0.84826  1.0000
  H   H1253     1.0  0.20021  0.77984  0.82559  1.0000
  H   H1254     1.0  0.17756  0.75660  0.82499  1.0000
  H   H1255     1.0  0.18497  0.77013  0.85147  1.0000
  H   H1256     1.0  0.20485  0.69507  0.91148  1.0000
  H   H1257     1.0  0.23756  0.69442  0.91316  1.0000
  H   H1258     1.0  0.22191  0.71896  0.92351  1.0000
  H   H1259     1.0  0.26066  0.67652  0.83284  1.0000
  H   H1260     1.0  0.28075  0.69461  0.81531  1.0000
  H   H1261     1.0  0.29317  0.67575  0.83657  1.0000
  H   H1262     1.0  0.31299  0.79034  0.86198  1.0000
  H   H1263     1.0  0.30229  0.80613  0.88570  1.0000
  H   H1264     1.0  0.31311  0.77762  0.89015  1.0000
  H   H1265     1.0  0.28353  0.94528  0.82553  1.0000
  C   C703      1.0  0.26928  0.87847  0.79288  1.0000
  C   C704      1.0  0.22587  0.58195  0.77441  1.0000
  C   C705      1.0  0.21091  0.59469  0.85532  1.0000
  C   C706      1.0  0.33049  0.90797  0.83528  1.0000
  C   C707      1.0  0.17791  0.56340  0.83277  1.0000
  C   C708      1.0  0.02113  0.63658  0.89404  1.0000
  H   H1266     1.0  0.01238  0.56516  0.83878  1.0000
  C   C709      1.0  0.28994  0.89462  0.80115  1.0000
  H   H1267     1.0  0.30352  0.98735  0.81541  1.0000
  C   C710      1.0  0.12302  0.50989  0.97607  1.0000
  H   H1268     1.0  0.03900  0.64091  0.88716  1.0000
  H   H1269     1.0  0.17885  0.58049  0.78727  1.0000
  H   H1270     1.0  0.24487  0.57612  0.77388  1.0000
  C   C711      1.0  0.06250  0.64508  0.97142  1.0000
  H   H1271     1.0  0.28737  0.88307  0.83521  1.0000
  H   H1272     1.0  0.13557  0.52530  0.97463  1.0000
  H   H1273     1.0  0.19657  0.55776  0.83639  1.0000
  C   C712      1.0  0.31819  0.96006  0.83652  1.0000
  H   H1274     1.0  0.00149  0.54425  0.85877  1.0000
  H   H1275     1.0  0.32980  0.88892  0.83735  1.0000
  C   C713      1.0  0.19093  0.60418  0.83944  1.0000
  H   H1276     1.0  0.33418  0.91478  0.79799  1.0000
  H   H1277     1.0  0.48818  0.87338  0.96483  1.0000
  C   C714      1.0  0.17032  0.52055  0.82773  1.0000
  C   C715      1.0  0.05893  0.50224  0.90536  1.0000
  H   H1278     1.0  0.07206  0.50436  0.89112  1.0000
  C   C716      1.0  0.43617  0.99743  0.92284  1.0000
  C   C717      1.0  0.48609  0.97906  0.91289  1.0000
  H   H1279     1.0  0.11219  0.50704  0.84005  1.0000
  H   H1280     1.0  0.00247  0.65945  0.87128  1.0000
  C   C718      1.0  0.34888  0.99917  0.89839  1.0000
  H   H1281     1.0  0.33703  0.99886  0.91303  1.0000
  C   C719      1.0  0.37900  0.00017  0.86038  1.0000
  H   H1282     1.0  0.15946  0.50738  0.81829  1.0000
  C   C720      1.0  0.12808  0.50046  0.90366  1.0000
  Fe  Fe81      1.0  0.57797  0.12297  0.08998  1.0000
  S   S161      1.0  0.61106  0.14139  0.07516  1.0000
  S   S162      1.0  0.54054  0.13395  0.07915  1.0000
  Fe  Fe82      1.0  0.60802  0.08658  0.11225  1.0000
  S   S163      1.0  0.64370  0.10211  0.09963  1.0000
  S   S164      1.0  0.60245  0.05278  0.13131  1.0000
  Fe  Fe83      1.0  0.62890  0.13618  0.10929  1.0000
  S   S165      1.0  0.65193  0.16839  0.11906  1.0000
  Fe  Fe84      1.0  0.62367  0.10657  0.06669  1.0000
  S   S166      1.0  0.64104  0.09665  0.03373  1.0000
  S   S167      1.0  0.59435  0.12023  0.12480  1.0000
  S   S168      1.0  0.58930  0.08852  0.07867  1.0000
  Fe  Fe85      1.0  0.86732  0.40134  0.06869  1.0000
  S   S169      1.0  0.88541  0.36929  0.07985  1.0000
  S   S170      1.0  0.84603  0.40232  0.03584  1.0000
  Fe  Fe86      1.0  0.88496  0.42779  0.10966  1.0000
  S   S171      1.0  0.90492  0.39765  0.12377  1.0000
  S   S172      1.0  0.88729  0.45985  0.13091  1.0000
  Fe  Fe87      1.0  0.91727  0.39301  0.08812  1.0000
  S   S173      1.0  0.95425  0.38286  0.07596  1.0000
  Fe  Fe88      1.0  0.87125  0.37632  0.11475  1.0000
  S   S174      1.0  0.86058  0.34589  0.13851  1.0000
  S   S175      1.0  0.90007  0.42476  0.07453  1.0000
  S   S176      1.0  0.85041  0.40685  0.10296  1.0000
  Fe  Fe89      1.0  0.75799  0.27718  0.21642  1.0000
  S   S177      1.0  0.71829  0.26537  0.22027  1.0000
  S   S178      1.0  0.76535  0.30751  0.19152  1.0000
  Fe  Fe90      1.0  0.73209  0.22955  0.22083  1.0000
  S   S179      1.0  0.71251  0.19673  0.20791  1.0000
  S   S180      1.0  0.77136  0.24106  0.21475  1.0000
  C   C721      1.0  0.88039  0.48694  0.11901  1.0000
  H   H1283     1.0  0.52434  0.04678  0.16441  1.0000
  H   H1284     1.0  0.87806  0.38444  0.16377  1.0000
  C   C722      1.0  0.90542  0.43425  0.19728  1.0000
  C   C723      1.0  0.92675  0.33492  0.00855  1.0000
  H   H1285     1.0  0.86396  0.47348  0.08866  1.0000
  H   H1286     1.0  0.83968  0.28003  0.06342  1.0000
  C   C724      1.0  0.98054  0.39062  0.09176  1.0000
  H   H1287     1.0  0.60274  0.24990  0.18406  1.0000
  C   C725      1.0  0.61686  0.23733  0.21720  1.0000
  H   H1288     1.0  0.96181  0.40662  0.11891  1.0000
  C   C726      1.0  0.83418  0.33649  0.15412  1.0000
  C   C727      1.0  0.81203  0.34739  0.15226  1.0000
  C   C728      1.0  0.79133  0.33847  0.16412  1.0000
  C   C729      1.0  0.79244  0.31856  0.17795  1.0000
  C   C730      1.0  0.81469  0.30784  0.18001  1.0000
  C   C731      1.0  0.83540  0.31677  0.16816  1.0000
  H   H1289     1.0  0.81066  0.36236  0.14132  1.0000
  H   H1290     1.0  0.77420  0.34686  0.16232  1.0000
  H   H1291     1.0  0.81588  0.29252  0.19053  1.0000
  H   H1292     1.0  0.85241  0.30814  0.16971  1.0000
  C   C732      1.0  0.72471  0.21916  0.00792  1.0000
  H   H1293     1.0  0.88821  0.42279  0.16608  1.0000
  C   C733      1.0  0.65818  0.24159  0.19991  1.0000
  H   H1294     1.0  0.89666  0.39241  0.02843  1.0000
  H   H1295     1.0  0.72964  0.19003  0.02966  1.0000
  C   C734      1.0  0.61166  0.02806  0.11727  1.0000
  C   C735      1.0  0.62464  0.02987  0.09690  1.0000
  H   H1296     1.0  0.85902  0.47825  0.04240  1.0000
  H   H1297     1.0  0.62924  0.04663  0.08955  1.0000
  H   H1298     1.0  0.76084  0.29061  0.14116  1.0000
  H   H1299     1.0  0.83431  0.41959  0.19617  1.0000
  H   H1300     1.0  0.79531  0.30563  0.04582  1.0000
  H   H1301     1.0  0.60420  0.12951  0.02460  1.0000
  C   C736      1.0  0.66958  0.17540  0.14357  1.0000
  C   C737      1.0  0.67099  0.16051  0.16236  1.0000
  C   C738      1.0  0.68459  0.16721  0.18165  1.0000
  C   C739      1.0  0.69699  0.18882  0.18248  1.0000
  C   C740      1.0  0.69587  0.20359  0.16356  1.0000
  C   C741      1.0  0.68218  0.19694  0.14431  1.0000
  H   H1302     1.0  0.66148  0.14390  0.16210  1.0000
  H   H1303     1.0  0.68534  0.15560  0.19613  1.0000
  H   H1304     1.0  0.70547  0.22014  0.16382  1.0000
  H   H1305     1.0  0.68128  0.20859  0.12989  1.0000
  C   C742      1.0  0.61092  0.12372  0.00859  1.0000
  C   C743      1.0  0.51511  0.12843  0.09701  1.0000
  H   H1306     1.0  0.54567  0.06905  0.12076  1.0000
  H   H1307     1.0  0.69391  0.17409  0.06375  1.0000
  H   H1308     1.0  0.94353  0.36593  0.02128  1.0000
  C   C744      1.0  0.86920  0.46757  0.03057  1.0000
  C   C745      1.0  0.69022  0.19310  0.02334  1.0000
  H   H1309     1.0  0.76812  0.26709  0.12337  1.0000
  C   C746      1.0  0.97929  0.40209  0.11231  1.0000
  H   H1310     1.0  0.64447  0.20619  0.02885  1.0000
  C   C747      1.0  0.51322  0.07565  0.05825  1.0000
  N   N39       1.0  0.51993  0.04046  0.11494  1.0000
  H   H1311     1.0  0.59723  0.03225  0.01916  1.0000
  H   H1312     1.0  0.79875  0.39781  0.16403  1.0000
  H   H1313     1.0  0.64837  0.20171  0.18211  1.0000
  H   H1314     1.0  0.61845  0.16981  0.16467  1.0000
  H   H1315     1.0  0.88787  0.46559  0.03741  1.0000
  H   H1316     1.0  0.80438  0.42861  0.16560  1.0000
  H   H1317     1.0  0.59151  0.18632  0.16771  1.0000
  H   H1318     1.0  0.81548  0.09714  0.22512  1.0000
  H   H1319     1.0  0.88412  0.29959  0.13038  1.0000
  H   H1320     1.0  0.55634  0.17735  0.04152  1.0000
  H   H1321     1.0  0.55187  0.14389  0.01804  1.0000
  H   H1322     1.0  0.82720  0.30593  0.01583  1.0000
  H   H1323     1.0  0.50840  0.01938  0.14394  1.0000
  H   H1324     1.0  0.68838  0.20480  0.03793  1.0000
  H   H1325     1.0  0.60228  0.01355  0.04325  1.0000
  H   H1326     1.0  0.83210  0.38934  0.19181  1.0000
  H   H1327     1.0  0.78463  0.29658  0.08251  1.0000
  C   C748      1.0  0.86860  0.48879  0.09809  1.0000
  H   H1328     1.0  0.63493  0.19940  0.23567  1.0000
  C   C749      1.0  0.65272  0.25563  0.17812  1.0000
  H   H1329     1.0  0.56983  0.25091  0.22612  1.0000
  H   H1330     1.0  0.84187  0.39378  0.15160  1.0000
  H   H1331     1.0  0.88978  0.40238  0.22455  1.0000
  H   H1332     1.0  0.54393  0.01297  0.12340  1.0000
  H   H1333     1.0  0.57614  0.00394  0.08349  1.0000
  C   C750      1.0  0.63222  0.00997  0.08626  1.0000
  C   C751      1.0  0.53003  0.05982  0.12941  1.0000
  H   H1334     1.0  0.62239  0.21695  0.17554  1.0000
  N   N40       1.0  0.86914  0.40383  0.19314  1.0000
  C   C752      1.0  0.87061  0.40264  0.21868  1.0000
  C   C753      1.0  0.88265  0.42525  0.18399  1.0000
  C   C754      1.0  0.87855  0.38260  0.18248  1.0000
  C   C755      1.0  0.90498  0.37652  0.18838  1.0000
  H   H1335     1.0  0.98609  0.42987  0.02393  1.0000
  H   H1336     1.0  0.99280  0.34478  0.04275  1.0000
  H   H1337     1.0  0.93061  0.31647  0.00688  1.0000
  C   C756      1.0  0.91128  0.35354  0.17825  1.0000
  H   H1338     1.0  0.87869  0.49645  0.00907  1.0000
  H   H1339     1.0  0.86329  0.41853  0.22585  1.0000
  H   H1340     1.0  0.80241  0.28566  0.01021  1.0000
  H   H1341     1.0  0.86626  0.36736  0.18628  1.0000
  H   H1342     1.0  0.90784  0.37507  0.20692  1.0000
  H   H1343     1.0  0.91795  0.38967  0.18101  1.0000
  H   H1344     1.0  0.89967  0.44170  0.21352  1.0000
  C   C757      1.0  0.80288  0.10277  0.23843  1.0000
  C   C758      1.0  0.61113  0.18643  0.03179  1.0000
  H   H1345     1.0  0.83092  0.27549  0.02082  1.0000
  C   C759      1.0  0.54051  0.02513  0.10907  1.0000
  H   H1346     1.0  0.87042  0.44009  0.18330  1.0000
  H   H1347     1.0  0.89862  0.33952  0.18459  1.0000
  H   H1348     1.0  0.91020  0.35447  0.15946  1.0000
  C   C760      1.0  0.71725  0.19468  0.01561  1.0000
  C   C761      1.0  0.68277  0.15249  0.01096  1.0000
  H   H1349     1.0  0.62786  0.02705  0.02818  1.0000
  H   H1350     1.0  0.53305  0.19201  0.02604  1.0000
  N   N41       1.0  0.67994  0.16942  0.02973  1.0000
  C   C762      1.0  0.88752  0.39282  0.01218  1.0000
  C   C763      1.0  0.65346  0.17049  0.03675  1.0000
  C   C764      1.0  0.69420  0.16116  0.05003  1.0000
  C   C765      1.0  0.57779  0.25835  0.21019  1.0000
  C   C766      1.0  0.80995  0.41270  0.15729  1.0000
  C   C767      1.0  0.54348  0.15969  0.01142  1.0000
  C   C768      1.0  0.68568  0.13760  0.06058  1.0000
  C   C769      1.0  0.97032  0.42131  0.01525  1.0000
  H   H1351     1.0  0.97935  0.38123  0.03426  1.0000
  H   H1352     1.0  0.52910  0.08413  0.09014  1.0000
  H   H1353     1.0  0.80096  0.27330  0.09341  1.0000
  C   C770      1.0  0.70010  0.13242  0.08215  1.0000
  H   H1354     1.0  0.79866  0.27553  0.05074  1.0000
  H   H1355     1.0  0.64269  0.01156  0.07078  1.0000
  H   H1356     1.0  0.64401  0.15334  0.03494  1.0000
  H   H1357     1.0  0.65210  0.17449  0.05512  1.0000
  C   C771      1.0  0.66083  0.22539  0.24721  1.0000
  H   H1358     1.0  0.71366  0.15928  0.04561  1.0000
  H   H1359     1.0  0.85973  0.45043  0.02981  1.0000
  H   H1360     1.0  0.86336  0.36529  0.22379  1.0000
  H   H1361     1.0  0.75227  0.29136  0.11170  1.0000
  H   H1362     1.0  0.96219  0.43382  0.00333  1.0000
  H   H1363     1.0  0.62313  0.25400  0.22463  1.0000
  H   H1364     1.0  0.62713  0.17425  0.20608  1.0000
  H   H1365     1.0  0.68871  0.12352  0.04863  1.0000
  H   H1366     1.0  0.66610  0.13721  0.06511  1.0000
  C   C772      1.0  0.86992  0.30265  0.09595  1.0000
  H   H1367     1.0  0.83709  0.38236  0.22785  1.0000
  C   C773      1.0  0.88781  0.29304  0.11320  1.0000
  H   H1368     1.0  0.53834  0.08743  0.16715  1.0000
  C   C774      1.0  0.85707  0.38174  0.23038  1.0000
  H   H1369     1.0  0.55845  0.06844  0.18189  1.0000
  H   H1370     1.0  0.78845  0.37520  0.06904  1.0000
  H   H1371     1.0  0.52031  0.00099  0.08631  1.0000
  H   H1372     1.0  0.67076  0.28029  0.15505  1.0000
  H   H1373     1.0  0.91818  0.42054  0.20126  1.0000
  H   H1374     1.0  0.78482  0.33396  0.07785  1.0000
  H   H1375     1.0  0.69504  0.11484  0.08855  1.0000
  H   H1376     1.0  0.71999  0.13324  0.07873  1.0000
  H   H1377     1.0  0.69592  0.14482  0.09555  1.0000
  H   H1378     1.0  0.64781  0.24437  0.16375  1.0000
  H   H1379     1.0  0.58684  0.27531  0.21374  1.0000
  H   H1380     1.0  0.67523  0.23235  0.19691  1.0000
  H   H1381     1.0  0.84304  0.30935  0.05480  1.0000
  C   C775      1.0  0.80322  0.34145  0.07395  1.0000
  H   H1382     1.0  0.59373  0.15908  0.18238  1.0000
  H   H1383     1.0  0.87488  0.29618  0.07909  1.0000
  C   C776      1.0  0.60585  0.00619  0.12663  1.0000
  C   C777      1.0  0.55162  0.07375  0.16495  1.0000
  H   H1384     1.0  0.93525  0.45973  0.19396  1.0000
  C   C778      1.0  0.83705  0.40909  0.16123  1.0000
  H   H1385     1.0  0.58577  0.22593  0.19607  1.0000
  H   H1386     1.0  0.56732  0.08086  0.15489  1.0000
  H   H1387     1.0  0.84199  0.27652  0.10421  1.0000
  H   H1388     1.0  0.60294  0.16943  0.02732  1.0000
  H   H1389     1.0  0.50127  0.03814  0.08250  1.0000
  H   H1390     1.0  0.79953  0.36974  0.09735  1.0000
  N   N42       1.0  0.99429  0.35950  0.00891  1.0000
  C   C779      1.0  0.53917  0.17490  0.03174  1.0000
  C   C780      1.0  0.63165  0.20826  0.18981  1.0000
  C   C781      1.0  0.52521  0.06832  0.08046  1.0000
  H   H1391     1.0  0.66284  0.25456  0.21299  1.0000
  C   C782      1.0  0.67500  0.27052  0.17079  1.0000
  H   H1392     1.0  0.52548  0.08837  0.04920  1.0000
  H   H1393     1.0  0.51596  0.07280  0.13187  1.0000
  H   H1394     1.0  0.90755  0.46770  0.17993  1.0000
  H   H1395     1.0  0.67409  0.13553  0.01579  1.0000
  C   C783      1.0  0.59598  0.24215  0.20019  1.0000
  H   H1396     1.0  0.84727  0.42430  0.15397  1.0000
  H   H1397     1.0  0.88645  0.27397  0.11370  1.0000
  H   H1398     1.0  0.60064  0.19985  0.02300  1.0000
  C   C784      1.0  0.53775  0.01102  0.08703  1.0000
  C   C785      1.0  0.64912  0.21112  0.22776  1.0000
  H   H1399     1.0  0.93016  0.34933  0.18305  1.0000
  H   H1400     1.0  0.66327  0.19970  0.22138  1.0000
  H   H1401     1.0  0.74417  0.21992  0.00275  1.0000
  H   H1402     1.0  0.60091  0.19151  0.20881  1.0000
  C   C786      1.0  0.86283  0.39763  0.01098  1.0000
  C   C787      1.0  0.94904  0.34823  0.01784  1.0000
  H   H1403     1.0  0.70232  0.14889  0.00850  1.0000
  H   H1404     1.0  0.60798  0.22757  0.23157  1.0000
  C   C788      1.0  0.51786  0.12178  0.11974  1.0000
  H   H1405     1.0  0.55306  0.03942  0.15215  1.0000
  H   H1406     1.0  0.95394  0.34005  0.03423  1.0000
  H   H1407     1.0  0.91117  0.33641  0.02032  1.0000
  C   C789      1.0  0.63781  0.18857  0.02447  1.0000
  C   C790      1.0  0.84256  0.40538  0.18682  1.0000
  C   C791      1.0  0.80299  0.36704  0.07907  1.0000
  H   H1408     1.0  0.67965  0.20096  0.00942  1.0000
  H   H1409     1.0  0.90672  0.29863  0.10842  1.0000
  C   C792      1.0  0.60417  0.17486  0.17669  1.0000
  H   H1410     1.0  0.80637  0.41449  0.13882  1.0000
  H   H1411     1.0  0.63791  0.26751  0.18127  1.0000
  H   H1412     1.0  0.78846  0.31695  0.11957  1.0000
  C   C793      1.0  0.87007  0.47902  0.00707  1.0000
  H   H1413     1.0  0.50749  0.14332  0.01105  1.0000
  H   H1414     1.0  0.79029  0.08817  0.24347  1.0000
  H   H1415     1.0  0.87282  0.32156  0.09566  1.0000
  C   C794      1.0  0.80861  0.29190  0.04596  1.0000
  H   H1416     1.0  0.60950  0.18877  0.05036  1.0000
  H   H1417     1.0  0.84079  0.33758  0.08161  1.0000
  H   H1418     1.0  0.69073  0.25970  0.16737  1.0000
  C   C795      1.0  0.50839  0.05131  0.09434  1.0000
  C   C796      1.0  0.61566  0.18686  0.19715  1.0000
  C   C797      1.0  0.76655  0.28602  0.12382  1.0000
  H   H1419     1.0  0.82199  0.33498  0.10563  1.0000
  N   N43       1.0  0.63841  0.22480  0.20840  1.0000
  H   H1420     1.0  0.68020  0.28300  0.18415  1.0000
  H   H1421     1.0  0.80408  0.29282  0.13140  1.0000
  H   H1422     1.0  0.84051  0.30226  0.11972  1.0000
  N   N44       1.0  0.82360  0.30377  0.08648  1.0000
  C   C798      1.0  0.79974  0.29232  0.09411  1.0000
  C   C799      1.0  0.82996  0.29648  0.06278  1.0000
  C   C800      1.0  0.84319  0.29562  0.10243  1.0000
  C   C801      1.0  0.82327  0.32959  0.08774  1.0000
  C   C802      1.0  0.99035  0.38288  0.01850  1.0000
  C   C803      1.0  0.79100  0.29825  0.11823  1.0000
  H   H1423     1.0  0.82068  0.37560  0.07422  1.0000
  H   H1424     1.0  0.53591  0.12012  0.12679  1.0000
  H   H1425     1.0  0.55795  0.03545  0.10708  1.0000
  H   H1426     1.0  0.56277  0.26104  0.19792  1.0000
  C   C804      1.0  0.91946  0.45317  0.18388  1.0000
  H   H1427     1.0  0.80696  0.34019  0.05556  1.0000
  H   H1428     1.0  0.52520  0.16675  0.04322  1.0000
  H   H1429     1.0  0.59581  0.00466  0.14236  1.0000
  H   H1430     1.0  0.79187  0.11672  0.23119  1.0000
  C   C805      1.0  0.81795  0.28960  0.02176  1.0000
  H   H1431     1.0  0.53859  0.02250  0.07185  1.0000
  C   C806      1.0  0.62823  0.10686  0.00831  1.0000
  H   H1432     1.0  0.95632  0.41600  0.02812  1.0000
  H   H1433     1.0  0.92638  0.44637  0.16775  1.0000
  C   C807      1.0  0.53955  0.05302  0.15327  1.0000
  H   H1434     1.0  0.54285  0.06074  0.07657  1.0000
  H   H1435     1.0  0.72242  0.23136  0.02193  1.0000
  C   C808      1.0  0.97837  0.40045  0.00230  1.0000
  H   H1436     1.0  0.50985  0.06063  0.04721  1.0000
  H   H1437     1.0  0.63845  0.18696  0.00584  1.0000
  C   C809      1.0  0.60928  0.01904  0.02626  1.0000
  H   H1438     1.0  0.67817  0.23404  0.24146  1.0000
  C   C810      1.0  0.50040  0.02756  0.12863  1.0000
  Fe  Fe91      1.0  0.60490  0.41273  0.37357  1.0000
  S   S181      1.0  0.58801  0.39825  0.40542  1.0000
  S   S182      1.0  0.59378  0.44713  0.35930  1.0000
  Fe  Fe92      1.0  0.63427  0.36963  0.36502  1.0000
  S   S183      1.0  0.61966  0.35168  0.39691  1.0000
  S   S184      1.0  0.66495  0.36166  0.33998  1.0000
  Fe  Fe93      1.0  0.58332  0.36559  0.38636  1.0000
  S   S185      1.0  0.54675  0.34692  0.39109  1.0000
  Fe  Fe94      1.0  0.62500  0.38575  0.41405  1.0000
  S   S186      1.0  0.64211  0.39413  0.44822  1.0000
  S   S187      1.0  0.59729  0.38081  0.35348  1.0000
  S   S188      1.0  0.64239  0.40283  0.38331  1.0000
  Fe  Fe95      1.0  0.87791  0.11518  0.40763  1.0000
  S   S189      1.0  0.88157  0.15104  0.39295  1.0000
  S   S190      1.0  0.86930  0.10040  0.44268  1.0000
  Fe  Fe96      1.0  0.89212  0.09307  0.36327  1.0000
  S   S191      1.0  0.89777  0.12708  0.34481  1.0000
  S   S192      1.0  0.90109  0.05902  0.34805  1.0000
  Fe  Fe97      1.0  0.91609  0.13884  0.37700  1.0000
  S   S193      1.0  0.95180  0.15928  0.38103  1.0000
  Fe  Fe98      1.0  0.86286  0.13689  0.36169  1.0000
  S   S194      1.0  0.82882  0.14956  0.34329  1.0000
  S   S195      1.0  0.91343  0.10411  0.39376  1.0000
  S   S196      1.0  0.85631  0.10169  0.37796  1.0000
  H   H1439     1.0  0.74091  0.43518  0.27608  1.0000
  C   C811      1.0  0.51135  0.40075  0.46361  1.0000
  S   S197      1.0  0.80827  0.23192  0.27297  1.0000
  H   H1440     1.0  0.51238  0.41508  0.42849  1.0000
  S   S198      1.0  0.69558  0.27351  0.28422  1.0000
  H   H1441     1.0  0.80282  0.10057  0.34947  1.0000
  C   C812      1.0  0.97925  0.14795  0.37159  1.0000
  H   H1442     1.0  0.87959  0.08973  0.30854  1.0000
  C   C813      1.0  0.98037  0.13670  0.35093  1.0000
  H   H1443     1.0  0.67207  0.48056  0.44934  1.0000
  H   H1444     1.0  0.96408  0.13450  0.34074  1.0000
  C   C814      1.0  0.82379  0.17251  0.32359  1.0000
  C   C815      1.0  0.80182  0.17238  0.31122  1.0000
  C   C816      1.0  0.79692  0.19011  0.29542  1.0000
  C   C817      1.0  0.81368  0.20860  0.29216  1.0000
  C   C818      1.0  0.83564  0.20873  0.30454  1.0000
  C   C819      1.0  0.84072  0.19080  0.32009  1.0000
  H   H1445     1.0  0.78851  0.15839  0.31376  1.0000
  H   H1446     1.0  0.78024  0.18940  0.28565  1.0000
  H   H1447     1.0  0.84884  0.22284  0.30210  1.0000
  H   H1448     1.0  0.85765  0.19127  0.32949  1.0000
  H   H1449     1.0  0.67293  0.42945  0.28228  1.0000
  C   C820      1.0  0.85921  0.03379  0.35992  1.0000
  C   C821      1.0  0.88410  0.03354  0.35511  1.0000
  H   H1450     1.0  0.51439  0.35311  0.46650  1.0000
  C   C822      1.0  0.62813  0.47374  0.38230  1.0000
  H   H1451     1.0  0.85004  0.04985  0.35918  1.0000
  H   H1452     1.0  0.80720  0.01212  0.44313  1.0000
  H   H1453     1.0  0.71742  0.44955  0.30797  1.0000
  H   H1454     1.0  0.88328  0.01998  0.44138  1.0000
  C   C823      1.0  0.87101  0.11581  0.46821  1.0000
  C   C824      1.0  0.86861  0.13961  0.46863  1.0000
  H   H1455     1.0  0.69901  0.46405  0.34711  1.0000
  C   C825      1.0  0.69498  0.44538  0.34941  1.0000
  H   H1456     1.0  0.86671  0.14922  0.45291  1.0000
  C   C826      1.0  0.52126  0.36334  0.38454  1.0000
  C   C827      1.0  0.52378  0.38331  0.37114  1.0000
  H   H1457     1.0  0.82406  0.07294  0.43302  1.0000
  H   H1458     1.0  0.54159  0.38910  0.36504  1.0000
  H   H1459     1.0  0.89566  0.05149  0.26964  1.0000
  C   C828      1.0  0.62911  0.38536  0.47456  1.0000
  C   C829      1.0  0.61311  0.36614  0.47663  1.0000
  C   C830      1.0  0.90317  0.03644  0.41414  1.0000
  H   H1460     1.0  0.98482  0.06223  0.40547  1.0000
  C   C831      1.0  0.63964  0.43854  0.30885  1.0000
  H   H1461     1.0  0.60842  0.35624  0.46180  1.0000
  C   C832      1.0  0.63272  0.41243  0.30876  1.0000
  H   H1462     1.0  0.55049  0.41664  0.43777  1.0000
  C   C833      1.0  0.67286  0.33691  0.32451  1.0000
  C   C834      1.0  0.69343  0.33842  0.31021  1.0000
  C   C835      1.0  0.70059  0.31936  0.29767  1.0000
  C   C836      1.0  0.68727  0.29841  0.29926  1.0000
  C   C837      1.0  0.66681  0.29684  0.31366  1.0000
  C   C838      1.0  0.65958  0.31592  0.32613  1.0000
  H   H1463     1.0  0.70391  0.35449  0.30880  1.0000
  H   H1464     1.0  0.71640  0.32092  0.28676  1.0000
  H   H1465     1.0  0.65637  0.28075  0.31515  1.0000
  H   H1466     1.0  0.64378  0.31437  0.33704  1.0000
  H   H1467     1.0  0.81968  0.29696  0.30993  1.0000
  C   C839      1.0  0.60698  0.47324  0.36909  1.0000
  H   H1468     1.0  0.98265  0.05695  0.32627  1.0000
  H   H1469     1.0  0.63602  0.45782  0.38766  1.0000
  H   H1470     1.0  0.62695  0.44609  0.32104  1.0000
  N   N45       1.0  0.66582  0.44496  0.31469  1.0000
  C   C840      1.0  0.66931  0.47060  0.31086  1.0000
  C   C841      1.0  0.68204  0.43207  0.29900  1.0000
  C   C842      1.0  0.67006  0.43792  0.33906  1.0000
  Fe  Fe99      1.0  0.77452  0.24283  0.25292  1.0000
  S   S199      1.0  0.73638  0.22923  0.25885  1.0000
  H   H1471     1.0  0.98627  0.02314  0.35490  1.0000
  C   C843      1.0  0.65392  0.48590  0.32609  1.0000
  H   H1472     1.0  0.65041  0.20121  0.27452  1.0000
  H   H1473     1.0  0.85709  0.03240  0.46727  1.0000
  H   H1474     1.0  0.70494  0.45834  0.28129  1.0000
  N   N46       1.0  0.99726  0.05460  0.37178  1.0000
  H   H1475     1.0  0.61159  0.44146  0.45370  1.0000
  H   H1476     1.0  0.65536  0.44420  0.35005  1.0000
  H   H1477     1.0  0.66865  0.41888  0.34104  1.0000
  C   C844      1.0  0.69572  0.44012  0.37485  1.0000
  H   H1478     1.0  0.88130  0.37991  0.25966  1.0000
  C   C845      1.0  0.86780  0.15087  0.48952  1.0000
  H   H1479     1.0  0.58810  0.44233  0.43247  1.0000
  H   H1480     1.0  0.54424  0.43394  0.46149  1.0000
  H   H1481     1.0  0.66519  0.47510  0.29286  1.0000
  H   H1482     1.0  0.83598  0.13353  0.29296  1.0000
  C   C846      1.0  0.85818  0.04179  0.42170  1.0000
  H   H1483     1.0  0.83969  0.09291  0.32754  1.0000
  H   H1484     1.0  0.58412  0.41948  0.47985  1.0000
  H   H1485     1.0  0.77668  0.07338  0.40918  1.0000
  H   H1486     1.0  0.59154  0.34434  0.49953  1.0000
  H   H1487     1.0  0.68854  0.47645  0.31344  1.0000
  C   C847      1.0  0.96341  0.02484  0.38480  1.0000
  H   H1488     1.0  0.79041  0.07414  0.33743  1.0000
  H   H1489     1.0  0.84723  0.08956  0.25587  1.0000
  H   H1490     1.0  0.86010  0.06002  0.41565  1.0000
  H   H1491     1.0  0.52124  0.33759  0.33931  1.0000
  H   H1492     1.0  0.82603  0.05710  0.39243  1.0000
  C   C848      1.0  0.65190  0.48118  0.45007  1.0000
  H   H1493     1.0  0.63492  0.44580  0.29187  1.0000
  H   H1494     1.0  0.70962  0.43563  0.34163  1.0000
  H   H1495     1.0  0.77360  0.10011  0.33561  1.0000
  H   H1496     1.0  0.80352  0.28132  0.28819  1.0000
  C   C849      1.0  0.86912  0.08490  0.29299  1.0000
  H   H1497     1.0  0.95501  0.04760  0.34029  1.0000
  N   N47       1.0  0.84575  0.09775  0.29160  1.0000
  C   C850      1.0  0.87286  0.15959  0.27858  1.0000
  H   H1498     1.0  0.64419  0.47248  0.43492  1.0000
  H   H1499     1.0  0.87531  0.08515  0.48861  1.0000
  H   H1500     1.0  0.58434  0.45675  0.45909  1.0000
  Fe  Fe100     1.0  0.72508  0.26601  0.25793  1.0000
  H   H1501     1.0  0.80506  0.11855  0.31125  1.0000
  H   H1502     1.0  0.60171  0.38954  0.30132  1.0000
  C   C851      1.0  0.95514  0.08184  0.32604  1.0000
  H   H1503     1.0  0.78680  0.07313  0.38026  1.0000
  H   H1504     1.0  0.64436  0.40292  0.29715  1.0000
  C   C852      1.0  0.82993  0.08953  0.31126  1.0000
  C   C853      1.0  0.97875  0.06995  0.36117  1.0000
  C   C854      1.0  0.80436  0.09960  0.31267  1.0000
  H   H1505     1.0  0.50525  0.41068  0.35420  1.0000
  H   H1506     1.0  0.85611  0.03157  0.40611  1.0000
  H   H1507     1.0  0.96512  0.02867  0.40308  1.0000
  C   C855      1.0  0.87332  0.10352  0.48876  1.0000
  H   H1508     1.0  0.98691  0.08754  0.35872  1.0000
  C   C856      1.0  0.80995  0.05493  0.40366  1.0000
  H   H1509     1.0  0.68115  0.44906  0.38377  1.0000
  H   H1510     1.0  0.80388  0.11775  0.27127  1.0000
  H   H1511     1.0  0.53437  0.33291  0.43635  1.0000
  H   H1512     1.0  0.86071  0.05180  0.31025  1.0000
  C   C857      1.0  0.88337  0.03673  0.43226  1.0000
  H   H1513     1.0  0.91477  0.01214  0.35098  1.0000
  C   C858      1.0  0.79301  0.07443  0.39808  1.0000
  H   H1514     1.0  0.85886  0.12603  0.31206  1.0000
  H   H1515     1.0  0.89976  0.02167  0.40279  1.0000
  H   H1516     1.0  0.54779  0.41566  0.49857  1.0000
  H   H1517     1.0  0.94243  0.08996  0.33780  1.0000
  C   C859      1.0  0.72322  0.42651  0.28080  1.0000
  H   H1518     1.0  0.65793  0.48255  0.34421  1.0000
  C   C860      1.0  0.83345  0.09278  0.26916  1.0000
  C   C861      1.0  0.81728  0.05513  0.42908  1.0000
  C   C862      1.0  0.96827  0.06233  0.33792  1.0000
  H   H1519     1.0  0.94455  0.07503  0.31143  1.0000
  H   H1520     1.0  0.63454  0.40483  0.32599  1.0000
  H   H1521     1.0  0.60371  0.41506  0.28361  1.0000
  N   N48       1.0  0.75079  0.25277  0.33525  1.0000
  C   C863      1.0  0.76811  0.25960  0.31626  1.0000
  C   C864      1.0  0.73239  0.23489  0.32690  1.0000
  C   C865      1.0  0.73704  0.27388  0.34100  1.0000
  C   C866      1.0  0.76375  0.24414  0.35621  1.0000
  C   C867      1.0  0.78802  0.23173  0.35248  1.0000
  C   C868      1.0  0.78536  0.28079  0.32104  1.0000
  C   C869      1.0  0.71557  0.27018  0.35789  1.0000
  C   C870      1.0  0.74247  0.21176  0.31967  1.0000
  C   C871      1.0  0.72213  0.19545  0.31112  1.0000
  C   C872      1.0  0.79596  0.21897  0.37392  1.0000
  H   H1522     1.0  0.50859  0.30933  0.33347  1.0000
  C   C873      1.0  0.70742  0.29305  0.36697  1.0000
  H   H1523     1.0  0.75765  0.26370  0.30062  1.0000
  H   H1524     1.0  0.77930  0.24513  0.31135  1.0000
  H   H1525     1.0  0.71872  0.23029  0.34025  1.0000
  H   H1526     1.0  0.72200  0.24199  0.31231  1.0000
  H   H1527     1.0  0.72945  0.28185  0.32530  1.0000
  H   H1528     1.0  0.74959  0.28725  0.34833  1.0000
  H   H1529     1.0  0.76842  0.25854  0.36781  1.0000
  H   H1530     1.0  0.75127  0.23239  0.36629  1.0000
  H   H1531     1.0  0.80289  0.24440  0.34786  1.0000
  H   H1532     1.0  0.78683  0.21912  0.33872  1.0000
  H   H1533     1.0  0.77561  0.29680  0.31728  1.0000
  H   H1534     1.0  0.79113  0.28121  0.33904  1.0000
  H   H1535     1.0  0.72067  0.25914  0.37251  1.0000
  H   H1536     1.0  0.69962  0.26198  0.34915  1.0000
  H   H1537     1.0  0.75588  0.21445  0.30585  1.0000
  H   H1538     1.0  0.75092  0.20292  0.33430  1.0000
  H   H1539     1.0  0.70876  0.19120  0.32481  1.0000
  H   H1540     1.0  0.71254  0.20325  0.29654  1.0000
  H   H1541     1.0  0.73006  0.17927  0.30547  1.0000
  H   H1542     1.0  0.79845  0.23102  0.38818  1.0000
  H   H1543     1.0  0.78224  0.20519  0.37866  1.0000
  H   H1544     1.0  0.81356  0.21081  0.37076  1.0000
  H   H1545     1.0  0.80002  0.03862  0.39941  1.0000
  H   H1546     1.0  0.69089  0.29011  0.37760  1.0000
  H   H1547     1.0  0.72199  0.30127  0.37748  1.0000
  H   H1548     1.0  0.70292  0.30494  0.35279  1.0000
  C   C874      1.0  0.66708  0.21010  0.26751  1.0000
  S   S200      1.0  0.76373  0.27995  0.25419  1.0000
  H   H1549     1.0  0.81924  0.26603  0.31037  1.0000
  C   C875      1.0  0.84198  0.04283  0.46103  1.0000
  H   H1550     1.0  0.56238  0.33187  0.45251  1.0000
  N   N49       1.0  0.53817  0.39742  0.46776  1.0000
  H   H1551     1.0  0.71359  0.44609  0.38188  1.0000
  C   C876      1.0  0.63530  0.39788  0.49400  1.0000
  C   C877      1.0  0.55213  0.41744  0.45652  1.0000
  C   C878      1.0  0.54641  0.37557  0.45739  1.0000
  C   C879      1.0  0.53454  0.35296  0.46706  1.0000
  H   H1552     1.0  0.72691  0.41155  0.29209  1.0000
  C   C880      1.0  0.57995  0.41938  0.46146  1.0000
  H   H1553     1.0  0.79993  0.05229  0.43847  1.0000
  H   H1554     1.0  0.85519  0.39749  0.26357  1.0000
  C   C881      1.0  0.54221  0.33228  0.45367  1.0000
  H   H1555     1.0  0.79254  0.09251  0.29899  1.0000
  C   C882      1.0  0.59156  0.44138  0.45101  1.0000
  H   H1556     1.0  0.92123  0.03467  0.42229  1.0000
  C   C883      1.0  0.82468  0.01418  0.43368  1.0000
  C   C884      1.0  0.60361  0.35942  0.49802  1.0000
  H   H1557     1.0  0.69348  0.42132  0.37815  1.0000
  C   C885      1.0  0.87219  0.13335  0.27837  1.0000
  H   H1558     1.0  0.82682  0.01338  0.36881  1.0000
  H   H1559     1.0  0.54404  0.37602  0.43865  1.0000
  H   H1560     1.0  0.56628  0.37394  0.45988  1.0000
  H   H1561     1.0  0.88866  0.05040  0.44444  1.0000
  H   H1562     1.0  0.85237  0.05214  0.28073  1.0000
  H   H1563     1.0  0.54068  0.35018  0.48479  1.0000
  H   H1564     1.0  0.80271  0.09137  0.40023  1.0000
  H   H1565     1.0  0.58914  0.40480  0.45400  1.0000
  C   C886      1.0  0.50288  0.40115  0.43848  1.0000
  H   H1566     1.0  0.86541  0.16920  0.48976  1.0000
  H   H1567     1.0  0.82848  0.12680  0.25314  1.0000
  H   H1568     1.0  0.64770  0.41274  0.49255  1.0000
  H   H1569     1.0  0.82637  0.07065  0.31084  1.0000
  C   C887      1.0  0.79210  0.09310  0.33521  1.0000
  C   C888      1.0  0.81716  0.11163  0.25895  1.0000
  H   H1570     1.0  0.94866  0.03517  0.37756  1.0000
  H   H1571     1.0  0.53526  0.31618  0.46218  1.0000
  C   C889      1.0  0.85224  0.12295  0.29453  1.0000
  H   H1572     1.0  0.90360  0.05262  0.40386  1.0000
  C   C890      1.0  0.84611  0.01313  0.36527  1.0000
  C   C891      1.0  0.70733  0.44337  0.29292  1.0000
  H   H1573     1.0  0.59368  0.41671  0.31275  1.0000
  H   H1574     1.0  0.81983  0.01125  0.41563  1.0000
  C   C892      1.0  0.50316  0.39552  0.36501  1.0000
  C   C893      1.0  0.89567  0.01250  0.35526  1.0000
  H   H1575     1.0  0.68490  0.41443  0.30595  1.0000
  N   N50       1.0  0.83582  0.03802  0.43655  1.0000
  C   C894      1.0  0.60633  0.40828  0.30111  1.0000
  H   H1576     1.0  0.84886  0.06095  0.46250  1.0000
  H   H1577     1.0  0.86927  0.12767  0.26071  1.0000
  H   H1578     1.0  0.88728  0.16658  0.26693  1.0000
  H   H1579     1.0  0.65667  0.49518  0.39703  1.0000
  H   H1580     1.0  0.88119  0.08987  0.27845  1.0000
  C   C895      1.0  0.80831  0.28124  0.30645  1.0000
  H   H1581     1.0  0.56083  0.38844  0.49653  1.0000
  H   H1582     1.0  0.90496  0.05324  0.29901  1.0000
  H   H1583     1.0  0.87702  0.16577  0.29591  1.0000
  H   H1584     1.0  0.82212  0.07652  0.27056  1.0000
  H   H1585     1.0  0.71412  0.42027  0.26512  1.0000
  C   C896      1.0  0.86626  0.05824  0.29311  1.0000
  H   H1586     1.0  0.89040  0.12782  0.28399  1.0000
  C   C897      1.0  0.82123  0.03855  0.47858  1.0000
  H   H1587     1.0  0.80423  0.04686  0.47364  1.0000
  H   H1588     1.0  0.64516  0.47161  0.46541  1.0000
  H   H1589     1.0  0.63412  0.48286  0.32315  1.0000
  H   H1590     1.0  0.96852  0.09515  0.31961  1.0000
  C   C898      1.0  0.89023  0.04723  0.28739  1.0000
  H   H1591     1.0  0.96307  0.07216  0.37277  1.0000
  H   H1592     1.0  0.67551  0.22090  0.28097  1.0000
  C   C899      1.0  0.50726  0.32790  0.32925  1.0000
  H   H1593     1.0  0.58048  0.49376  0.35208  1.0000
  H   H1594     1.0  0.88798  0.02826  0.28931  1.0000
  C   C900      1.0  0.98803  0.02986  0.37240  1.0000
  H   H1595     1.0  0.50600  0.41711  0.47134  1.0000
  C   C901      1.0  0.54383  0.39773  0.49293  1.0000
  C   C902      1.0  0.59684  0.49404  0.36233  1.0000
  H   H1596     1.0  0.50612  0.38451  0.43044  1.0000
  H   H1597     1.0  0.85145  0.36661  0.26392  1.0000
  H   H1598     1.0  0.66153  0.34948  0.49861  1.0000
  C   C903      1.0  0.86160  0.38152  0.25594  1.0000
  C   C904      1.0  0.63969  0.49492  0.38772  1.0000
  H   H1599     1.0  0.51127  0.33096  0.31099  1.0000
  H   H1600     1.0  0.81718  0.01981  0.48082  1.0000
  H   H1601     1.0  0.68029  0.19717  0.26248  1.0000
  H   H1602     1.0  0.85511  0.16625  0.27296  1.0000
  H   H1603     1.0  0.64845  0.23864  0.25306  1.0000
  H   H1604     1.0  0.49989  0.38707  0.47208  1.0000
  H   H1605     1.0  0.83102  0.06729  0.50039  1.0000
  H   H1606     1.0  0.98700  0.11903  0.50141  1.0000
  C   C905      1.0  0.82869  0.04826  0.50159  1.0000
  Fe  Fe101     1.0  0.61371  0.43420  0.59109  1.0000
  S   S201      1.0  0.61187  0.42334  0.62778  1.0000
  S   S202      1.0  0.61519  0.46996  0.57493  1.0000
  Fe  Fe102     1.0  0.60361  0.38527  0.57484  1.0000
  S   S203      1.0  0.59979  0.37062  0.61042  1.0000
  S   S204      1.0  0.59816  0.36266  0.54414  1.0000
  Fe  Fe103     1.0  0.57870  0.40207  0.61735  1.0000
  S   S205      1.0  0.54441  0.40500  0.63827  1.0000
  Fe  Fe104     1.0  0.63329  0.39256  0.61816  1.0000
  S   S206      1.0  0.66711  0.38088  0.63784  1.0000
  S   S207      1.0  0.57943  0.41448  0.58130  1.0000
  S   S208      1.0  0.63810  0.40564  0.58196  1.0000
  Fe  Fe105     1.0  0.86892  0.13065  0.61883  1.0000
  S   S209      1.0  0.85849  0.10832  0.58892  1.0000
  S   S210      1.0  0.83872  0.13949  0.64395  1.0000
  Fe  Fe106     1.0  0.92172  0.13732  0.60225  1.0000
  S   S211      1.0  0.91475  0.11660  0.57128  1.0000
  S   S212      1.0  0.95767  0.15739  0.60512  1.0000
  Fe  Fe107     1.0  0.87984  0.13469  0.56805  1.0000
  S   S213      1.0  0.86747  0.15290  0.53603  1.0000
  Fe  Fe108     1.0  0.89442  0.09156  0.59462  1.0000
  S   S214      1.0  0.90694  0.05561  0.58690  1.0000
  S   S215      1.0  0.88827  0.15762  0.59734  1.0000
  S   S216      1.0  0.90345  0.11158  0.62622  1.0000
  Fe  Fe109     1.0  0.73009  0.27419  0.70756  1.0000
  S   S217      1.0  0.76963  0.28552  0.70612  1.0000
  S   S218      1.0  0.69792  0.28644  0.68579  1.0000
  C   C906      1.0  0.68282  0.30843  0.58954  1.0000
  H   H1607     1.0  0.59605  0.31259  0.61756  1.0000
  H   H1608     1.0  0.65491  0.37352  0.69501  1.0000
  Fe  Fe110     1.0  0.77834  0.24792  0.70774  1.0000
  S   S219      1.0  0.80939  0.23582  0.68516  1.0000
  C   C907      1.0  0.60374  0.31212  0.60019  1.0000
  S   S220      1.0  0.73880  0.23660  0.70671  1.0000
  H   H1609     1.0  0.54697  0.37113  0.53377  1.0000
  H   H1610     1.0  0.87462  0.10517  0.52532  1.0000
  C   C908      1.0  0.52611  0.45778  0.55239  1.0000
  C   C909      1.0  0.89356  0.02836  0.59411  1.0000
  C   C910      1.0  0.87211  0.02565  0.60676  1.0000
  C   C911      1.0  0.95298  0.02877  0.62548  1.0000
  C   C912      1.0  0.54607  0.48268  0.62838  1.0000
  C   C913      1.0  0.84573  0.00963  0.54875  1.0000
  H   H1611     1.0  0.86298  0.04064  0.61237  1.0000
  H   H1612     1.0  0.69767  0.31087  0.72659  1.0000
  H   H1613     1.0  0.53035  0.44077  0.54558  1.0000
  C   C914      1.0  0.98403  0.14231  0.61158  1.0000
  C   C915      1.0  0.98243  0.11945  0.61918  1.0000
  S   S221      1.0  0.78043  0.24728  0.74596  1.0000
  H   H1614     1.0  0.96476  0.11084  0.62144  1.0000
  C   C916      1.0  0.75359  0.36046  0.70819  1.0000
  C   C917      1.0  0.83079  0.16659  0.65490  1.0000
  C   C918      1.0  0.80800  0.16855  0.66548  1.0000
  C   C919      1.0  0.80104  0.18961  0.67454  1.0000
  C   C920      1.0  0.81685  0.20899  0.67335  1.0000
  C   C921      1.0  0.83957  0.20708  0.66265  1.0000
  C   C922      1.0  0.84655  0.18605  0.65359  1.0000
  H   H1615     1.0  0.79560  0.15367  0.66655  1.0000
  H   H1616     1.0  0.78337  0.19100  0.68228  1.0000
  H   H1617     1.0  0.85207  0.22190  0.66172  1.0000
  H   H1618     1.0  0.86430  0.18477  0.64593  1.0000
  C   C923      1.0  0.51624  0.39504  0.62708  1.0000
  H   H1619     1.0  0.77322  0.22815  0.63195  1.0000
  C   C924      1.0  0.51504  0.38263  0.60704  1.0000
  H   H1620     1.0  0.56028  0.46135  0.57118  1.0000
  H   H1621     1.0  0.53163  0.37890  0.59821  1.0000
  C   C925      1.0  0.67534  0.35409  0.65031  1.0000
  C   C926      1.0  0.69994  0.35080  0.65583  1.0000
  C   C927      1.0  0.70728  0.33021  0.66639  1.0000
  C   C928      1.0  0.69002  0.31268  0.67193  1.0000
  C   C929      1.0  0.66550  0.31580  0.66598  1.0000
  C   C930      1.0  0.65818  0.33633  0.65532  1.0000
  H   H1622     1.0  0.71345  0.36432  0.65193  1.0000
  H   H1623     1.0  0.72628  0.32788  0.67017  1.0000
  H   H1624     1.0  0.65196  0.30234  0.66998  1.0000
  H   H1625     1.0  0.63916  0.33860  0.65146  1.0000
  C   C931      1.0  0.73553  0.14377  0.71459  1.0000
  C   C932      1.0  0.62552  0.39139  0.51529  1.0000
  H   H1626     1.0  0.94173  0.19183  0.52223  1.0000
  H   H1627     1.0  0.84563  0.00143  0.62161  1.0000
  H   H1628     1.0  0.67207  0.40064  0.69469  1.0000
  H   H1629     1.0  0.67435  0.30469  0.54559  1.0000
  H   H1630     1.0  0.63430  0.47820  0.62047  1.0000
  H   H1631     1.0  0.71534  0.29282  0.62212  1.0000
  H   H1632     1.0  0.75847  0.18262  0.73632  1.0000
  H   H1633     1.0  0.98885  0.08759  0.53168  1.0000
  C   C933      1.0  0.90518  0.00875  0.58691  1.0000
  H   H1634     1.0  0.64295  0.32767  0.53038  1.0000
  H   H1635     1.0  0.95501  0.02217  0.60813  1.0000
  H   H1636     1.0  0.65671  0.35415  0.53987  1.0000
  H   H1637     1.0  0.66515  0.36756  0.73567  1.0000
  Fe  Fe111     1.0  0.76907  0.28412  0.74447  1.0000
  C   C934      1.0  0.52369  0.38826  0.50947  1.0000
  Fe  Fe112     1.0  0.73999  0.23775  0.74493  1.0000
  H   H1638     1.0  0.76722  0.33309  0.68765  1.0000
  H   H1639     1.0  0.96934  0.17817  0.55290  1.0000
  H   H1640     1.0  0.69077  0.35052  0.51242  1.0000
  H   H1641     1.0  0.98529  0.05144  0.62146  1.0000
  H   H1642     1.0  0.67255  0.32954  0.72457  1.0000
  H   H1643     1.0  0.69418  0.35536  0.70377  1.0000
  H   H1644     1.0  0.84903  0.17314  0.70840  1.0000
  H   H1645     1.0  0.92577  0.18566  0.54849  1.0000
  H   H1646     1.0  0.57219  0.45768  0.63953  1.0000
  H   H1647     1.0  0.72765  0.33193  0.71112  1.0000
  H   H1648     1.0  0.73356  0.39096  0.73905  1.0000
  H   H1649     1.0  0.74408  0.36795  0.69337  1.0000
  C   C935      1.0  0.99200  0.09626  0.54809  1.0000
  H   H1650     1.0  0.83413  0.25643  0.53696  1.0000
  C   C936      1.0  0.66139  0.38816  0.70556  1.0000
  C   C937      1.0  0.67348  0.34017  0.51056  1.0000
  H   H1651     1.0  0.96403  0.06034  0.64276  1.0000
  H   H1652     1.0  0.84607  0.04114  0.50752  1.0000
  H   H1653     1.0  0.96034  0.07866  0.56400  1.0000
  C   C938      1.0  0.86986  0.13852  0.51007  1.0000
  H   H1654     1.0  0.71039  0.38182  0.70695  1.0000
  H   H1655     1.0  0.96111  0.11648  0.54257  1.0000
  H   H1656     1.0  0.51862  0.37993  0.54526  1.0000
  H   H1657     1.0  0.69557  0.32784  0.54774  1.0000
  N   N51       1.0  0.71576  0.35742  0.73444  1.0000
  H   H1658     1.0  0.84516  0.00203  0.56614  1.0000
  C   C939      1.0  0.70342  0.38363  0.58870  1.0000
  C   C940      1.0  0.67683  0.37967  0.72537  1.0000
  C   C941      1.0  0.56433  0.46439  0.62348  1.0000
  C   C942      1.0  0.77889  0.20740  0.60202  1.0000
  C   C943      1.0  0.53369  0.38500  0.53345  1.0000
  C   C944      1.0  0.72625  0.37608  0.74940  1.0000
  H   H1659     1.0  0.51183  0.47116  0.58309  1.0000
  N   N52       1.0  0.99197  0.13859  0.53192  1.0000
  H   H1660     1.0  0.80752  0.16458  0.71945  1.0000
  H   H1661     1.0  0.77166  0.19062  0.59583  1.0000
  H   H1662     1.0  0.59467  0.32511  0.58945  1.0000
  H   H1663     1.0  0.96112  0.02066  0.66022  1.0000
  H   H1664     1.0  0.78468  0.33877  0.71319  1.0000
  H   H1665     1.0  0.67527  0.34898  0.60245  1.0000
  C   C945      1.0  0.72224  0.29274  0.60441  1.0000
  H   H1666     1.0  0.95709  0.06399  0.61315  1.0000
  H   H1667     1.0  0.69015  0.37132  0.55679  1.0000
  H   H1668     1.0  0.77365  0.22108  0.58985  1.0000
  C   C946      1.0  0.82989  0.23970  0.52881  1.0000
  H   H1669     1.0  0.56199  0.49744  0.65851  1.0000
  H   H1670     1.0  0.64523  0.39678  0.71208  1.0000
  H   H1671     1.0  0.81426  0.04390  0.51428  1.0000
  H   H1672     1.0  0.80757  0.13506  0.74659  1.0000
  N   N53       1.0  0.66909  0.32531  0.57515  1.0000
  C   C947      1.0  0.77439  0.34671  0.69905  1.0000
  H   H1673     1.0  0.67732  0.32328  0.50324  1.0000
  H   H1674     1.0  0.97981  0.12638  0.56518  1.0000
  C   C948      1.0  0.55037  0.47045  0.55753  1.0000
  H   H1675     1.0  0.86044  0.02329  0.54787  1.0000
  C   C949      1.0  0.71089  0.31174  0.59017  1.0000
  H   H1676     1.0  0.76950  0.19746  0.63678  1.0000
  H   H1677     1.0  0.95048  0.15248  0.55620  1.0000
  H   H1678     1.0  0.54286  0.40106  0.53952  1.0000
  H   H1679     1.0  0.53154  0.47445  0.63920  1.0000
  S   S222      1.0  0.72869  0.27452  0.74585  1.0000
  H   H1680     1.0  0.78715  0.35827  0.68919  1.0000
  C   C950      1.0  0.96572  0.05254  0.62583  1.0000
  H   H1681     1.0  0.97959  0.16895  0.51396  1.0000
  C   C951      1.0  0.76630  0.21173  0.62454  1.0000
  C   C952      1.0  0.95761  0.16544  0.54375  1.0000
  H   H1682     1.0  0.50894  0.40070  0.51025  1.0000
  C   C953      1.0  0.70135  0.34029  0.74912  1.0000
  N   N54       1.0  0.82145  0.20222  0.58425  1.0000
  C   C954      1.0  0.81301  0.17956  0.57434  1.0000
  C   C955      1.0  0.81815  0.22088  0.56660  1.0000
  C   C956      1.0  0.84781  0.20071  0.59102  1.0000
  C   C957      1.0  0.80694  0.20766  0.60503  1.0000
  H   H1683     1.0  0.76933  0.16049  0.70489  1.0000
  C   C958      1.0  0.81208  0.15861  0.59094  1.0000
  C   C959      1.0  0.86072  0.22334  0.59903  1.0000
  C   C960      1.0  0.83457  0.21980  0.54526  1.0000
  H   H1684     1.0  0.83087  0.20361  0.53603  1.0000
  H   H1685     1.0  0.93336  0.03112  0.62872  1.0000
  C   C961      1.0  0.80222  0.13703  0.57916  1.0000
  C   C962      1.0  0.88766  0.21987  0.60399  1.0000
  H   H1686     1.0  0.82536  0.17487  0.56037  1.0000
  H   H1687     1.0  0.79479  0.18088  0.56627  1.0000
  H   H1688     1.0  0.79902  0.22034  0.56034  1.0000
  H   H1689     1.0  0.82092  0.23816  0.57415  1.0000
  H   H1690     1.0  0.85863  0.19373  0.57696  1.0000
  H   H1691     1.0  0.84949  0.18816  0.60528  1.0000
  H   H1692     1.0  0.81122  0.19578  0.61932  1.0000
  H   H1693     1.0  0.81238  0.22503  0.61124  1.0000
  C   C963      1.0  0.96388  0.01244  0.64361  1.0000
  C   C964      1.0  0.69530  0.36384  0.57347  1.0000
  H   H1694     1.0  0.83061  0.15506  0.59716  1.0000
  H   H1695     1.0  0.80020  0.16137  0.60572  1.0000
  H   H1696     1.0  0.85233  0.22927  0.61485  1.0000
  H   H1697     1.0  0.85981  0.23722  0.58601  1.0000
  H   H1698     1.0  0.85419  0.22086  0.54973  1.0000
  C   C965      1.0  0.60980  0.37200  0.51743  1.0000
  H   H1699     1.0  0.84490  0.20340  0.71302  1.0000
  C   C966      1.0  0.66071  0.33695  0.53342  1.0000
  C   C967      1.0  0.76213  0.15045  0.71970  1.0000
  H   H1700     1.0  0.51921  0.44172  0.58526  1.0000
  H   H1701     1.0  0.54741  0.48829  0.56288  1.0000
  H   H1702     1.0  0.80017  0.19301  0.72664  1.0000
  H   H1703     1.0  0.78327  0.13930  0.57318  1.0000
  H   H1704     1.0  0.81394  0.13306  0.56452  1.0000
  H   H1705     1.0  0.80217  0.12223  0.59131  1.0000
  H   H1706     1.0  0.88976  0.20687  0.61778  1.0000
  H   H1707     1.0  0.89714  0.21416  0.58859  1.0000
  H   H1708     1.0  0.89653  0.23630  0.60949  1.0000
  C   C968      1.0  0.64227  0.31853  0.57692  1.0000
  H   H1709     1.0  0.71800  0.27564  0.59703  1.0000
  H   H1710     1.0  0.76192  0.37467  0.71814  1.0000
  H   H1711     1.0  0.74636  0.21270  0.62184  1.0000
  H   H1712     1.0  0.56206  0.47118  0.54218  1.0000
  H   H1713     1.0  0.65700  0.35982  0.58063  1.0000
  H   H1714     1.0  0.67814  0.29053  0.58420  1.0000
  H   H1715     1.0  0.63123  0.33107  0.56736  1.0000
  H   H1716     1.0  0.63044  0.40123  0.53008  1.0000
  H   H1717     1.0  0.68820  0.39511  0.59175  1.0000
  H   H1718     1.0  0.59964  0.29484  0.59317  1.0000
  H   H1719     1.0  0.67734  0.30944  0.60761  1.0000
  H   H1720     1.0  0.98824  0.06345  0.56612  1.0000
  H   H1721     1.0  0.57926  0.47152  0.61249  1.0000
  C   C969      1.0  0.67330  0.34945  0.58370  1.0000
  H   H1722     1.0  0.86937  0.18907  0.72684  1.0000
  H   H1723     1.0  0.92172  0.01073  0.57703  1.0000
  H   H1724     1.0  0.71849  0.39394  0.58047  1.0000
  H   H1725     1.0  0.71006  0.37693  0.60523  1.0000
  H   H1726     1.0  0.95866  0.14484  0.51352  1.0000
  H   H1727     1.0  0.71613  0.32820  0.59838  1.0000
  C   C970      1.0  0.85016  0.18697  0.72112  1.0000
  C   C971      1.0  0.86238  0.00343  0.61202  1.0000
  H   H1728     1.0  0.71891  0.31142  0.57298  1.0000
  H   H1729     1.0  0.77260  0.13462  0.72106  1.0000
  H   H1730     1.0  0.84177  0.23846  0.51370  1.0000
  H   H1731     1.0  0.65000  0.20000  0.73680  1.0000
  H   H1732     1.0  0.63892  0.30288  0.61128  1.0000
  H   H1733     1.0  0.55506  0.44987  0.61459  1.0000
  H   H1734     1.0  0.63490  0.33344  0.61002  1.0000
  H   H1735     1.0  0.71146  0.35359  0.57070  1.0000
  C   C972      1.0  0.63128  0.31708  0.60111  1.0000
  H   H1736     1.0  0.53782  0.48821  0.61214  1.0000
  C   C973      1.0  0.69989  0.36819  0.71663  1.0000
  H   H1737     1.0  0.74628  0.33496  0.73513  1.0000
  C   C974      1.0  0.67611  0.32304  0.55060  1.0000
  H   H1738     1.0  0.63844  0.30158  0.56890  1.0000
  C   C975      1.0  0.73563  0.34505  0.72269  1.0000
  H   H1739     1.0  0.74234  0.29562  0.60490  1.0000
  H   H1740     1.0  0.72765  0.13264  0.72843  1.0000
  C   C976      1.0  0.80681  0.17655  0.73389  1.0000
  H   H1741     1.0  0.98400  0.01275  0.64129  1.0000
  C   C977      1.0  0.51028  0.45459  0.57406  1.0000
  H   H1742     1.0  0.72467  0.15939  0.71273  1.0000
  H   H1743     1.0  0.73435  0.13416  0.69853  1.0000
  C   C978      1.0  0.62235  0.49526  0.59002  1.0000
  H   H1744     1.0  0.82801  0.01757  0.54549  1.0000
  H   H1745     1.0  0.66107  0.29264  0.74341  1.0000
  H   H1746     1.0  0.68199  0.39471  0.73588  1.0000
  C   C979      1.0  0.98036  0.08069  0.56654  1.0000
  C   C980      1.0  0.76444  0.16517  0.74131  1.0000
  C   C981      1.0  0.93572  0.17793  0.53434  1.0000
  C   C982      1.0  0.83368  0.18110  0.74142  1.0000
  H   H1747     1.0  0.84093  0.16585  0.75025  1.0000
  C   C983      1.0  0.68577  0.32184  0.73640  1.0000
  H   H1748     1.0  0.51547  0.37156  0.50419  1.0000
  H   H1749     1.0  0.51667  0.46771  0.53905  1.0000
  C   C984      1.0  0.87299  0.11484  0.50960  1.0000
  C   C985      1.0  0.97209  0.15434  0.52447  1.0000
  H   H1750     1.0  0.81061  0.23904  0.52306  1.0000
  H   H1751     1.0  0.92292  0.16571  0.52567  1.0000
  C   C986      1.0  0.98049  0.12016  0.54744  1.0000
  H   H1752     1.0  0.98399  0.08797  0.58348  1.0000
  C   C987      1.0  0.63160  0.49458  0.61210  1.0000
  H   H1753     1.0  0.63857  0.22732  0.74530  1.0000
  H   H1754     1.0  0.95302  0.32459  0.74614  1.0000
  N   N55       1.0  0.78944  0.16694  0.75189  1.0000
  C   C988      1.0  0.64948  0.21254  0.75072  1.0000
  Fe  Fe113     1.0  0.58809  0.11992  0.86236  1.0000
  S   S223      1.0  0.60144  0.15172  0.87965  1.0000
  S   S224      1.0  0.55213  0.11857  0.84369  1.0000
  Fe  Fe114     1.0  0.63374  0.09499  0.87433  1.0000
  S   S225      1.0  0.65087  0.12541  0.89269  1.0000
  S   S226      1.0  0.65279  0.06181  0.86812  1.0000
  Fe  Fe115     1.0  0.61333  0.12816  0.90760  1.0000
  S   S227      1.0  0.60081  0.13912  0.94224  1.0000
  Fe  Fe116     1.0  0.63764  0.14664  0.86296  1.0000
  S   S228      1.0  0.65501  0.17994  0.84756  1.0000
  S   S229      1.0  0.59730  0.09643  0.89132  1.0000
  S   S230      1.0  0.62321  0.11611  0.84373  1.0000
  Fe  Fe117     1.0  0.86730  0.37493  0.86627  1.0000
  S   S231      1.0  0.88185  0.40713  0.84841  1.0000
  S   S232      1.0  0.84750  0.34336  0.85035  1.0000
  Fe  Fe118     1.0  0.89296  0.38888  0.91142  1.0000
  S   S233      1.0  0.90952  0.42143  0.89623  1.0000
  S   S234      1.0  0.90544  0.38024  0.94718  1.0000
  Fe  Fe119     1.0  0.87281  0.42552  0.88046  1.0000
  S   S235      1.0  0.85340  0.45882  0.88486  1.0000
  Fe  Fe120     1.0  0.91742  0.40020  0.86603  1.0000
  S   S236      1.0  0.95354  0.40200  0.84735  1.0000
  S   S237      1.0  0.85548  0.39381  0.89739  1.0000
  S   S238      1.0  0.90360  0.36726  0.88220  1.0000
  H   H1755     1.0  0.56566  0.19235  0.94533  1.0000
  H   H1756     1.0  0.75452  0.17216  0.78721  1.0000
  C   C989      1.0  0.75462  0.38854  0.78139  1.0000
  H   H1757     1.0  0.92141  0.34196  0.99171  1.0000
  H   H1758     1.0  0.56212  0.19936  0.76054  1.0000
  H   H1759     1.0  0.89931  0.47416  0.86340  1.0000
  H   H1760     1.0  0.54659  0.05151  0.80878  1.0000
  C   C990      1.0  0.97944  0.39243  0.86205  1.0000
  H   H1761     1.0  0.57809  0.02622  0.81726  1.0000
  H   H1762     1.0  0.95432  0.34612  0.85899  1.0000
  H   H1763     1.0  0.66844  0.21902  0.75403  1.0000
  C   C991      1.0  0.86548  0.45975  0.95247  1.0000
  H   H1764     1.0  0.96030  0.38384  0.89304  1.0000
  H   H1765     1.0  0.54315  0.07140  0.83077  1.0000
  H   H1766     1.0  0.70037  0.14759  0.96571  1.0000
  C   C992      1.0  0.88871  0.38802  0.97120  1.0000
  C   C993      1.0  0.86423  0.39364  0.96984  1.0000
  H   H1767     1.0  0.59010  0.00991  0.90312  1.0000
  C   C994      1.0  0.53959  0.05306  0.82639  1.0000
  H   H1768     1.0  0.85509  0.39374  0.95358  1.0000
  C   C995      1.0  0.90941  0.46711  0.95539  1.0000
  C   C996      1.0  0.80242  0.32377  0.78635  1.0000
  C   C997      1.0  0.81082  0.34670  0.78951  1.0000
  C   C998      1.0  0.82432  0.35315  0.80900  1.0000
  C   C999      1.0  0.82967  0.33671  0.82571  1.0000
  C   C1000     1.0  0.82119  0.31382  0.82256  1.0000
  C   C1001     1.0  0.80771  0.30738  0.80307  1.0000
  H   H1769     1.0  0.80692  0.35959  0.77675  1.0000
  H   H1770     1.0  0.83060  0.37082  0.81108  1.0000
  H   H1771     1.0  0.82514  0.30092  0.83531  1.0000
  H   H1772     1.0  0.80139  0.28972  0.80104  1.0000
  C   C1002     1.0  0.63873  0.03471  0.87503  1.0000
  H   H1773     1.0  0.90166  0.30186  0.80694  1.0000
  C   C1003     1.0  0.61757  0.03286  0.88814  1.0000
  C   C1004     1.0  0.99855  0.37687  0.89585  1.0000
  H   H1774     1.0  0.60991  0.04812  0.89476  1.0000
  C   C1005     1.0  0.67501  0.18633  0.82431  1.0000
  C   C1006     1.0  0.68101  0.20949  0.81875  1.0000
  C   C1007     1.0  0.69613  0.21553  0.80005  1.0000
  C   C1008     1.0  0.70543  0.19844  0.78659  1.0000
  C   C1009     1.0  0.69955  0.17526  0.79223  1.0000
  C   C1010     1.0  0.68452  0.16922  0.81098  1.0000
  H   H1775     1.0  0.67385  0.22288  0.82896  1.0000
  H   H1776     1.0  0.70048  0.23341  0.79602  1.0000
  H   H1777     1.0  0.70662  0.16187  0.78197  1.0000
  H   H1778     1.0  0.68027  0.15136  0.81512  1.0000
  C   C1011     1.0  0.53534  0.10211  0.96203  1.0000
  C   C1012     1.0  0.62781  0.10831  0.96695  1.0000
  C   C1013     1.0  0.61123  0.12587  0.96730  1.0000
  H   H1779     1.0  0.92419  0.47824  0.96290  1.0000
  H   H1780     1.0  0.63439  0.10232  0.95092  1.0000
  H   H1781     1.0  0.94492  0.44426  0.93198  1.0000
  C   C1014     1.0  0.52953  0.11597  0.88523  1.0000
  C   C1015     1.0  0.52657  0.11807  0.86179  1.0000
  H   H1782     1.0  0.58967  0.02486  0.84538  1.0000
  H   H1783     1.0  0.54760  0.11539  0.89244  1.0000
  H   H1784     1.0  0.61264  0.04908  0.79936  1.0000
  H   H1785     1.0  0.62852  0.07056  0.81607  1.0000
  C   C1016     1.0  0.54728  0.19101  0.93744  1.0000
  H   H1786     1.0  0.80126  0.11202  0.79652  1.0000
  H   H1787     1.0  0.94161  0.30387  0.79343  1.0000
  C   C1017     1.0  0.95794  0.31560  0.76217  1.0000
  H   H1788     1.0  0.87929  0.27652  0.77972  1.0000
  H   H1789     1.0  0.93081  0.32592  0.86935  1.0000
  H   H1790     1.0  0.85837  0.32438  0.78417  1.0000
  C   C1018     1.0  0.94631  0.32842  0.85739  1.0000
  H   H1791     1.0  0.65143  0.15616  0.98856  1.0000
  H   H1792     1.0  0.91935  0.38427  0.99339  1.0000
  H   H1793     1.0  0.85506  0.28352  0.79887  1.0000
  C   C1019     1.0  0.89210  0.35899  0.79768  1.0000
  H   H1794     1.0  0.91565  0.43534  0.97579  1.0000
  C   C1020     1.0  0.67120  0.30623  0.75297  1.0000
  H   H1795     1.0  0.76026  0.19288  0.82251  1.0000
  C   C1021     1.0  0.51920  0.15373  0.99896  1.0000
  N   N56       1.0  0.90784  0.33872  0.80230  1.0000
  C   C1022     1.0  0.89120  0.31748  0.80391  1.0000
  C   C1023     1.0  0.53130  0.17885  0.77236  1.0000
  C   C1024     1.0  0.87422  0.31322  0.78319  1.0000
  H   H1796     1.0  0.78182  0.16360  0.80160  1.0000
  H   H1797     1.0  0.73911  0.39405  0.79175  1.0000
  H   H1798     1.0  0.62791  0.04099  0.82534  1.0000
  H   H1799     1.0  0.87915  0.31830  0.81904  1.0000
  H   H1800     1.0  0.54717  0.07260  0.90449  1.0000
  H   H1801     1.0  0.90480  0.43053  0.94747  1.0000
  H   H1802     1.0  0.96394  0.29820  0.75803  1.0000
  C   C1025     1.0  0.55686  0.18946  0.77614  1.0000
  H   H1803     1.0  0.57609  0.16027  0.76553  1.0000
  H   H1804     1.0  0.54045  0.00669  0.82577  1.0000
  H   H1805     1.0  0.50255  0.04857  0.84111  1.0000
  H   H1806     1.0  0.50722  0.03236  0.81602  1.0000
  C   C1026     1.0  0.88939  0.48912  0.86777  1.0000
  H   H1807     1.0  0.86720  0.46352  0.93397  1.0000
  N   N57       1.0  0.60060  0.17891  0.78802  1.0000
  C   C1027     1.0  0.61508  0.15823  0.79431  1.0000
  C   C1028     1.0  0.59985  0.19430  0.80827  1.0000
  C   C1029     1.0  0.57535  0.17055  0.78116  1.0000
  C   C1030     1.0  0.61212  0.19239  0.76850  1.0000
  C   C1031     1.0  0.63887  0.20110  0.77222  1.0000
  C   C1032     1.0  0.62238  0.14288  0.77439  1.0000
  H   H1808     1.0  0.67036  0.14664  0.95319  1.0000
  C   C1033     1.0  0.58457  0.18482  0.82868  1.0000
  H   H1809     1.0  0.65077  0.12597  0.79363  1.0000
  H   H1810     1.0  0.55569  0.20165  0.79024  1.0000
  C   C1034     1.0  0.63467  0.12133  0.78299  1.0000
  H   H1811     1.0  0.89808  0.41836  0.78740  1.0000
  H   H1812     1.0  0.60466  0.14694  0.80658  1.0000
  H   H1813     1.0  0.63205  0.16344  0.80352  1.0000
  H   H1814     1.0  0.61862  0.19790  0.81484  1.0000
  H   H1815     1.0  0.59311  0.21147  0.80339  1.0000
  H   H1816     1.0  0.56736  0.15843  0.79426  1.0000
  H   H1817     1.0  0.83528  0.19601  0.75282  1.0000
  C   C1035     1.0  0.88856  0.40119  0.78702  1.0000
  H   H1818     1.0  0.83224  0.40227  0.98864  1.0000
  C   C1036     1.0  0.88508  0.46504  0.99023  1.0000
  H   H1819     1.0  0.63990  0.21403  0.78580  1.0000
  H   H1820     1.0  0.96043  0.31611  0.86219  1.0000
  H   H1821     1.0  0.68915  0.34921  0.76081  1.0000
  H   H1822     1.0  0.85081  0.28643  0.76871  1.0000
  H   H1823     1.0  0.97339  0.32519  0.77034  1.0000
  H   H1824     1.0  0.82434  0.43280  0.94293  1.0000
  H   H1825     1.0  0.97767  0.45771  0.87114  1.0000
  H   H1826     1.0  0.66527  0.01588  0.85695  1.0000
  H   H1827     1.0  0.96383  0.43508  0.88839  1.0000
  S   S239      1.0  0.72406  0.20485  0.76239  1.0000
  C   C1037     1.0  0.90553  0.38296  0.79606  1.0000
  C   C1038     1.0  0.90034  0.38807  0.99236  1.0000
  H   H1828     1.0  0.61582  0.00509  0.99356  1.0000
  H   H1829     1.0  0.64089  0.11133  0.76841  1.0000
  H   H1830     1.0  0.52183  0.01402  0.84868  1.0000
  C   C1039     1.0  0.54823  0.08045  0.96948  1.0000
  H   H1831     1.0  0.88314  0.39756  0.76926  1.0000
  H   H1832     1.0  0.76303  0.21261  0.79879  1.0000
  H   H1833     1.0  0.96951  0.46306  0.90027  1.0000
  H   H1834     1.0  0.87191  0.40166  0.79764  1.0000
  C   C1040     1.0  0.57862  0.03541  0.83367  1.0000
  H   H1835     1.0  0.60628  0.13718  0.76432  1.0000
  H   H1836     1.0  0.52479  0.16936  0.78785  1.0000
  C   C1041     1.0  0.61710  0.05440  0.81689  1.0000
  H   H1837     1.0  0.64984  0.08584  0.98717  1.0000
  H   H1838     1.0  0.51844  0.19263  0.76849  1.0000
  H   H1839     1.0  0.81230  0.14684  0.77373  1.0000
  S   S240      1.0  0.78552  0.31679  0.76124  1.0000
  H   H1840     1.0  0.52041  0.06453  0.87089  1.0000
  H   H1841     1.0  0.96449  0.35654  0.98465  1.0000
  H   H1842     1.0  0.51796  0.05963  0.91201  1.0000
  H   H1843     1.0  0.80201  0.45341  0.94986  1.0000
  H   H1844     1.0  0.51157  0.11260  0.91749  1.0000
  C   C1042     1.0  0.77855  0.12643  0.76989  1.0000
  H   H1845     1.0  0.90562  0.34387  0.83836  1.0000
  H   H1846     1.0  0.65788  0.31625  0.76239  1.0000
  H   H1847     1.0  0.94264  0.34917  0.78760  1.0000
  C   C1043     1.0  0.53656  0.15452  0.95966  1.0000
  H   H1848     1.0  0.54845  0.18125  0.92150  1.0000
  C   C1044     1.0  0.77168  0.19800  0.80761  1.0000
  C   C1045     1.0  0.93782  0.32416  0.83310  1.0000
  H   H1849     1.0  0.55598  0.15538  0.96501  1.0000
  C   C1046     1.0  0.68076  0.14359  0.96907  1.0000
  H   H1850     1.0  0.76619  0.13403  0.78216  1.0000
  C   C1047     1.0  0.93605  0.31354  0.77813  1.0000
  C   C1048     1.0  0.52894  0.17914  0.95373  1.0000
  H   H1851     1.0  0.53804  0.07131  0.98340  1.0000
  H   H1852     1.0  0.92167  0.30295  0.76958  1.0000
  H   H1853     1.0  0.77600  0.09356  0.78781  1.0000
  C   C1049     1.0  0.92658  0.33760  0.78366  1.0000
  C   C1050     1.0  0.86431  0.28836  0.78266  1.0000
  C   C1051     1.0  0.85131  0.39841  0.98971  1.0000
  H   H1854     1.0  0.96208  0.39300  0.99368  1.0000
  H   H1855     1.0  0.59041  0.14734  0.98856  1.0000
  H   H1856     1.0  0.82241  0.45915  0.92641  1.0000
  H   H1857     1.0  0.54144  0.20859  0.93315  1.0000
  H   H1858     1.0  0.63545  0.15225  0.76289  1.0000
  H   H1859     1.0  0.95601  0.44896  0.96054  1.0000
  H   H1860     1.0  0.91191  0.38853  0.81299  1.0000
  C   C1052     1.0  0.79817  0.14405  0.76038  1.0000
  C   C1053     1.0  0.97772  0.38439  0.88448  1.0000
  H   H1861     1.0  0.53657  0.14542  0.94326  1.0000
  C   C1054     1.0  0.88272  0.49841  0.96344  1.0000
  C   C1055     1.0  0.91682  0.44173  0.95800  1.0000
  H   H1862     1.0  0.57458  0.19451  0.86264  1.0000
  H   H1863     1.0  0.72028  0.18328  0.00114  1.0000
  C   C1056     1.0  0.91985  0.34242  0.82506  1.0000
  C   C1057     1.0  0.83895  0.46349  0.95975  1.0000
  H   H1864     1.0  0.95435  0.32519  0.82229  1.0000
  H   H1865     1.0  0.60172  0.20799  0.76470  1.0000
  C   C1058     1.0  0.82089  0.45144  0.94373  1.0000
  H   H1866     1.0  0.55440  0.00147  0.87645  1.0000
  C   C1059     1.0  0.97671  0.45025  0.88859  1.0000
  C   C1060     1.0  0.67151  0.15885  0.98773  1.0000
  H   H1867     1.0  0.50764  0.06802  0.79250  1.0000
  H   H1868     1.0  0.93074  0.35890  0.82517  1.0000
  H   H1869     1.0  0.86776  0.44094  0.95417  1.0000
  H   H1870     1.0  0.59128  0.16810  0.83462  1.0000
  H   H1871     1.0  0.74023  0.35417  0.77717  1.0000
  H   H1872     1.0  0.57944  0.21847  0.84323  1.0000
  H   H1873     1.0  0.50992  0.17013  0.99658  1.0000
  H   H1874     1.0  0.91922  0.34444  0.76738  1.0000
  N   N58       1.0  0.55304  0.03753  0.84260  1.0000
  H   H1875     1.0  0.83483  0.48195  0.95967  1.0000
  C   C1061     1.0  0.55491  0.04794  0.86578  1.0000
  C   C1062     1.0  0.53076  0.05044  0.87872  1.0000
  C   C1063     1.0  0.59383  0.05828  0.83023  1.0000
  C   C1064     1.0  0.53551  0.05664  0.90344  1.0000
  H   H1876     1.0  0.83568  0.45590  0.97691  1.0000
  N   N59       1.0  0.88511  0.47268  0.96550  1.0000
  H   H1877     1.0  0.55234  0.12227  0.98797  1.0000
  H   H1878     1.0  0.56753  0.03820  0.87666  1.0000
  H   H1879     1.0  0.56332  0.06561  0.86454  1.0000
  H   H1880     1.0  0.54465  0.04249  0.91251  1.0000
  C   C1065     1.0  0.94293  0.43878  0.95001  1.0000
  H   H1881     1.0  0.59937  0.06528  0.84691  1.0000
  H   H1882     1.0  0.58364  0.07154  0.82093  1.0000
  H   H1883     1.0  0.76204  0.40337  0.77113  1.0000
  H   H1884     1.0  0.51942  0.03436  0.87883  1.0000
  H   H1885     1.0  0.51707  0.09676  0.95550  1.0000
  H   H1886     1.0  0.88217  0.35690  0.78137  1.0000
  C   C1066     1.0  0.54109  0.01369  0.84323  1.0000
  H   H1887     1.0  0.92948  0.30655  0.83277  1.0000
  H   H1888     1.0  0.67834  0.12515  0.97393  1.0000
  H   H1889     1.0  0.94733  0.42036  0.95150  1.0000
  C   C1067     1.0  0.60286  0.13352  0.98817  1.0000
  H   H1890     1.0  0.99697  0.37048  0.91313  1.0000
  C   C1068     1.0  0.50299  0.11931  0.85273  1.0000
  H   H1891     1.0  0.56504  0.18231  0.82420  1.0000
  H   H1892     1.0  0.88365  0.31733  0.76694  1.0000
  C   C1069     1.0  0.50908  0.11454  0.89946  1.0000
  H   H1893     1.0  0.52808  0.18985  0.96900  1.0000
  H   H1894     1.0  0.68351  0.29778  0.76521  1.0000
  H   H1895     1.0  0.87781  0.35990  0.81099  1.0000
  H   H1896     1.0  0.90965  0.47080  0.93683  1.0000
  H   H1897     1.0  0.62164  0.11025  0.79307  1.0000
  C   C1070     1.0  0.58609  0.20142  0.84844  1.0000
  C   C1071     1.0  0.53335  0.11888  0.98204  1.0000
  H   H1898     1.0  0.79005  0.20373  0.81366  1.0000
  C   C1072     1.0  0.60642  0.01116  0.89290  1.0000
  C   C1073     1.0  0.51155  0.04897  0.82438  1.0000
  C   C1074     1.0  0.79037  0.10613  0.78169  1.0000
  H   H1899     1.0  0.92153  0.38287  0.78465  1.0000
  C   C1075     1.0  0.86668  0.48632  0.87838  1.0000
  H   H1900     1.0  0.65073  0.18691  0.77706  1.0000
  H   H1901     1.0  0.60517  0.20347  0.85460  1.0000
  C   C1076     1.0  0.63646  0.09897  0.98746  1.0000
  H   H1902     1.0  0.50387  0.08484  0.81759  1.0000
  C   C1077     1.0  0.64884  0.01460  0.86703  1.0000
  H   H1903     1.0  0.54943  0.06874  0.95493  1.0000
  H   H1904     1.0  0.80235  0.09733  0.76975  1.0000
  H   H1905     1.0  0.67593  0.17683  0.98238  1.0000
  C   C1078     1.0  0.77336  0.17764  0.79178  1.0000
  H   H1906     1.0  0.54622  0.11004  0.94792  1.0000
  H   H1907     1.0  0.99158  0.40663  0.98911  1.0000
  H   H1908     1.0  0.80767  0.18749  0.77767  1.0000
  H   H1909     1.0  0.78306  0.20092  0.76389  1.0000
  H   H1910     1.0  0.87886  0.44661  0.99194  1.0000
  C   C1079     1.0  0.78912  0.18415  0.77073  1.0000
  N   N60       1.0  0.52112  0.14118  0.97689  1.0000
  H   H1911     1.0  0.56707  0.08495  0.97530  1.0000
  H   H1912     1.0  0.76915  0.38278  0.79308  1.0000
  H   H1913     1.0  0.52374  0.10942  0.99622  1.0000
  H   H1914     1.0  0.71382  0.33068  0.76037  1.0000
  C   C1080     1.0  0.50018  0.06779  0.80998  1.0000
  H   H1915     1.0  0.61112  0.18224  0.75271  1.0000
  H   H1916     1.0  0.51103  0.17858  0.94502  1.0000
  H   H1917     1.0  0.97322  0.33015  0.99650  1.0000
  C   C1081     1.0  0.74657  0.36877  0.76609  1.0000
  H   H1918     1.0  0.71359  0.22455  0.99315  1.0000
  C   C1082     1.0  0.97059  0.34840  0.00081  1.0000
  H   H1919     1.0  0.90395  0.46590  0.99726  1.0000
  H   H1920     1.0  0.76293  0.36356  0.75682  1.0000
  H   H1921     1.0  0.76700  0.11940  0.75604  1.0000
  H   H1922     1.0  0.71159  0.38321  0.75985  1.0000
  H   H1923     1.0  0.85109  0.48100  0.00129  1.0000
  H   H1924     1.0  0.55660  0.16916  0.00008  1.0000
  H   H1925     1.0  0.75058  0.15859  0.75369  1.0000
  H   H1926     1.0  0.99944  0.43336  0.91268  1.0000
  H   H1927     1.0  0.50056  0.12149  0.83466  1.0000
  H   H1928     1.0  0.53120  0.16689  0.75792  1.0000
  Fe  Fe121     1.0  0.58052  0.90056  0.11617  1.0000
  S   S241      1.0  0.61683  0.91417  0.12896  1.0000
  S   S242      1.0  0.54658  0.90793  0.13592  1.0000
  Fe  Fe122     1.0  0.60191  0.88496  0.07181  1.0000
  S   S243      1.0  0.63984  0.89680  0.08133  1.0000
  S   S244      1.0  0.58790  0.87360  0.03743  1.0000
  Fe  Fe123     1.0  0.63145  0.88112  0.11606  1.0000
  S   S245      1.0  0.66195  0.86479  0.13706  1.0000
  Fe  Fe124     1.0  0.62232  0.92843  0.09376  1.0000
  S   S246      1.0  0.63651  0.96358  0.08180  1.0000
  S   S247      1.0  0.59442  0.86667  0.10537  1.0000
  S   S248      1.0  0.58502  0.91748  0.08218  1.0000
  Fe  Fe125     1.0  0.85373  0.63653  0.12809  1.0000
  S   S249      1.0  0.88592  0.65720  0.11382  1.0000
  S   S250      1.0  0.82055  0.64928  0.14754  1.0000
  Fe  Fe126     1.0  0.86975  0.59236  0.10398  1.0000
  S   S251      1.0  0.90286  0.61020  0.08842  1.0000
  S   S252      1.0  0.85827  0.55716  0.09081  1.0000
  Fe  Fe127     1.0  0.90778  0.62621  0.12250  1.0000
  S   S253      1.0  0.94431  0.63029  0.14054  1.0000
  Fe  Fe128     1.0  0.87829  0.63916  0.08094  1.0000
  S   S254      1.0  0.87801  0.65842  0.04714  1.0000
  S   S255      1.0  0.87608  0.60634  0.13893  1.0000
  S   S256      1.0  0.84481  0.62060  0.09435  1.0000
  Fe  Fe129     1.0  0.71390  0.77058  0.22791  1.0000
  S   S257      1.0  0.75228  0.78496  0.22442  1.0000
  S   S258      1.0  0.68101  0.78049  0.20601  1.0000
  Fe  Fe130     1.0  0.76394  0.74821  0.22776  1.0000
  S   S259      1.0  0.79769  0.73568  0.20920  1.0000
  S   S260      1.0  0.72547  0.73359  0.22871  1.0000
  C   C1083     1.0  0.87952  0.64245  0.02205  1.0000
  C   C1084     1.0  0.87991  0.61848  0.02288  1.0000
  N   N61       1.0  0.57464  0.85679  0.18277  1.0000
  C   C1085     1.0  0.94695  0.64530  0.04389  1.0000
  H   H1929     1.0  0.88008  0.60948  0.03907  1.0000
  C   C1086     1.0  0.57528  0.82627  0.15111  1.0000
  H   H1930     1.0  0.53403  0.89902  0.05606  1.0000
  C   C1087     1.0  0.55886  0.87575  0.19074  1.0000
  C   C1088     1.0  0.51886  0.88824  0.20716  1.0000
  C   C1089     1.0  0.97380  0.69343  0.05123  1.0000
  C   C1090     1.0  0.81463  0.67392  0.16404  1.0000
  C   C1091     1.0  0.79048  0.67773  0.17063  1.0000
  C   C1092     1.0  0.78487  0.69650  0.18428  1.0000
  C   C1093     1.0  0.80341  0.71181  0.19161  1.0000
  C   C1094     1.0  0.82754  0.70808  0.18494  1.0000
  C   C1095     1.0  0.83314  0.68932  0.17127  1.0000
  H   H1931     1.0  0.77596  0.66604  0.16508  1.0000
  H   H1932     1.0  0.76620  0.69921  0.18899  1.0000
  H   H1933     1.0  0.84207  0.71975  0.19045  1.0000
  H   H1934     1.0  0.85179  0.68667  0.16646  1.0000
  C   C1096     1.0  0.86781  0.53052  0.10180  1.0000
  H   H1935     1.0  0.50877  0.80911  0.01887  1.0000
  H   H1936     1.0  0.88446  0.54404  0.13203  1.0000
  C   C1097     1.0  0.66688  0.84098  0.15594  1.0000
  C   C1098     1.0  0.65007  0.82243  0.15851  1.0000
  C   C1099     1.0  0.65475  0.80417  0.17382  1.0000
  C   C1100     1.0  0.67638  0.80399  0.18670  1.0000
  C   C1101     1.0  0.69331  0.82245  0.18400  1.0000
  C   C1102     1.0  0.68857  0.84076  0.16874  1.0000
  H   H1937     1.0  0.63370  0.82192  0.14839  1.0000
  H   H1938     1.0  0.64163  0.78991  0.17554  1.0000
  H   H1939     1.0  0.71003  0.82266  0.19371  1.0000
  H   H1940     1.0  0.70180  0.85491  0.16688  1.0000
  H   H1941     1.0  0.95636  0.61082  0.09712  1.0000
  H   H1942     1.0  0.73983  0.64071  0.22942  1.0000
  C   C1103     1.0  0.77500  0.61279  0.02305  1.0000
  H   H1943     1.0  0.64072  0.87641  0.03050  1.0000
  C   C1104     1.0  0.88012  0.52873  0.12249  1.0000
  C   C1105     1.0  0.61313  0.98625  0.11579  1.0000
  C   C1106     1.0  0.86219  0.51048  0.08962  1.0000
  H   H1944     1.0  0.95309  0.65586  0.02900  1.0000
  H   H1945     1.0  0.60867  0.96949  0.12318  1.0000
  H   H1946     1.0  0.91712  0.67889  0.07316  1.0000
  H   H1947     1.0  0.94448  0.64784  0.08021  1.0000
  H   H1948     1.0  0.69062  0.68431  0.22715  1.0000
  H   H1949     1.0  0.80568  0.54504  0.02996  1.0000
  C   C1107     1.0  0.51813  0.89468  0.12921  1.0000
  C   C1108     1.0  0.51641  0.87379  0.11792  1.0000
  H   H1950     1.0  0.99832  0.57927  0.13411  1.0000
  H   H1951     1.0  0.61164  0.85505  0.16981  1.0000
  N   N62       1.0  0.95610  0.68157  0.06767  1.0000
  H   H1952     1.0  0.53276  0.86586  0.11236  1.0000
  H   H1953     1.0  0.87853  0.58744  0.00352  1.0000
  C   C1109     1.0  0.81863  0.55357  0.04190  1.0000
  H   H1954     1.0  0.53549  0.86963  0.06536  1.0000
  H   H1955     1.0  0.55572  0.98411  0.06920  1.0000
  H   H1956     1.0  0.59343  0.83229  0.14481  1.0000
  H   H1957     1.0  0.82800  0.62299  0.22551  1.0000
  H   H1958     1.0  0.97457  0.64947  0.06993  1.0000
  C   C1110     1.0  0.59864  0.86794  0.17523  1.0000
  C   C1111     1.0  0.60167  0.82645  0.20284  1.0000
  H   H1959     1.0  0.56202  0.82643  0.20175  1.0000
  H   H1960     1.0  0.53240  0.87626  0.03557  1.0000
  H   H1961     1.0  0.69963  0.65765  0.21525  1.0000
  C   C1112     1.0  0.99758  0.68086  0.04594  1.0000
  H   H1962     1.0  0.61709  0.83816  0.20785  1.0000
  H   H1963     1.0  0.60933  0.87650  0.21041  1.0000
  C   C1113     1.0  0.95183  0.55851  0.12733  1.0000
  C   C1114     1.0  0.88621  0.50699  0.13113  1.0000
  C   C1115     1.0  0.97671  0.55236  0.11812  1.0000
  C   C1116     1.0  0.53169  0.86898  0.19536  1.0000
  C   C1117     1.0  0.56208  0.84585  0.16265  1.0000
  H   H1964     1.0  0.55867  0.98227  0.09958  1.0000
  H   H1965     1.0  0.57084  0.80355  0.12254  1.0000
  H   H1966     1.0  0.99382  0.63782  0.15524  1.0000
  C   C1118     1.0  0.80459  0.65422  0.04209  1.0000
  H   H1967     1.0  0.77817  0.86185  0.25134  1.0000
  H   H1968     1.0  0.55920  0.89023  0.17816  1.0000
  H   H1969     1.0  0.85799  0.83298  0.23165  1.0000
  C   C1119     1.0  0.81204  0.62881  0.04131  1.0000
  C   C1120     1.0  0.82608  0.80131  0.24573  1.0000
  H   H1970     1.0  0.54273  0.80950  0.13660  1.0000
  H   H1971     1.0  0.58603  0.79360  0.21526  1.0000
  H   H1972     1.0  0.51412  0.83918  0.02420  1.0000
  C   C1121     1.0  0.97229  0.62521  0.12719  1.0000
  C   C1122     1.0  0.56185  0.93329  0.01840  1.0000
  C   C1123     1.0  0.95533  0.62088  0.04097  1.0000
  C   C1124     1.0  0.98692  0.68355  0.10123  1.0000
  H   H1973     1.0  0.67953  0.95086  0.00592  1.0000
  N   N63       1.0  0.80249  0.61517  0.02138  1.0000
  C   C1125     1.0  0.70642  0.67469  0.22127  1.0000
  C   C1126     1.0  0.62689  0.98013  0.01970  1.0000
  H   H1974     1.0  0.55844  0.85926  0.14947  1.0000
  H   H1975     1.0  0.97490  0.67827  0.13624  1.0000
  C   C1127     1.0  0.61139  0.88375  0.19299  1.0000
  C   C1128     1.0  0.63855  0.88767  0.18825  1.0000
  H   H1976     1.0  0.60300  0.90081  0.19258  1.0000
  H   H1977     1.0  0.83194  0.86165  0.23683  1.0000
  H   H1978     1.0  0.64150  0.89546  0.17113  1.0000
  H   H1979     1.0  0.64677  0.89954  0.20090  1.0000
  H   H1980     1.0  0.64801  0.87120  0.18945  1.0000
  C   C1129     1.0  0.79592  0.64297  0.21872  1.0000
  H   H1981     1.0  0.97613  0.53359  0.11551  1.0000
  C   C1130     1.0  0.81504  0.79735  0.20576  1.0000
  C   C1131     1.0  0.81269  0.57874  0.04480  1.0000
  H   H1982     1.0  0.94748  0.68024  0.10341  1.0000
  C   C1132     1.0  0.85191  0.83865  0.19554  1.0000
  C   C1133     1.0  0.99552  0.61456  0.09433  1.0000
  C   C1134     1.0  0.80019  0.80694  0.18550  1.0000
  C   C1135     1.0  0.79446  0.78832  0.16815  1.0000
  H   H1983     1.0  0.94786  0.61387  0.02489  1.0000
  H   H1984     1.0  0.75316  0.66621  0.21693  1.0000
  H   H1985     1.0  0.80307  0.84210  0.21010  1.0000
  H   H1986     1.0  0.83021  0.78749  0.19880  1.0000
  H   H1987     1.0  0.80256  0.78414  0.21384  1.0000
  C   C1136     1.0  0.78420  0.63912  0.24247  1.0000
  H   H1988     1.0  0.83857  0.85240  0.19528  1.0000
  H   H1989     1.0  0.84918  0.82787  0.18037  1.0000
  H   H1990     1.0  0.80762  0.58106  0.00829  1.0000
  H   H1991     1.0  0.80581  0.62049  0.05752  1.0000
  H   H1992     1.0  0.78247  0.81306  0.19151  1.0000
  H   H1993     1.0  0.80987  0.82147  0.17667  1.0000
  H   H1994     1.0  0.81150  0.78156  0.16126  1.0000
  H   H1995     1.0  0.78343  0.77390  0.17605  1.0000
  H   H1996     1.0  0.78378  0.79557  0.15392  1.0000
  C   C1137     1.0  0.78055  0.68107  0.24994  1.0000
  C   C1138     1.0  0.58728  0.94298  0.02430  1.0000
  C   C1139     1.0  0.80989  0.66465  0.06524  1.0000
  C   C1140     1.0  0.99427  0.63109  0.13829  1.0000
  C   C1141     1.0  0.72441  0.67186  0.24081  1.0000
  H   H1997     1.0  0.92574  0.68388  0.04437  1.0000
  C   C1142     1.0  0.87731  0.85022  0.19355  1.0000
  H   H1998     1.0  0.89148  0.83715  0.19324  1.0000
  H   H1999     1.0  0.80440  0.68279  0.06519  1.0000
  H   H2000     1.0  0.52185  0.86602  0.17913  1.0000
  C   C1143     1.0  0.57745  0.83944  0.20193  1.0000
  H   H2001     1.0  0.57712  0.81155  0.16304  1.0000
  C   C1144     1.0  0.81282  0.62368  0.21309  1.0000
  H   H2002     1.0  0.94865  0.60958  0.05518  1.0000
  H   H2003     1.0  0.79957  0.65506  0.07881  1.0000
  H   H2004     1.0  0.81518  0.66475  0.02936  1.0000
  C   C1145     1.0  0.97309  0.61616  0.10547  1.0000
  H   H2005     1.0  0.89531  0.50568  0.14733  1.0000
  C   C1146     1.0  0.63177  0.87790  0.01423  1.0000
  H   H2006     1.0  0.58502  0.95884  0.03403  1.0000
  H   H2007     1.0  0.52722  0.89167  0.22396  1.0000
  H   H2008     1.0  0.72623  0.57654  0.00574  1.0000
  H   H2009     1.0  0.78511  0.68673  0.23231  1.0000
  H   H2010     1.0  0.61815  0.79811  0.22060  1.0000
  H   H2011     1.0  0.51995  0.90422  0.19654  1.0000
  H   H2012     1.0  0.59598  0.93014  0.03542  1.0000
  H   H2013     1.0  0.79429  0.57948  0.05237  1.0000
  H   H2014     1.0  0.93736  0.55396  0.11482  1.0000
  H   H2015     1.0  0.94771  0.54884  0.14335  1.0000
  H   H2016     1.0  0.81720  0.54440  0.05854  1.0000
  H   H2017     1.0  0.56306  0.91635  0.01025  1.0000
  C   C1147     1.0  0.93055  0.68855  0.06207  1.0000
  H   H2018     1.0  0.55102  0.93088  0.03417  1.0000
  N   N64       1.0  0.82453  0.81417  0.22329  1.0000
  H   H2019     1.0  0.59590  0.87871  0.15972  1.0000
  H   H2020     1.0  0.99345  0.66554  0.03552  1.0000
  C   C1148     1.0  0.95618  0.65574  0.06651  1.0000
  H   H2021     1.0  0.72997  0.68909  0.24683  1.0000
  H   H2022     1.0  0.97905  0.71092  0.05734  1.0000
  H   H2023     1.0  0.70295  0.93461  0.03720  1.0000
  C   C1149     1.0  0.92546  0.71444  0.06407  1.0000
  H   H2024     1.0  0.76901  0.61313  0.04108  1.0000
  H   H2025     1.0  0.99132  0.66535  0.09931  1.0000
  H   H2026     1.0  0.80698  0.65932  0.21786  1.0000
  C   C1150     1.0  0.98862  0.68889  0.12645  1.0000
  H   H2027     1.0  0.86208  0.80903  0.21442  1.0000
  C   C1151     1.0  0.96136  0.68856  0.09176  1.0000
  H   H2028     1.0  0.56631  0.88325  0.20663  1.0000
  H   H2029     1.0  0.82966  0.66443  0.06913  1.0000
  H   H2030     1.0  0.80258  0.60685  0.21301  1.0000
  C   C1152     1.0  0.80696  0.83318  0.22636  1.0000
  H   H2031     1.0  0.60642  0.81931  0.18632  1.0000
  H   H2032     1.0  0.88589  0.70960  0.06283  1.0000
  H   H2033     1.0  0.76661  0.62795  0.01487  1.0000
  H   H2034     1.0  0.54404  0.83804  0.16759  1.0000
  C   C1153     1.0  0.60631  0.87741  0.01307  1.0000
  H   H2035     1.0  0.55742  0.83097  0.11827  1.0000
  H   H2036     1.0  0.77387  0.62225  0.24240  1.0000
  H   H2037     1.0  0.78177  0.64328  0.20531  1.0000
  H   H2038     1.0  0.82601  0.58622  0.05710  1.0000
  H   H2039     1.0  0.72735  0.59578  0.02931  1.0000
  C   C1154     1.0  0.56061  0.81709  0.13092  1.0000
  H   H2040     1.0  0.95129  0.57719  0.13056  1.0000
  C   C1155     1.0  0.84976  0.82337  0.21721  1.0000
  H   H2041     1.0  0.97900  0.56106  0.10131  1.0000
  H   H2042     1.0  0.82077  0.62691  0.19597  1.0000
  H   H2043     1.0  0.67252  0.96439  0.03221  1.0000
  C   C1156     1.0  0.60964  0.99855  0.01044  1.0000
  C   C1157     1.0  0.51875  0.82503  0.01288  1.0000
  C   C1158     1.0  0.68330  0.92965  0.03562  1.0000
  H   H2044     1.0  0.87859  0.86059  0.17758  1.0000
  H   H2045     1.0  0.76615  0.57557  0.02413  1.0000
  C   C1159     1.0  0.81455  0.59235  0.02197  1.0000
  H   H2046     1.0  0.62185  0.97613  0.03762  1.0000
  H   H2047     1.0  0.63538  0.93873  0.03682  1.0000
  H   H2048     1.0  0.67559  0.92751  0.05295  1.0000
  H   H2049     1.0  0.88089  0.86186  0.20799  1.0000
  H   H2050     1.0  0.64529  0.98874  0.02072  1.0000
  H   H2051     1.0  0.78488  0.65573  0.03851  1.0000
  H   H2052     1.0  0.57608  0.84776  0.21870  1.0000
  C   C1160     1.0  0.52693  0.88128  0.05283  1.0000
  H   H2053     1.0  0.85262  0.51173  0.07364  1.0000
  H   H2054     1.0  0.92492  0.71940  0.08212  1.0000
  H   H2055     1.0  0.95984  0.70737  0.09361  1.0000
  H   H2056     1.0  0.83397  0.76662  0.23344  1.0000
  H   H2057     1.0  0.89723  0.73830  0.05573  1.0000
  H   H2058     1.0  0.78898  0.82574  0.23224  1.0000
  H   H2059     1.0  0.96487  0.69639  0.03451  1.0000
  C   C1161     1.0  0.67022  0.94835  0.02247  1.0000
  H   H2060     1.0  0.79207  0.87861  0.22833  1.0000
  C   C1162     1.0  0.55832  0.99432  0.08477  1.0000
  H   H2061     1.0  0.59651  0.81296  0.23729  1.0000
  C   C1163     1.0  0.90064  0.71977  0.05390  1.0000
  H   H2062     1.0  0.90001  0.71564  0.03560  1.0000
  H   H2063     1.0  0.92677  0.64440  0.04378  1.0000
  H   H2064     1.0  0.98861  0.58001  0.03557  1.0000
  H   H2065     1.0  0.93956  0.72533  0.05514  1.0000
  C   C1164     1.0  0.60037  0.80659  0.22010  1.0000
  H   H2066     1.0  0.53863  0.82224  0.01407  1.0000
  H   H2067     1.0  0.55233  0.94528  0.00690  1.0000
  C   C1165     1.0  0.99767  0.56011  0.13442  1.0000
  C   C1166     1.0  0.81508  0.85242  0.24292  1.0000
  H   H2068     1.0  0.98561  0.70735  0.12932  1.0000
  C   C1167     1.0  0.62654  0.98811  0.09566  1.0000
  H   H2069     1.0  0.97550  0.62087  0.04031  1.0000
  C   C1168     1.0  0.64284  0.94152  0.01942  1.0000
  H   H2070     1.0  0.71517  0.68453  0.20696  1.0000
  C   C1169     1.0  0.74682  0.65842  0.23337  1.0000
  H   H2071     1.0  0.52993  0.85319  0.20613  1.0000
  H   H2072     1.0  0.83756  0.55226  0.03557  1.0000
  H   H2073     1.0  0.99174  0.55489  0.15185  1.0000
  H   H2074     1.0  0.83232  0.62890  0.04186  1.0000
  H   H2075     1.0  0.64151  0.92437  0.01154  1.0000
  C   C1170     1.0  0.79547  0.87015  0.24498  1.0000
  H   H2076     1.0  0.59065  0.99158  0.00892  1.0000
  H   H2077     1.0  0.82597  0.70412  0.24052  1.0000
  H   H2078     1.0  0.86053  0.78345  0.24182  1.0000
  H   H2079     1.0  0.99589  0.60821  0.07725  1.0000
  H   H2080     1.0  0.68153  0.91301  0.02676  1.0000
  C   C1171     1.0  0.84114  0.77926  0.24585  1.0000
  N   N65       1.0  0.62787  0.95837  0.00629  1.0000
  C   C1172     1.0  0.87904  0.60602  0.00270  1.0000
  H   H2081     1.0  0.83428  0.59488  0.01824  1.0000
  C   C1173     1.0  0.73478  0.59274  0.01218  1.0000
  C   C1174     1.0  0.76242  0.59074  0.01322  1.0000
  N   N66       1.0  0.76772  0.65762  0.25010  1.0000
  C   C1175     1.0  0.60278  0.94756  0.00265  1.0000
  H   H2082     1.0  0.80739  0.79624  0.25192  1.0000
  Fe  Fe131     1.0  0.62892  0.57668  0.38698  1.0000
  S   S261      1.0  0.60141  0.59444  0.36509  1.0000
  S   S262      1.0  0.64601  0.54177  0.38624  1.0000
  Fe  Fe132     1.0  0.63324  0.61618  0.42034  1.0000
  S   S263      1.0  0.60638  0.63731  0.40126  1.0000
  S   S264      1.0  0.65363  0.62375  0.45311  1.0000
  Fe  Fe133     1.0  0.58407  0.60422  0.39792  1.0000
  S   S265      1.0  0.54532  0.59924  0.41124  1.0000
  Fe  Fe134     1.0  0.62578  0.62657  0.36954  1.0000
  S   S266      1.0  0.63054  0.65269  0.33987  1.0000
  S   S267      1.0  0.60980  0.58407  0.41920  1.0000
  S   S268      1.0  0.65437  0.60792  0.38907  1.0000
  Fe  Fe135     1.0  0.86411  0.89521  0.41504  1.0000
  S   S269      1.0  0.83812  0.90039  0.38610  1.0000
  S   S270      1.0  0.84929  0.88212  0.44892  1.0000
  Fe  Fe136     1.0  0.90836  0.91040  0.38648  1.0000
  S   S271      1.0  0.88593  0.91652  0.35504  1.0000
  S   S272      1.0  0.94787  0.92188  0.39205  1.0000
  Fe  Fe137     1.0  0.86020  0.93318  0.37885  1.0000
  S   S273      1.0  0.84101  0.96678  0.37400  1.0000
  Fe  Fe138     1.0  0.86547  0.88313  0.36461  1.0000
  S   S274      1.0  0.85683  0.85152  0.34269  1.0000
  S   S275      1.0  0.88370  0.92918  0.40954  1.0000
  S   S276      1.0  0.89034  0.87593  0.39437  1.0000
  H   H2083     1.0  0.83324  0.85058  0.40287  1.0000
  H   H2084     1.0  0.64836  0.52186  0.33240  1.0000
  S   S277      1.0  0.72188  0.70733  0.29288  1.0000
  C   C1176     1.0  0.81530  0.82006  0.38741  1.0000
  S   S278      1.0  0.76676  0.81868  0.28019  1.0000
  H   H2085     1.0  0.71242  0.56826  0.42404  1.0000
  C   C1177     1.0  0.97356  0.90659  0.38420  1.0000
  H   H2086     1.0  0.91696  0.98295  0.46056  1.0000
  H   H2087     1.0  0.89196  0.97584  0.36168  1.0000
  H   H2088     1.0  0.95361  0.87768  0.37009  1.0000
  C   C1178     1.0  0.60817  0.71106  0.36222  1.0000
  H   H2089     1.0  0.52698  0.55840  0.37466  1.0000
  H   H2090     1.0  0.76779  0.78940  0.32589  1.0000
  H   H2091     1.0  0.54078  0.61081  0.31034  1.0000
  C   C1179     1.0  0.83178  0.84296  0.32500  1.0000
  C   C1180     1.0  0.81378  0.85803  0.31836  1.0000
  C   C1181     1.0  0.79405  0.85024  0.30475  1.0000
  C   C1182     1.0  0.79201  0.82733  0.29752  1.0000
  C   C1183     1.0  0.81005  0.81229  0.30409  1.0000
  C   C1184     1.0  0.82982  0.82009  0.31764  1.0000
  H   H2092     1.0  0.81512  0.87572  0.32360  1.0000
  H   H2093     1.0  0.78028  0.86209  0.29972  1.0000
  H   H2094     1.0  0.80861  0.79460  0.29892  1.0000
  H   H2095     1.0  0.84361  0.80825  0.32265  1.0000
  H   H2096     1.0  0.52956  0.68326  0.41411  1.0000
  C   C1185     1.0  0.86768  0.88424  0.47345  1.0000
  C   C1186     1.0  0.89162  0.89324  0.47235  1.0000
  H   H2097     1.0  0.52777  0.52756  0.37166  1.0000
  H   H2098     1.0  0.81847  0.84550  0.26016  1.0000
  H   H2099     1.0  0.89917  0.89907  0.45623  1.0000
  C   C1187     1.0  0.51788  0.60554  0.39725  1.0000
  H   H2100     1.0  0.85617  0.99352  0.42782  1.0000
  H   H2101     1.0  0.53198  0.60414  0.36343  1.0000
  C   C1188     1.0  0.64135  0.68843  0.49992  1.0000
  C   C1189     1.0  0.62970  0.51573  0.38075  1.0000
  H   H2102     1.0  0.79228  0.64832  0.29181  1.0000
  C   C1190     1.0  0.60796  0.51524  0.36839  1.0000
  H   H2103     1.0  0.94011  0.83584  0.47358  1.0000
  H   H2104     1.0  0.60023  0.53116  0.36279  1.0000
  C   C1191     1.0  0.65628  0.66789  0.32734  1.0000
  C   C1192     1.0  0.68029  0.66390  0.33382  1.0000
  C   C1193     1.0  0.69998  0.67615  0.32311  1.0000
  C   C1194     1.0  0.69607  0.69270  0.30589  1.0000
  C   C1195     1.0  0.67205  0.69676  0.29947  1.0000
  C   C1196     1.0  0.65235  0.68440  0.31008  1.0000
  H   H2105     1.0  0.68371  0.65131  0.34702  1.0000
  H   H2106     1.0  0.71841  0.67285  0.32832  1.0000
  H   H2107     1.0  0.66863  0.70933  0.28625  1.0000
  H   H2108     1.0  0.63393  0.68765  0.30482  1.0000
  H   H2109     1.0  0.64766  0.67062  0.50118  1.0000
  C   C1197     1.0  0.63728  0.62586  0.47868  1.0000
  C   C1198     1.0  0.61286  0.63169  0.47860  1.0000
  H   H2110     1.0  0.86807  0.97744  0.48892  1.0000
  H   H2111     1.0  0.60356  0.63444  0.46266  1.0000
  C   C1199     1.0  0.99250  0.87281  0.36976  1.0000
  C   C1200     1.0  0.84051  0.76740  0.26915  1.0000
  H   H2112     1.0  0.76772  0.81008  0.44910  1.0000
  H   H2113     1.0  0.77329  0.76183  0.33873  1.0000
  H   H2114     1.0  0.89730  0.98741  0.49735  1.0000
  H   H2115     1.0  0.75824  0.81742  0.36360  1.0000
  H   H2116     1.0  0.92225  0.83709  0.40135  1.0000
  H   H2117     1.0  0.54040  0.65635  0.42495  1.0000
  C   C1201     1.0  0.75724  0.65167  0.27326  1.0000
  C   C1202     1.0  0.78466  0.79081  0.35946  1.0000
  H   H2118     1.0  0.78363  0.78029  0.37521  1.0000
  H   H2119     1.0  0.80355  0.79008  0.35285  1.0000
  S   S279      1.0  0.76703  0.75007  0.26577  1.0000
  C   C1203     1.0  0.61140  0.56940  0.48022  1.0000
  H   H2120     1.0  0.94170  0.86592  0.47819  1.0000
  C   C1204     1.0  0.96525  0.90167  0.45742  1.0000
  C   C1205     1.0  0.79228  0.85377  0.37771  1.0000
  C   C1206     1.0  0.65355  0.51841  0.47186  1.0000
  C   C1207     1.0  0.58361  0.56972  0.47934  1.0000
  H   H2121     1.0  0.55224  0.64477  0.38728  1.0000
  H   H2122     1.0  0.78432  0.82514  0.34709  1.0000
  C   C1208     1.0  0.90375  0.96856  0.45688  1.0000
  C   C1209     1.0  0.52534  0.54160  0.38383  1.0000
  C   C1210     1.0  0.54876  0.66316  0.38952  1.0000
  H   H2123     1.0  0.51403  0.65641  0.40682  1.0000
  H   H2124     1.0  0.75548  0.83143  0.40038  1.0000
  H   H2125     1.0  0.92418  0.90194  0.49127  1.0000
  C   C1211     1.0  0.76278  0.63951  0.31441  1.0000
  C   C1212     1.0  0.57738  0.68054  0.34932  1.0000
  H   H2126     1.0  0.62389  0.50572  0.44954  1.0000
  C   C1213     1.0  0.95536  0.99949  0.38306  1.0000
  H   H2127     1.0  0.58731  0.68032  0.33292  1.0000
  H   H2128     1.0  0.73875  0.80839  0.43434  1.0000
  H   H2129     1.0  0.66805  0.61777  0.49968  1.0000
  H   H2130     1.0  0.74440  0.63080  0.31432  1.0000
  H   H2131     1.0  0.57140  0.70764  0.37430  1.0000
  H   H2132     1.0  0.65122  0.51471  0.43462  1.0000
  H   H2133     1.0  0.76116  0.65734  0.32046  1.0000
  H   H2134     1.0  0.67979  0.55040  0.49410  1.0000
  C   C1214     1.0  0.65974  0.51140  0.32134  1.0000
  C   C1215     1.0  0.97204  0.92727  0.45468  1.0000
  C   C1216     1.0  0.88276  0.99192  0.36123  1.0000
  H   H2135     1.0  0.65570  0.51594  0.30341  1.0000
  C   C1217     1.0  0.95155  0.84999  0.48088  1.0000
  H   H2136     1.0  0.95343  0.81967  0.44102  1.0000
  C   C1218     1.0  0.77402  0.82532  0.40399  1.0000
  C   C1219     1.0  0.92477  0.82727  0.41743  1.0000
  H   H2137     1.0  0.69674  0.55784  0.46182  1.0000
  H   H2138     1.0  0.65841  0.57217  0.49456  1.0000
  C   C1220     1.0  0.51618  0.60721  0.37365  1.0000
  H   H2139     1.0  0.75722  0.89854  0.35696  1.0000
  H   H2140     1.0  0.81597  0.66915  0.26291  1.0000
  H   H2141     1.0  0.68787  0.53640  0.44153  1.0000
  H   H2142     1.0  0.65733  0.70031  0.49672  1.0000
  H   H2143     1.0  0.96323  0.82596  0.41247  1.0000
  H   H2144     1.0  0.91257  0.95677  0.44511  1.0000
  H   H2145     1.0  0.83953  0.95705  0.44380  1.0000
  C   C1221     1.0  0.65750  0.55693  0.45301  1.0000
  C   C1222     1.0  0.68475  0.55411  0.44715  1.0000
  H   H2146     1.0  0.78108  0.83645  0.41786  1.0000
  H   H2147     1.0  0.81939  0.96803  0.42253  1.0000
  H   H2148     1.0  0.86508  0.83080  0.42331  1.0000
  H   H2149     1.0  0.85313  0.80322  0.41416  1.0000
  C   C1223     1.0  0.69295  0.57065  0.42800  1.0000
  H   H2150     1.0  0.80731  0.85735  0.36535  1.0000
  H   H2151     1.0  0.55382  0.65159  0.30233  1.0000
  C   C1224     1.0  0.53210  0.66498  0.41005  1.0000
  H   H2152     1.0  0.64543  0.50853  0.48648  1.0000
  Fe  Fe139     1.0  0.75304  0.78559  0.26265  1.0000
  H   H2153     1.0  0.67917  0.51581  0.32509  1.0000
  H   H2154     1.0  0.58199  0.63998  0.49892  1.0000
  H   H2155     1.0  0.95308  0.99460  0.36506  1.0000
  H   H2156     1.0  0.65519  0.57555  0.45542  1.0000
  C   C1225     1.0  0.75673  0.80049  0.43628  1.0000
  H   H2157     1.0  0.95799  0.93747  0.46291  1.0000
  H   H2158     1.0  0.61712  0.57456  0.49748  1.0000
  C   C1226     1.0  0.97721  0.85118  0.46971  1.0000
  H   H2159     1.0  0.92123  0.80876  0.41403  1.0000
  H   H2160     1.0  0.96894  0.98832  0.39119  1.0000
  H   H2161     1.0  0.53785  0.70427  0.33428  1.0000
  H   H2162     1.0  0.98995  0.86078  0.48118  1.0000
  H   H2163     1.0  0.81201  0.97043  0.45228  1.0000
  C   C1227     1.0  0.64913  0.62225  0.49952  1.0000
  H   H2164     1.0  0.61872  0.70957  0.34629  1.0000
  H   H2165     1.0  0.69085  0.58875  0.43301  1.0000
  H   H2166     1.0  0.61857  0.58260  0.46804  1.0000
  H   H2167     1.0  0.68210  0.56734  0.41245  1.0000
  H   H2168     1.0  0.95754  0.86652  0.41565  1.0000
  N   N67       1.0  0.97904  0.86127  0.44593  1.0000
  H   H2169     1.0  0.61561  0.69918  0.37522  1.0000
  H   H2170     1.0  0.77638  0.62169  0.28586  1.0000
  H   H2171     1.0  0.56626  0.67226  0.39365  1.0000
  C   C1228     1.0  0.85500  0.82177  0.40955  1.0000
  H   H2172     1.0  0.56972  0.60625  0.32411  1.0000
  H   H2173     1.0  0.79750  0.86361  0.39308  1.0000
  H   H2174     1.0  0.84836  0.77902  0.28222  1.0000
  C   C1229     1.0  0.98457  0.88685  0.44641  1.0000
  H   H2175     1.0  0.56874  0.61341  0.29434  1.0000
  C   C1230     1.0  0.95078  0.83117  0.42612  1.0000
  C   C1231     1.0  0.56029  0.61657  0.31101  1.0000
  C   C1232     1.0  0.76924  0.86504  0.36788  1.0000
  H   H2176     1.0  0.53295  0.69169  0.37145  1.0000
  C   C1233     1.0  0.64409  0.50607  0.45027  1.0000
  H   H2177     1.0  0.93995  0.86330  0.44028  1.0000
  C   C1234     1.0  0.77844  0.81626  0.36314  1.0000
  C   C1235     1.0  0.62057  0.54540  0.47425  1.0000
  H   H2178     1.0  0.57452  0.71796  0.34548  1.0000
  S   S280      1.0  0.71370  0.77300  0.26617  1.0000
  H   H2179     1.0  0.82035  0.82999  0.42311  1.0000
  H   H2180     1.0  0.82623  0.82227  0.37158  1.0000
  H   H2181     1.0  0.94702  0.89881  0.44966  1.0000
  H   H2182     1.0  0.75015  0.66733  0.28111  1.0000
  C   C1236     1.0  0.55149  0.64706  0.33966  1.0000
  H   H2183     1.0  0.98347  0.83322  0.47026  1.0000
  H   H2184     1.0  0.78918  0.89451  0.35250  1.0000
  C   C1237     1.0  0.76751  0.77949  0.34214  1.0000
  Fe  Fe140     1.0  0.72768  0.73705  0.26676  1.0000
  H   H2185     1.0  0.88279  0.94166  0.47399  1.0000
  H   H2186     1.0  0.91137  0.83264  0.43017  1.0000
  H   H2187     1.0  0.56188  0.63695  0.35230  1.0000
  C   C1238     1.0  0.85791  0.99218  0.36629  1.0000
  H   H2188     1.0  0.62869  0.68954  0.48529  1.0000
  H   H2189     1.0  0.53269  0.63928  0.33998  1.0000
  H   H2190     1.0  0.54021  0.54109  0.39659  1.0000
  C   C1239     1.0  0.88541  0.97154  0.49631  1.0000
  C   C1240     1.0  0.82999  0.83201  0.40667  1.0000
  C   C1241     1.0  0.90579  0.89475  0.49217  1.0000
  H   H2191     1.0  0.58731  0.66873  0.36077  1.0000
  C   C1242     1.0  0.95629  0.85672  0.43201  1.0000
  H   H2192     1.0  0.75861  0.79023  0.40181  1.0000
  H   H2193     1.0  0.58254  0.64704  0.31602  1.0000
  C   C1243     1.0  0.85806  0.87685  0.49452  1.0000
  H   H2194     1.0  0.64666  0.55272  0.43758  1.0000
  C   C1244     1.0  0.97144  0.88502  0.37419  1.0000
  H   H2195     1.0  0.51884  0.66450  0.36616  1.0000
  C   C1245     1.0  0.53699  0.67353  0.36794  1.0000
  H   H2196     1.0  0.78761  0.79216  0.41652  1.0000
  H   H2197     1.0  0.86572  0.82399  0.39365  1.0000
  H   H2198     1.0  0.83956  0.86980  0.49549  1.0000
  C   C1246     1.0  0.58112  0.70532  0.35813  1.0000
  H   H2199     1.0  0.57687  0.56576  0.46203  1.0000
  H   H2200     1.0  0.75365  0.78252  0.44255  1.0000
  C   C1247     1.0  0.80384  0.68369  0.26464  1.0000
  H   H2201     1.0  0.76413  0.85786  0.35117  1.0000
  H   H2202     1.0  0.74120  0.63944  0.27171  1.0000
  H   H2203     1.0  0.96436  0.89784  0.47587  1.0000
  H   H2204     1.0  0.79857  0.68521  0.28269  1.0000
  H   H2205     1.0  0.61238  0.54104  0.45752  1.0000
  H   H2206     1.0  0.88756  0.97534  0.44827  1.0000
  C   C1248     1.0  0.77373  0.89092  0.36434  1.0000
  H   H2207     1.0  0.75345  0.86247  0.37943  1.0000
  C   C1249     1.0  0.77401  0.63981  0.29072  1.0000
  N   N68       1.0  0.55137  0.67193  0.34629  1.0000
  C   C1250     1.0  0.53960  0.68643  0.32825  1.0000
  C   C1251     1.0  0.56283  0.64214  0.31626  1.0000
  N   N69       1.0  0.78993  0.82832  0.38326  1.0000
  H   H2208     1.0  0.74854  0.77834  0.34869  1.0000
  H   H2209     1.0  0.55143  0.68824  0.31297  1.0000
  H   H2210     1.0  0.83479  0.70739  0.26972  1.0000
  C   C1252     1.0  0.77013  0.80058  0.41360  1.0000
  H   H2211     1.0  0.81512  0.80139  0.39125  1.0000
  H   H2212     1.0  0.77788  0.89933  0.38072  1.0000
  H   H2213     1.0  0.77455  0.63014  0.32644  1.0000
  H   H2214     1.0  0.61064  0.72892  0.36830  1.0000
  H   H2215     1.0  0.67354  0.51616  0.47328  1.0000
  N   N70       1.0  0.64787  0.54343  0.47339  1.0000
  H   H2216     1.0  0.93759  0.99632  0.39176  1.0000
  C   C1253     1.0  0.82705  0.97108  0.43971  1.0000
  C   C1254     1.0  0.89636  0.95544  0.47859  1.0000
  C   C1255     1.0  0.60067  0.63477  0.49917  1.0000
  C   C1256     1.0  0.65990  0.55315  0.49432  1.0000
  H   H2217     1.0  0.91297  0.94729  0.48492  1.0000
  H   H2218     1.0  0.61224  0.53259  0.48645  1.0000
  C   C1257     1.0  0.84110  0.99424  0.44027  1.0000
  H   H2219     1.0  0.99078  0.85607  0.36217  1.0000
  H   H2220     1.0  0.51377  0.66057  0.31355  1.0000
  H   H2221     1.0  0.83436  0.81247  0.25896  1.0000
  H   H2222     1.0  0.80793  0.72078  0.25923  1.0000
  C   C1258     1.0  0.51369  0.67803  0.32070  1.0000
  C   C1259     1.0  0.81898  0.70535  0.25809  1.0000
  C   C1260     1.0  0.50367  0.69400  0.30242  1.0000
  H   H2223     1.0  0.85139  0.75176  0.26876  1.0000
  H   H2224     1.0  0.51554  0.69445  0.28719  1.0000
  H   H2225     1.0  0.84866  0.99632  0.45753  1.0000
  H   H2226     1.0  0.97285  0.93232  0.43644  1.0000
  H   H2227     1.0  0.82151  0.76215  0.27387  1.0000
  H   H2228     1.0  0.79937  0.63656  0.25451  1.0000
  H   H2229     1.0  0.57770  0.58712  0.48368  1.0000
  H   H2230     1.0  0.57539  0.55710  0.49171  1.0000
  H   H2231     1.0  0.80151  0.88350  0.25720  1.0000
  H   H2232     1.0  0.98780  0.89354  0.42887  1.0000
  H   H2233     1.0  0.50080  0.67765  0.33516  1.0000
  H   H2234     1.0  0.98998  0.93141  0.46265  1.0000
  H   H2235     1.0  0.99735  0.83152  0.43399  1.0000
  H   H2236     1.0  0.76816  0.69431  0.25593  1.0000
  H   H2237     1.0  0.71440  0.66272  0.25484  1.0000
  H   H2238     1.0  0.50234  0.71168  0.30891  1.0000
  H   H2239     1.0  0.50010  0.52166  0.40437  1.0000
  C   C1261     1.0  0.50065  0.53868  0.39569  1.0000
  H   H2240     1.0  0.49998  0.55241  0.40845  1.0000
  C   C1262     1.0  0.99680  0.91601  0.38929  1.0000
  H   H2241     1.0  0.99861  0.93275  0.39689  1.0000
  Fe  Fe141     1.0  0.62478  0.64666  0.62743  1.0000
  S   S281      1.0  0.58976  0.64925  0.60744  1.0000
  S   S282      1.0  0.63890  0.68087  0.64263  1.0000
  Fe  Fe142     1.0  0.62701  0.59549  0.61692  1.0000
  S   S283      1.0  0.59314  0.59486  0.59597  1.0000
  S   S284      1.0  0.64459  0.56205  0.62613  1.0000
  Fe  Fe143     1.0  0.60766  0.62826  0.58111  1.0000
  S   S285      1.0  0.59700  0.63795  0.54512  1.0000
  Fe  Fe144     1.0  0.57765  0.61568  0.62350  1.0000
  S   S286      1.0  0.54032  0.60210  0.63485  1.0000
  S   S287      1.0  0.64350  0.62754  0.59976  1.0000
  S   S288      1.0  0.61085  0.61454  0.64576  1.0000
  Fe  Fe145     1.0  0.93096  0.90217  0.61823  1.0000
  S   S289      1.0  0.89640  0.90431  0.63851  1.0000
  S   S290      1.0  0.96802  0.91499  0.63110  1.0000
  Fe  Fe146     1.0  0.90331  0.89080  0.57424  1.0000
  S   S291      1.0  0.86658  0.89184  0.59105  1.0000
  S   S292      1.0  0.91528  0.88920  0.53734  1.0000
  Fe  Fe147     1.0  0.88206  0.92357  0.60815  1.0000
  S   S293      1.0  0.86099  0.95618  0.61115  1.0000
  Fe  Fe148     1.0  0.88343  0.87233  0.62035  1.0000
  S   S294      1.0  0.86672  0.83928  0.63718  1.0000
  S   S295      1.0  0.91728  0.92373  0.58956  1.0000
  S   S296      1.0  0.91944  0.86901  0.60194  1.0000
  Fe  Fe149     1.0  0.73868  0.73908  0.73267  1.0000
  S   S297      1.0  0.77876  0.74846  0.72851  1.0000
  S   S298      1.0  0.72189  0.70684  0.71577  1.0000
  Fe  Fe150     1.0  0.76859  0.78520  0.73181  1.0000
  S   S299      1.0  0.78349  0.81711  0.71191  1.0000
  S   S300      1.0  0.72806  0.77604  0.73334  1.0000
  C   C1263     1.0  0.97861  0.96677  0.58664  1.0000
  H   H2242     1.0  0.91060  0.95665  0.63771  1.0000
  H   H2243     1.0  0.86476  0.87255  0.53051  1.0000
  H   H2244     1.0  0.70830  0.61965  0.72264  1.0000
  H   H2245     1.0  0.97240  0.94841  0.58813  1.0000
  C   C1264     1.0  0.50149  0.53851  0.65367  1.0000
  H   H2246     1.0  0.96208  0.87353  0.56175  1.0000
  H   H2247     1.0  0.97724  0.86809  0.61774  1.0000
  C   C1265     1.0  0.92704  0.96488  0.52894  1.0000
  C   C1266     1.0  0.84345  0.83363  0.65798  1.0000
  C   C1267     1.0  0.83619  0.81066  0.66323  1.0000
  C   C1268     1.0  0.81804  0.80522  0.67967  1.0000
  C   C1269     1.0  0.80678  0.82274  0.69114  1.0000
  C   C1270     1.0  0.81406  0.84569  0.68590  1.0000
  C   C1271     1.0  0.83225  0.85113  0.66951  1.0000
  H   H2248     1.0  0.84450  0.79696  0.65429  1.0000
  H   H2249     1.0  0.81242  0.78751  0.68312  1.0000
  H   H2250     1.0  0.80547  0.85944  0.69454  1.0000
  H   H2251     1.0  0.83751  0.86888  0.66573  1.0000
  H   H2252     1.0  0.82398  0.90786  0.55393  1.0000
  H   H2253     1.0  0.59421  0.53567  0.64859  1.0000
  C   C1272     1.0  0.51434  0.61818  0.62946  1.0000
  C   C1273     1.0  0.51629  0.64109  0.62193  1.0000
  H   H2254     1.0  0.74562  0.64375  0.72533  1.0000
  H   H2255     1.0  0.53407  0.64933  0.61928  1.0000
  H   H2256     1.0  0.94797  0.95903  0.62228  1.0000
  C   C1274     1.0  0.63508  0.53656  0.61230  1.0000
  C   C1275     1.0  0.62520  0.53721  0.59046  1.0000
  H   H2257     1.0  0.94186  0.98554  0.60931  1.0000
  H   H2258     1.0  0.62286  0.55356  0.58196  1.0000
  H   H2259     1.0  0.83452  0.97816  0.53321  1.0000
  C   C1276     1.0  0.61257  0.63155  0.51999  1.0000
  C   C1277     1.0  0.63674  0.62486  0.52015  1.0000
  H   H2260     1.0  0.79752  0.67916  0.69758  1.0000
  H   H2261     1.0  0.64611  0.62244  0.53610  1.0000
  H   H2262     1.0  0.61556  0.78626  0.72436  1.0000
  C   C1278     1.0  0.66181  0.68762  0.66331  1.0000
  C   C1279     1.0  0.66623  0.71074  0.66931  1.0000
  C   C1280     1.0  0.68441  0.71702  0.68532  1.0000
  C   C1281     1.0  0.69850  0.70021  0.69554  1.0000
  C   C1282     1.0  0.69402  0.67710  0.68959  1.0000
  C   C1283     1.0  0.67586  0.67083  0.67360  1.0000
  H   H2263     1.0  0.65560  0.72391  0.66142  1.0000
  H   H2264     1.0  0.68763  0.73485  0.68959  1.0000
  H   H2265     1.0  0.70475  0.66391  0.69734  1.0000
  H   H2266     1.0  0.67278  0.65301  0.66920  1.0000
  H   H2267     1.0  0.71079  0.68474  0.60200  1.0000
  N   N71       1.0  0.54375  0.52484  0.64093  1.0000
  H   H2268     1.0  0.57297  0.54538  0.56694  1.0000
  C   C1284     1.0  0.55552  0.54159  0.65726  1.0000
  H   H2269     1.0  0.61234  0.56797  0.66893  1.0000
  C   C1285     1.0  0.54095  0.53566  0.61761  1.0000
  C   C1286     1.0  0.56230  0.53363  0.60072  1.0000
  H   H2270     1.0  0.92414  0.95262  0.66514  1.0000
  C   C1287     1.0  0.58218  0.54987  0.65237  1.0000
  H   H2271     1.0  0.70532  0.82242  0.71778  1.0000
  C   C1288     1.0  0.55679  0.54569  0.57817  1.0000
  C   C1289     1.0  0.82847  0.91723  0.53782  1.0000
  H   H2272     1.0  0.51188  0.60188  0.53871  1.0000
  H   H2273     1.0  0.84919  0.99899  0.51425  1.0000
  H   H2274     1.0  0.54521  0.55760  0.65791  1.0000
  H   H2275     1.0  0.55482  0.53404  0.67475  1.0000
  H   H2276     1.0  0.96578  0.97618  0.57566  1.0000
  H   H2277     1.0  0.53756  0.55430  0.61908  1.0000
  H   H2278     1.0  0.63067  0.54346  0.51910  1.0000
  H   H2279     1.0  0.57933  0.54142  0.60757  1.0000
  C   C1290     1.0  0.66456  0.73697  0.54424  1.0000
  H   H2280     1.0  0.61662  0.74326  0.67840  1.0000
  H   H2281     1.0  0.82261  0.83777  0.74383  1.0000
  H   H2282     1.0  0.58271  0.57754  0.67678  1.0000
  C   C1291     1.0  0.91372  0.96460  0.65447  1.0000
  H   H2283     1.0  0.82484  0.71898  0.73410  1.0000
  H   H2284     1.0  0.81694  0.79499  0.74219  1.0000
  H   H2285     1.0  0.84918  0.94390  0.55414  1.0000
  H   H2286     1.0  0.86640  0.91960  0.54666  1.0000
  H   H2287     1.0  0.78717  0.65137  0.72896  1.0000
  C   C1292     1.0  0.59324  0.56223  0.67280  1.0000
  C   C1293     1.0  0.83580  0.72101  0.71837  1.0000
  H   H2288     1.0  0.97257  0.89546  0.58094  1.0000
  H   H2289     1.0  0.59351  0.55053  0.68785  1.0000
  H   H2290     1.0  0.89438  0.80608  0.66652  1.0000
  H   H2291     1.0  0.62346  0.71302  0.52008  1.0000
  H   H2292     1.0  0.57655  0.50677  0.63326  1.0000
  H   H2293     1.0  0.67724  0.76668  0.56358  1.0000
  C   C1294     1.0  0.95457  0.97731  0.62124  1.0000
  N   N72       1.0  0.63782  0.70393  0.56354  1.0000
  C   C1295     1.0  0.64401  0.69018  0.54305  1.0000
  C   C1296     1.0  0.65137  0.69485  0.58389  1.0000
  C   C1297     1.0  0.61091  0.69979  0.56811  1.0000
  C   C1298     1.0  0.64309  0.72947  0.56020  1.0000
  H   H2294     1.0  0.64566  0.77062  0.69660  1.0000
  H   H2295     1.0  0.95087  0.93694  0.52141  1.0000
  C   C1299     1.0  0.60108  0.71038  0.59007  1.0000
  C   C1300     1.0  0.67953  0.69560  0.58252  1.0000
  N   N73       1.0  0.64801  0.78013  0.74394  1.0000
  H   H2296     1.0  0.68240  0.55637  0.53600  1.0000
  C   C1301     1.0  0.51864  0.51831  0.65006  1.0000
  C   C1302     1.0  0.57322  0.70964  0.59037  1.0000
  H   H2297     1.0  0.64189  0.67142  0.54709  1.0000
  H   H2298     1.0  0.66344  0.69284  0.53835  1.0000
  H   H2299     1.0  0.64710  0.70472  0.59924  1.0000
  H   H2300     1.0  0.64511  0.67677  0.58771  1.0000
  H   H2301     1.0  0.60624  0.68100  0.56897  1.0000
  H   H2302     1.0  0.59990  0.70664  0.55386  1.0000
  H   H2303     1.0  0.62685  0.73800  0.55316  1.0000
  H   H2304     1.0  0.64640  0.73766  0.57690  1.0000
  C   C1303     1.0  0.94895  0.95037  0.53434  1.0000
  C   C1304     1.0  0.63818  0.51518  0.62309  1.0000
  H   H2305     1.0  0.84428  0.95038  0.50942  1.0000
  C   C1305     1.0  0.99453  0.87723  0.62029  1.0000
  H   H2306     1.0  0.60759  0.72853  0.59179  1.0000
  H   H2307     1.0  0.60714  0.70051  0.60518  1.0000
  H   H2308     1.0  0.68604  0.68607  0.56779  1.0000
  H   H2309     1.0  0.68669  0.71364  0.58166  1.0000
  H   H2310     1.0  0.68125  0.72757  0.54786  1.0000
  C   C1306     1.0  0.87908  0.78481  0.70678  1.0000
  H   H2311     1.0  0.65954  0.73375  0.52633  1.0000
  H   H2312     1.0  0.93445  0.84389  0.51366  1.0000
  H   H2313     1.0  0.68369  0.66673  0.60626  1.0000
  C   C1307     1.0  0.99504  0.90024  0.62669  1.0000
  H   H2314     1.0  0.53572  0.61996  0.58250  1.0000
  C   C1308     1.0  0.61905  0.51664  0.57932  1.0000
  H   H2315     1.0  0.90005  0.94357  0.54644  1.0000
  H   H2316     1.0  0.56675  0.71610  0.60679  1.0000
  H   H2317     1.0  0.56607  0.72062  0.57650  1.0000
  H   H2318     1.0  0.56582  0.69176  0.58840  1.0000
  H   H2319     1.0  0.83398  0.76739  0.71416  1.0000
  H   H2320     1.0  0.86751  0.73910  0.70567  1.0000
  H   H2321     1.0  0.92047  0.79259  0.67900  1.0000
  C   C1309     1.0  0.73566  0.63947  0.74128  1.0000
  H   H2322     1.0  0.65584  0.52469  0.51926  1.0000
  H   H2323     1.0  0.86518  0.78506  0.69301  1.0000
  C   C1310     1.0  0.69440  0.83154  0.73035  1.0000
  C   C1311     1.0  0.90316  0.94972  0.52870  1.0000
  H   H2324     1.0  0.96384  0.90316  0.55245  1.0000
  H   H2325     1.0  0.96292  0.86012  0.51481  1.0000
  C   C1312     1.0  0.78349  0.68300  0.71033  1.0000
  C   C1313     1.0  0.62829  0.69476  0.52163  1.0000
  H   H2326     1.0  0.65487  0.77290  0.54194  1.0000
  H   H2327     1.0  0.67493  0.75640  0.73300  1.0000
  C   C1314     1.0  0.67094  0.76263  0.54615  1.0000
  N   N74       1.0  0.95342  0.98807  0.64420  1.0000
  H   H2328     1.0  0.89650  0.76094  0.74083  1.0000
  H   H2329     1.0  0.89108  0.97315  0.68319  1.0000
  H   H2330     1.0  0.82388  0.72647  0.70420  1.0000
  C   C1315     1.0  0.65071  0.54286  0.51735  1.0000
  H   H2331     1.0  0.80748  0.67433  0.73779  1.0000
  H   H2332     1.0  0.99287  0.96739  0.62039  1.0000
  C   C1316     1.0  0.86043  0.94314  0.51793  1.0000
  H   H2333     1.0  0.65675  0.54758  0.55334  1.0000
  H   H2334     1.0  0.92597  0.97824  0.54205  1.0000
  H   H2335     1.0  0.97720  0.94636  0.69836  1.0000
  C   C1317     1.0  0.89569  0.98660  0.59249  1.0000
  C   C1318     1.0  0.97279  0.89004  0.56303  1.0000
  N   N75       1.0  0.86675  0.78160  0.72961  1.0000
  H   H2336     1.0  0.54988  0.60406  0.56064  1.0000
  H   H2337     1.0  0.60101  0.76763  0.68869  1.0000
  H   H2338     1.0  0.68585  0.76764  0.53414  1.0000
  H   H2339     1.0  0.91011  0.80802  0.71657  1.0000
  H   H2340     1.0  0.89066  0.77010  0.70318  1.0000
  C   C1319     1.0  0.55825  0.50336  0.64082  1.0000
  H   H2341     1.0  0.52005  0.50880  0.66656  1.0000
  H   H2342     1.0  0.68211  0.84331  0.72130  1.0000
  H   H2343     1.0  0.86910  0.81622  0.74248  1.0000
  H   H2344     1.0  0.90481  0.97171  0.58679  1.0000
  C   C1320     1.0  0.85226  0.93138  0.54065  1.0000
  C   C1321     1.0  0.87465  0.97986  0.53557  1.0000
  H   H2345     1.0  0.70715  0.84198  0.74101  1.0000
  C   C1322     1.0  0.87226  0.87844  0.51439  1.0000
  C   C1323     1.0  0.66167  0.79934  0.73118  1.0000
  H   H2346     1.0  0.73267  0.60293  0.73379  1.0000
  C   C1324     1.0  0.78843  0.67001  0.73248  1.0000
  H   H2347     1.0  0.83011  0.90447  0.52425  1.0000
  H   H2348     1.0  0.55242  0.56388  0.58087  1.0000
  H   H2349     1.0  0.68633  0.69474  0.61895  1.0000
  C   C1325     1.0  0.67973  0.81444  0.74537  1.0000
  H   H2350     1.0  0.91909  0.82348  0.67789  1.0000
  H   H2351     1.0  0.84305  0.70406  0.71432  1.0000
  H   H2352     1.0  0.88495  0.82259  0.70412  1.0000
  C   C1326     1.0  0.98009  0.97750  0.61004  1.0000
  H   H2353     1.0  0.98797  0.97634  0.65653  1.0000
  C   C1327     1.0  0.89624  0.88729  0.51322  1.0000
  H   H2354     1.0  0.78401  0.70177  0.71308  1.0000
  C   C1328     1.0  0.85520  0.80391  0.73534  1.0000
  H   H2355     1.0  0.97060  0.99795  0.68915  1.0000
  C   C1329     1.0  0.53553  0.61641  0.56409  1.0000
  H   H2356     1.0  0.58265  0.56236  0.63794  1.0000
  H   H2357     1.0  0.61434  0.75994  0.73961  1.0000
  C   C1330     1.0  0.69067  0.68475  0.60373  1.0000
  H   H2358     1.0  0.64593  0.51455  0.63995  1.0000
  H   H2359     1.0  0.81331  0.92862  0.53360  1.0000
  H   H2360     1.0  0.94653  0.97615  0.69186  1.0000
  H   H2361     1.0  0.87901  0.94987  0.66624  1.0000
  H   H2362     1.0  0.93074  0.97352  0.51238  1.0000
  C   C1331     1.0  0.62689  0.77165  0.72958  1.0000
  H   H2363     1.0  0.87482  0.97345  0.55340  1.0000
  N   N76       1.0  0.88091  0.96108  0.51960  1.0000
  C   C1332     1.0  0.51068  0.60623  0.55687  1.0000
  H   H2364     1.0  0.50146  0.55026  0.63868  1.0000
  C   C1333     1.0  0.85688  0.73855  0.72160  1.0000
  H   H2365     1.0  0.86844  0.73204  0.73556  1.0000
  H   H2366     1.0  0.64885  0.81110  0.72272  1.0000
  H   H2367     1.0  0.64357  0.74335  0.71141  1.0000
  H   H2368     1.0  0.91624  0.99782  0.63854  1.0000
  H   H2369     1.0  0.87765  0.97897  0.65576  1.0000
  H   H2370     1.0  0.75331  0.68144  0.74388  1.0000
  H   H2371     1.0  0.52454  0.52819  0.60891  1.0000
  H   H2372     1.0  0.86575  0.92902  0.50675  1.0000
  H   H2373     1.0  0.50736  0.59015  0.56698  1.0000
  C   C1334     1.0  0.88601  0.77563  0.74677  1.0000
  H   H2374     1.0  0.50883  0.50634  0.63839  1.0000
  C   C1335     1.0  0.88888  0.96689  0.66563  1.0000
  H   H2375     1.0  0.96402  0.95539  0.65859  1.0000
  C   C1336     1.0  0.90816  0.80716  0.68031  1.0000
  C   C1337     1.0  0.89568  0.80687  0.70345  1.0000
  H   H2376     1.0  0.65599  0.57400  0.53704  1.0000
  C   C1338     1.0  0.87414  0.98381  0.60494  1.0000
  C   C1339     1.0  0.84747  0.76253  0.72736  1.0000
  C   C1340     1.0  0.61114  0.75227  0.69390  1.0000
  H   H2377     1.0  0.76530  0.67773  0.70347  1.0000
  H   H2378     1.0  0.61099  0.68424  0.52275  1.0000
  C   C1341     1.0  0.63381  0.75927  0.70756  1.0000
  H   H2379     1.0  0.96257  0.82940  0.51016  1.0000
  H   H2380     1.0  0.54117  0.53682  0.56958  1.0000
  H   H2381     1.0  0.67235  0.79226  0.71708  1.0000
  H   H2382     1.0  0.56560  0.51546  0.59687  1.0000
  H   H2383     1.0  0.54013  0.63257  0.55448  1.0000
  C   C1342     1.0  0.66220  0.55608  0.53706  1.0000
  H   H2384     1.0  0.59896  0.74036  0.70402  1.0000
  H   H2385     1.0  0.84828  0.81239  0.71964  1.0000
  H   H2386     1.0  0.90643  0.93389  0.51927  1.0000
  H   H2387     1.0  0.50735  0.54855  0.66868  1.0000
  C   C1343     1.0  0.98199  0.96490  0.70060  1.0000
  H   H2388     1.0  0.89976  0.79003  0.74829  1.0000
  C   C1344     1.0  0.92709  0.98843  0.65137  1.0000
  C   C1345     1.0  0.72061  0.61727  0.73740  1.0000
  H   H2389     1.0  0.61195  0.51729  0.56223  1.0000
  H   H2390     1.0  0.94676  0.94192  0.55123  1.0000
  H   H2391     1.0  0.96585  0.96148  0.53441  1.0000
  C   C1346     1.0  0.96551  0.97968  0.68599  1.0000
  C   C1347     1.0  0.96822  0.97410  0.66056  1.0000
  H   H2392     1.0  0.72283  0.65332  0.74394  1.0000
  H   H2393     1.0  0.97964  0.96902  0.71874  1.0000
  H   H2394     1.0  0.92528  0.99830  0.66720  1.0000
  H   H2395     1.0  0.88894  0.99398  0.53497  1.0000
  H   H2396     1.0  0.99686  0.96777  0.57858  1.0000
  C   C1348     1.0  0.84987  0.99102  0.53142  1.0000
  H   H2397     1.0  0.83658  0.76002  0.74307  1.0000
  H   H2398     1.0  0.98786  0.99525  0.60781  1.0000
  C   C1349     1.0  0.66539  0.76122  0.74874  1.0000
  H   H2399     1.0  0.67964  0.71600  0.74489  1.0000
  H   H2400     1.0  0.63854  0.73175  0.75020  1.0000
  C   C1350     1.0  0.77072  0.67648  0.75163  1.0000
  C   C1351     1.0  0.95313  0.84554  0.50642  1.0000
  H   H2401     1.0  0.99755  0.88207  0.53683  1.0000
  C   C1352     1.0  0.99878  0.88703  0.55481  1.0000
  C   C1353     1.0  0.83284  0.80263  0.75136  1.0000
  Fe  Fe151     1.0  0.58821  0.88110  0.88456  1.0000
  S   S301      1.0  0.62284  0.86220  0.88923  1.0000
  S   S302      1.0  0.55181  0.86189  0.88314  1.0000
  Fe  Fe152     1.0  0.61364  0.92849  0.88487  1.0000
  S   S303      1.0  0.65059  0.91357  0.88902  1.0000
  S   S304      1.0  0.60030  0.96458  0.88987  1.0000
  Fe  Fe153     1.0  0.63841  0.88718  0.86308  1.0000
  S   S305      1.0  0.66445  0.87798  0.83431  1.0000
  Fe  Fe154     1.0  0.63257  0.88943  0.91460  1.0000
  S   S306      1.0  0.65193  0.88307  0.94796  1.0000
  S   S307      1.0  0.60271  0.90448  0.85672  1.0000
  S   S308      1.0  0.59664  0.90582  0.91222  1.0000
  Fe  Fe155     1.0  0.88736  0.59144  0.87557  1.0000
  S   S309      1.0  0.85324  0.60169  0.89298  1.0000
  S   S310      1.0  0.89790  0.55834  0.85893  1.0000
  Fe  Fe156     1.0  0.91461  0.63626  0.88749  1.0000
  S   S311      1.0  0.88275  0.65014  0.90617  1.0000
  S   S312      1.0  0.95144  0.65450  0.88210  1.0000
  Fe  Fe157     1.0  0.87813  0.61428  0.92096  1.0000
  S   S313      1.0  0.87280  0.60072  0.95711  1.0000
  Fe  Fe158     1.0  0.86025  0.63694  0.87657  1.0000
  S   S314      1.0  0.82756  0.65617  0.86210  1.0000
  S   S315      1.0  0.91161  0.60171  0.90440  1.0000
  S   S316      1.0  0.89259  0.62546  0.85701  1.0000
  H   H2402     1.0  0.75264  0.85513  0.90940  1.0000
  H   H2403     1.0  0.68021  0.76740  0.76014  1.0000
  S   S317      1.0  0.70522  0.78344  0.79820  1.0000
  Fe  Fe159     1.0  0.78092  0.74729  0.76671  1.0000
  S   S318      1.0  0.81462  0.73002  0.78127  1.0000
  S   S319      1.0  0.74168  0.73611  0.77068  1.0000
  C   C1354     1.0  0.97715  0.64150  0.89388  1.0000
  H   H2404     1.0  0.86564  0.50383  0.97133  1.0000
  H   H2405     1.0  0.73429  0.90830  0.91809  1.0000
  C   C1355     1.0  0.87942  0.65388  0.00089  1.0000
  C   C1356     1.0  0.97473  0.62570  0.91191  1.0000
  H   H2406     1.0  0.51561  0.99204  0.93455  1.0000
  H   H2407     1.0  0.95703  0.62177  0.91923  1.0000
  C   C1357     1.0  0.82497  0.67764  0.84028  1.0000
  C   C1358     1.0  0.84412  0.68384  0.82548  1.0000
  C   C1359     1.0  0.84068  0.70004  0.80773  1.0000
  C   C1360     1.0  0.81816  0.71042  0.80458  1.0000
  C   C1361     1.0  0.79920  0.70464  0.81969  1.0000
  C   C1362     1.0  0.80254  0.68823  0.83724  1.0000
  H   H2408     1.0  0.86148  0.67592  0.82755  1.0000
  H   H2409     1.0  0.85557  0.70444  0.79629  1.0000
  H   H2410     1.0  0.78198  0.71284  0.81791  1.0000
  H   H2411     1.0  0.78764  0.68374  0.84865  1.0000
  C   C1363     1.0  0.87786  0.61735  0.98155  1.0000
  C   C1364     1.0  0.87873  0.64138  0.98067  1.0000
  C   C1365     1.0  0.88036  0.53499  0.93959  1.0000
  H   H2412     1.0  0.87794  0.65030  0.96445  1.0000
  C   C1366     1.0  0.88601  0.53088  0.86752  1.0000
  H   H2413     1.0  0.56844  0.84685  0.93395  1.0000
  C   C1367     1.0  0.86361  0.52809  0.87862  1.0000
  H   H2414     1.0  0.51990  0.96391  0.92333  1.0000
  H   H2415     1.0  0.85346  0.54301  0.88266  1.0000
  C   C1368     1.0  0.63421  0.88115  0.97293  1.0000
  H   H2416     1.0  0.89554  0.54326  0.94934  1.0000
  C   C1369     1.0  0.60881  0.88106  0.97189  1.0000
  H   H2417     1.0  0.65884  0.93632  0.93521  1.0000
  H   H2418     1.0  0.59992  0.88204  0.95562  1.0000
  C   C1370     1.0  0.67565  0.85143  0.82475  1.0000
  C   C1371     1.0  0.69394  0.85190  0.80801  1.0000
  C   C1372     1.0  0.70335  0.83141  0.79979  1.0000
  C   C1373     1.0  0.69454  0.81004  0.80817  1.0000
  C   C1374     1.0  0.67622  0.80956  0.82488  1.0000
  C   C1375     1.0  0.66683  0.83005  0.83311  1.0000
  H   H2419     1.0  0.70088  0.86828  0.80130  1.0000
  H   H2420     1.0  0.71739  0.83216  0.78694  1.0000
  H   H2421     1.0  0.66912  0.79318  0.83145  1.0000
  H   H2422     1.0  0.65252  0.82928  0.84569  1.0000
  H   H2423     1.0  0.93528  0.54778  0.79810  1.0000
  H   H2424     1.0  0.57168  0.99192  0.85272  1.0000
  H   H2425     1.0  0.95584  0.56323  0.92105  1.0000
  H   H2426     1.0  0.64536  0.97750  0.86526  1.0000
  C   C1376     1.0  0.65498  0.95150  0.94550  1.0000
  H   H2427     1.0  0.60285  0.80226  0.75778  1.0000
  C   C1377     1.0  0.52851  0.90263  0.88683  1.0000
  C   C1378     1.0  0.52602  0.87880  0.88458  1.0000
  H   H2428     1.0  0.95609  0.52484  0.80282  1.0000
  H   H2429     1.0  0.71791  0.90842  0.83600  1.0000
  H   H2430     1.0  0.81239  0.59992  0.97588  1.0000
  H   H2431     1.0  0.54645  0.91100  0.88684  1.0000
  H   H2432     1.0  0.67229  0.96167  0.94794  1.0000
  C   C1379     1.0  0.63833  0.78827  0.76616  1.0000
  H   H2433     1.0  0.72440  0.70247  0.80771  1.0000
  C   C1380     1.0  0.96283  0.55730  0.83675  1.0000
  H   H2434     1.0  0.52403  0.98892  0.90521  1.0000
  C   C1381     1.0  0.96428  0.57175  0.87545  1.0000
  C   C1382     1.0  0.96272  0.54818  0.88816  1.0000
  C   C1383     1.0  0.99536  0.61538  0.92095  1.0000
  C   C1384     1.0  0.95515  0.60841  0.83918  1.0000
  C   C1385     1.0  0.89887  0.51132  0.86215  1.0000
  C   C1386     1.0  0.61626  0.99109  0.88460  1.0000
  C   C1387     1.0  0.94802  0.54955  0.91002  1.0000
  C   C1388     1.0  0.55315  0.99558  0.85874  1.0000
  H   H2435     1.0  0.75297  0.83811  0.87085  1.0000
  H   H2436     1.0  0.91610  0.51334  0.85338  1.0000
  H   H2437     1.0  0.96368  0.53890  0.84190  1.0000
  H   H2438     1.0  0.94315  0.56093  0.83750  1.0000
  C   C1389     1.0  0.63764  0.99284  0.87177  1.0000
  H   H2439     1.0  0.63393  0.82661  0.79432  1.0000
  C   C1390     1.0  0.81638  0.62636  0.80433  1.0000
  H   H2440     1.0  0.94522  0.57707  0.87310  1.0000
  H   H2441     1.0  0.77800  0.62129  0.79821  1.0000
  H   H2442     1.0  0.95349  0.53485  0.87766  1.0000
  H   H2443     1.0  0.76883  0.58700  0.99600  1.0000
  H   H2444     1.0  0.79273  0.84799  0.88928  1.0000
  H   H2445     1.0  0.94529  0.61137  0.85518  1.0000
  H   H2446     1.0  0.94299  0.59790  0.82813  1.0000
  C   C1391     1.0  0.97075  0.55895  0.81155  1.0000
  H   H2447     1.0  0.82140  0.61514  0.79022  1.0000
  H   H2448     1.0  0.79399  0.85071  0.85884  1.0000
  H   H2449     1.0  0.72696  0.91685  0.95826  1.0000
  H   H2450     1.0  0.96912  0.57662  0.80456  1.0000
  C   C1392     1.0  0.53821  0.87930  0.94899  1.0000
  H   H2451     1.0  0.52532  0.84416  0.92143  1.0000
  H   H2452     1.0  0.86717  0.50167  0.92923  1.0000
  H   H2453     1.0  0.66998  0.82453  0.75799  1.0000
  H   H2454     1.0  0.50064  0.84971  0.88269  1.0000
  H   H2455     1.0  0.76202  0.68415  0.79513  1.0000
  H   H2456     1.0  0.98986  0.55389  0.80955  1.0000
  H   H2457     1.0  0.56170  0.82829  0.95816  1.0000
  C   C1393     1.0  0.62080  0.80848  0.76445  1.0000
  H   H2458     1.0  0.56831  0.91807  0.95768  1.0000
  H   H2459     1.0  0.97265  0.58470  0.88700  1.0000
  H   H2460     1.0  0.57535  0.87895  0.99097  1.0000
  C   C1394     1.0  0.50773  0.91567  0.88902  1.0000
  H   H2461     1.0  0.78641  0.64530  0.81580  1.0000
  H   H2462     1.0  0.64186  0.96205  0.93596  1.0000
  H   H2463     1.0  0.60411  0.93054  0.99459  1.0000
  H   H2464     1.0  0.69867  0.91479  0.94279  1.0000
  H   H2465     1.0  0.62670  0.97521  0.97339  1.0000
  H   H2466     1.0  0.74136  0.90711  0.87250  1.0000
  H   H2467     1.0  0.53313  0.90057  0.97911  1.0000
  C   C1395     1.0  0.65415  0.73897  0.76004  1.0000
  H   H2468     1.0  0.97220  0.64290  0.83736  1.0000
  H   H2469     1.0  0.72459  0.68645  0.76867  1.0000
  H   H2470     1.0  0.83629  0.50387  0.89195  1.0000
  H   H2471     1.0  0.53771  0.96545  0.84160  1.0000
  C   C1396     1.0  0.72746  0.89419  0.92945  1.0000
  H   H2472     1.0  0.77830  0.69275  0.75906  1.0000
  H   H2473     1.0  0.89042  0.75627  0.80307  1.0000
  H   H2474     1.0  0.51954  0.97493  0.86495  1.0000
  C   C1397     1.0  0.71425  0.90492  0.94915  1.0000
  N   N77       1.0  0.97730  0.57224  0.85296  1.0000
  C   C1398     1.0  0.97951  0.59681  0.84446  1.0000
  H   H2475     1.0  0.94821  0.53286  0.91939  1.0000
  H   H2476     1.0  0.86134  0.75759  0.77158  1.0000
  H   H2477     1.0  0.65749  0.93199  0.97648  1.0000
  H   H2478     1.0  0.71408  0.67465  0.81889  1.0000
  H   H2479     1.0  0.69047  0.88316  0.87619  1.0000
  Fe  Fe160     1.0  0.73338  0.77383  0.77133  1.0000
  H   H2480     1.0  0.80169  0.66856  0.78421  1.0000
  H   H2481     1.0  0.54514  0.85049  0.98315  1.0000
  C   C1399     1.0  0.81310  0.63178  0.95722  1.0000
  H   H2482     1.0  0.89988  0.50578  0.92995  1.0000
  C   C1400     1.0  0.79125  0.65259  0.77936  1.0000
  H   H2483     1.0  0.86276  0.53939  0.94730  1.0000
  H   H2484     1.0  0.68846  0.72633  0.77261  1.0000
  H   H2485     1.0  0.72089  0.93585  0.84962  1.0000
  C   C1401     1.0  0.75841  0.85648  0.87307  1.0000
  C   C1402     1.0  0.64567  0.87967  0.99417  1.0000
  H   H2486     1.0  0.69509  0.69025  0.79963  1.0000
  H   H2487     1.0  0.60315  0.83241  0.78626  1.0000
  H   H2488     1.0  0.81623  0.61604  0.82036  1.0000
  H   H2489     1.0  0.71694  0.83155  0.90529  1.0000
  C   C1403     1.0  0.50266  0.86813  0.88451  1.0000
  C   C1404     1.0  0.87711  0.77003  0.77120  1.0000
  H   H2490     1.0  0.96770  0.62941  0.81020  1.0000
  H   H2491     1.0  0.50982  0.93407  0.89062  1.0000
  H   H2492     1.0  0.65235  0.81329  0.89387  1.0000
  H   H2493     1.0  0.54725  0.96021  0.87033  1.0000
  H   H2494     1.0  0.67224  0.84878  0.87921  1.0000
  C   C1405     1.0  0.71055  0.87649  0.91700  1.0000
  C   C1406     1.0  0.95464  0.54300  0.79706  1.0000
  C   C1407     1.0  0.54929  0.92179  0.95284  1.0000
  C   C1408     1.0  0.52548  0.85234  0.97934  1.0000
  S   S320      1.0  0.77312  0.78483  0.76997  1.0000
  H   H2495     1.0  0.87926  0.67244  0.00012  1.0000
  H   H2496     1.0  0.74403  0.62742  0.77545  1.0000
  C   C1409     1.0  0.53176  0.90210  0.96042  1.0000
  C   C1410     1.0  0.59495  0.87913  0.99186  1.0000
  C   C1411     1.0  0.75387  0.63667  0.76131  1.0000
  H   H2497     1.0  0.91348  0.77148  0.78627  1.0000
  C   C1412     1.0  0.55621  0.83265  0.94057  1.0000
  H   H2498     1.0  0.75072  0.65631  0.80360  1.0000
  C   C1413     1.0  0.74687  0.86603  0.89478  1.0000
  H   H2499     1.0  0.65617  0.97477  0.98533  1.0000
  H   H2500     1.0  0.99143  0.59832  0.82923  1.0000
  H   H2501     1.0  0.53845  0.88254  0.93033  1.0000
  H   H2502     1.0  0.67909  0.80661  0.87805  1.0000
  C   C1414     1.0  0.88276  0.50892  0.93908  1.0000
  H   H2503     1.0  0.92875  0.55318  0.90603  1.0000
  H   H2504     1.0  0.98880  0.60783  0.85727  1.0000
  C   C1415     1.0  0.51143  0.83057  0.98844  1.0000
  C   C1416     1.0  0.52915  0.83935  0.93937  1.0000
  H   H2505     1.0  0.71364  0.83615  0.87548  1.0000
  C   C1417     1.0  0.71419  0.68620  0.80370  1.0000
  H   H2506     1.0  0.70731  0.86221  0.92963  1.0000
  H   H2507     1.0  0.83041  0.64049  0.80593  1.0000
  C   C1418     1.0  0.51305  0.98122  0.91937  1.0000
  H   H2508     1.0  0.51788  0.82344  0.94249  1.0000
  C   C1419     1.0  0.71257  0.91820  0.85106  1.0000
  H   H2509     1.0  0.96050  0.54449  0.77908  1.0000
  H   H2510     1.0  0.83559  0.79193  0.76672  1.0000
  H   H2511     1.0  0.65362  0.79289  0.77788  1.0000
  C   C1420     1.0  0.85390  0.50589  0.88381  1.0000
  H   H2512     1.0  0.71332  0.87283  0.85874  1.0000
  H   H2513     1.0  0.80427  0.64860  0.95694  1.0000
  H   H2514     1.0  0.69274  0.80378  0.75468  1.0000
  C   C1421     1.0  0.68080  0.84020  0.89392  1.0000
  H   H2515     1.0  0.83312  0.63482  0.95812  1.0000
  H   H2516     1.0  0.55733  0.87618  0.95376  1.0000
  H   H2517     1.0  0.80172  0.64526  0.99920  1.0000
  H   H2518     1.0  0.60960  0.80538  0.79992  1.0000
  H   H2519     1.0  0.69245  0.88420  0.91466  1.0000
  C   C1422     1.0  0.63898  0.96419  0.98344  1.0000
  H   H2520     1.0  0.75298  0.86633  0.85774  1.0000
  H   H2521     1.0  0.51307  0.90716  0.95593  1.0000
  H   H2522     1.0  0.71478  0.91685  0.88712  1.0000
  C   C1423     1.0  0.72119  0.90653  0.87288  1.0000
  H   H2523     1.0  0.79296  0.87614  0.87565  1.0000
  H   H2524     1.0  0.70732  0.89142  0.96132  1.0000
  C   C1424     1.0  0.53840  0.97273  0.85886  1.0000
  H   H2525     1.0  0.98111  0.54244  0.89276  1.0000
  H   H2526     1.0  0.62737  0.93312  0.96464  1.0000
  C   C1425     1.0  0.80391  0.61680  0.97723  1.0000
  C   C1426     1.0  0.64427  0.94343  0.96830  1.0000
  C   C1427     1.0  0.71050  0.88162  0.87506  1.0000
  H   H2527     1.0  0.69244  0.91949  0.85115  1.0000
  H   H2528     1.0  0.89773  0.50728  0.97305  1.0000
  N   N78       1.0  0.52190  0.85846  0.95463  1.0000
  N   N79       1.0  0.71947  0.86735  0.89472  1.0000
  H   H2529     1.0  0.62784  0.82254  0.75308  1.0000
  H   H2530     1.0  0.88100  0.54226  0.92207  1.0000
  H   H2531     1.0  0.74347  0.88544  0.93656  1.0000
  C   C1428     1.0  0.70894  0.84314  0.89226  1.0000
  H   H2532     1.0  0.51983  0.86654  0.99019  1.0000
  H   H2533     1.0  0.58013  0.80771  0.92673  1.0000
  H   H2534     1.0  0.75586  0.88312  0.89750  1.0000
  H   H2535     1.0  0.87210  0.78607  0.77956  1.0000
  H   H2536     1.0  0.62787  0.77416  0.77514  1.0000
  H   H2537     1.0  0.67961  0.80560  0.90875  1.0000
  C   C1429     1.0  0.78622  0.85797  0.87439  1.0000
  N   N80       1.0  0.76654  0.65835  0.76994  1.0000
  H   H2538     1.0  0.55569  0.81540  0.90808  1.0000
  C   C1430     1.0  0.67257  0.81483  0.89362  1.0000
  H   H2539     1.0  0.84130  0.83460  0.76895  1.0000
  H   H2540     1.0  0.80881  0.62297  0.94107  1.0000
  H   H2541     1.0  0.54959  0.79654  0.93234  1.0000
  C   C1431     1.0  0.56055  0.81176  0.92604  1.0000
  H   H2542     1.0  0.67364  0.84752  0.90966  1.0000
  C   C1432     1.0  0.72566  0.67460  0.78351  1.0000
  H   H2543     1.0  0.80239  0.64464  0.76612  1.0000
  H   H2544     1.0  0.59219  0.95803  0.99046  1.0000
  C   C1433     1.0  0.61664  0.81876  0.78769  1.0000
  C   C1434     1.0  0.67290  0.72039  0.76192  1.0000
  H   H2545     1.0  0.51514  0.81530  0.97830  1.0000
  H   H2546     1.0  0.90243  0.74293  0.77847  1.0000
  C   C1435     1.0  0.75222  0.66843  0.78888  1.0000
  C   C1436     1.0  0.79122  0.63600  0.80028  1.0000
  H   H2547     1.0  0.94217  0.64037  0.82522  1.0000
  H   H2548     1.0  0.80959  0.82540  0.76941  1.0000
  H   H2549     1.0  0.66440  0.70462  0.76986  1.0000
  H   H2550     1.0  0.71440  0.65877  0.78025  1.0000
  H   H2551     1.0  0.78392  0.61476  0.97516  1.0000
  H   H2552     1.0  0.54432  0.93792  0.96107  1.0000
  C   C1437     1.0  0.95970  0.63167  0.82723  1.0000
  C   C1438     1.0  0.82628  0.82661  0.75882  1.0000
  H   H2553     1.0  0.99328  0.60326  0.93499  1.0000
  H   H2554     1.0  0.64789  0.74237  0.77747  1.0000
  H   H2555     1.0  0.66534  0.87970  0.99513  1.0000
  H   H2556     1.0  0.54829  0.92448  0.93416  1.0000
  C   C1439     1.0  0.89720  0.75957  0.78553  1.0000
  H   H2557     1.0  0.72990  0.60705  0.00055  1.0000
  H   H2558     1.0  0.83026  0.63197  0.00037  1.0000
  C   C1440     1.0  0.81021  0.62827  0.00007  1.0000
  H   H2559     1.0  0.76741  0.62436  0.75543  1.0000
  H   H2560     1.0  0.70924  0.61273  0.75249  1.0000
