data_image0
_chemical_formula_structural       HSFeSFeSFeS2FeS2FeS2FeSFeS3H5SFeSFeS3HCH3C6H4C6H4C2H3C6H4CHC3SCH2C2SCH5NC12H19C2H11NC2H8C2HCHCH3CHSH9CFeCHC2H6NC4HC4H9CHCH3NCH7CH2CH2C2H2C2HC2H3C3H6CH5C2H2CHCH2CH2CH5CNHC2H5C3H3NC2H2CH2FeH3CHCHC2HFeH2CHFeHSFeSFeSFeS2FeS2FeS2FeSFeS3FeCH4FeSFeS3HC3HC6H4C6H4C3HC7H4CH3CH2CSH4CH2CHCH8NC2H2CHC2H4SH8CH3NH2NC2HC3FeC4H5CH8CH10CH3C3H4CH2CH10C2SCH4C3H2CH2C2H4CHCH2C3HC3H4CHCH2NH5CH2CHCHC2HC3H3CHSCNCH3SH5CHC2H3C2SCHCH3CH6CH2CHCHCHSFeSFeHFeS2FeS2FeS2FeSFeS3FeS2FeS2H3CH3CH3C6H4C6H4C3H2CH3FeH2CHC6H4CH8CHCH4CHSCH2CH2CH5CH2CNC8HC3H16C2SH10SH6CHCH5NC8H2C2H9SH6CH4CH6NC7HC2HCH12CH4CH6C2NC12H13C2H7C2H6C3HC2H2NC2H3C3SH2C2H4CH2NH5NH4CH2CHCHC2H2CSHFeH2CFeHCH3C3SCH2SHSFeSFeS2FeS2FeS2FeSFeS3FeS2FeS2H5C4HC7H4C6H4CHCH2CH3CH2CHC6H4CH5C3H5C3NC8H9CH11CHCH4C2HNC2H2CH3C2HCH4NHFeHCHCH2CH2C2H5CH3FeH4SCHC2HSH2C3H3FeC2H4NC10H27C2H8CH6NCH3C3HCH4C3SH6SCHC2HNSH3CHCH4CH3C2HCH3C3H2CHFeH2CSHC2H2CNHSH5CH3C5HCH2FeSHFeS3HCHCHFeS2FeSH6SH2CH5C2HC3H4CHCH4CHCH3CH2NH4CH5NCHC4H2C2H15SHCHCH5FeCHCHFeHSC2HNHCH3CHCHCH3CH3C3H2C3HCH2C2HCFeC2H2C2HCH4C2NHC4HC3HSCH15CHFeC2H2CH3C2H6SCHCH5SC4H2CHC2HCSH5CSCSH2C4H2CHC2HSH3SFeS2FeSH4C2HFeSHFeSHSCH2CHC2HCHFeHCHCH2C2HCHNH3C2H7C2HC2HCFeH7SCHSH12CSCHC4HCH3CH2C2H3CHC3HCHCH7SH2CH2FeC2H2C3H4CH4SH4FeHCHCH2C6NHCS3H2CH3SH3SCH4C2H3C2H3C2H2SHC2HCHNCHCFeSHFeSHCNH3FeS2FeS3H2CH2SH3C2H3CH2CHC2SH9CH2CHCHFeSH3CH3C3H2C2H3CHCSH4CH2C3H4CH2CH2CFeHSC2H2CH2CH2SH2CH2CH2CH3CNC9HC2H11SCHCHCH2FeHC3HSH2SFeHCH4CHCH2SH3FeSHFeSH2CH2Fe2S2FeSH4C3H7C3NC4SH5SH2CHCHC2H2CH4S2HCHC2H2C2H2CH3CH5CH5CH5CNH6CH4C3HCH3CHFeCNC11H11CH8C3HC2SH6C2H4C2H6C5FeSHCH3S3CH4CHCHSCH3CFeSCHSHC2HFeCSFeS2FeHFeCS2H2FeCH4FeSFeS3FeS2FeS2FeSFeS3HCH3C6H4C6H7CSCH4C2H2C7H6CHNHC2H2CH3SC2H2CH2CHNCH2C3H3CHCNC12H26NC5SH3CH6CHCH5C4HCH14C2H2FeCH2CHC2H2CHCH3SH5CH4C2HCH6C2H3C3H7CH4CHCNC2H3C4H9CH4C2HCH2C2H3C2NH2C2H3C3H3CH2C2H3C3HCH3FeH2SHSH3CH6SCH4C2H3FeHSFeS2C2H2S2CNCHCH3FeSFeS3FeS2FeS2FeSFeS3HCHCHC6H4C6H7CHCHFeH3CH3C6H4NFeC2H2C3HC3H8CHCHC2H4NH3CH2CHC8H14SCHNC2HC2H2C3H6C2H5SH9CHCH4CH4C2HCH6CH2CH3CHC2HCNH2CHC2HC2H3CH5CH3CHNHNH4C2H2CSCH3C4H3CHCHCH12CH6CFeCH3C2H3C4H4CHCH2CHCH2SH3SH4CHCHCH2C3HCNC2H6CHSH3CS2H2CHC2H2CFeS2FeHSFeHFeHS2H7FeSFeS3FeS2FeS2FeSFeS3C2HCHC6H4C6H5CH2NCFeHCH2CH3C6H5SH2CHCH4C3FeHCH6SH4SH4CHC2H2C2NCH2CH3CH3CH2C2H4SHCH9C2H7CHCHC3SHCHCHCHCH2CH2CHCH2CNSHC3FeH3CH2CHCH3CSHCHCH5CH3NC8H3CH10NH5FeHSCH8CH3CH2C2H2NC4HC6H9CH3CH6CH4NC10H5C4H2CH2CH5CH3CHC2HFeS2FeHSFeCFeCS3CH5FeSFeS3FeS2FeS2FeSFeS3HCH3C6H4C6H6SCH2CH2CHCHCHC6H7SHC3H2CHCHNC6HC5H19CHCH6NC12H27CHC2H2CH4CH2CHCHCH4CH2C2H3CHSHC2HNCHCHCH2CH8C2NC4HC5H6C2H15NC12H27CHC2H3CHNH4CHC3SH3CH6CH2
_chemical_formula_sum              "H2048 S256 Fe128 C1152 N64"
_cell_length_a       55.6151
_cell_length_b       55.644
_cell_length_c       48.9321
_cell_angle_alpha    90.1404
_cell_angle_beta     90.1578
_cell_angle_gamma    88.7941

_space_group_name_H-M_alt    "P 1"
_space_group_IT_number       1

loop_
  _space_group_symop_operation_xyz
  'x, y, z'

loop_
  _atom_site_type_symbol
  _atom_site_label
  _atom_site_symmetry_multiplicity
  _atom_site_fract_x
  _atom_site_fract_y
  _atom_site_fract_z
  _atom_site_occupancy
  H   H1        1.0  0.11603  0.39081  0.13996  1.0000
  S   S1        1.0  0.28157  0.11109  0.28429  1.0000
  Fe  Fe1       1.0  0.31059  0.13278  0.21635  1.0000
  S   S2        1.0  0.27278  0.11847  0.21833  1.0000
  Fe  Fe2       1.0  0.26821  0.14094  0.25667  1.0000
  S   S3        1.0  0.23967  0.16601  0.27591  1.0000
  Fe  Fe3       1.0  0.28910  0.08942  0.24598  1.0000
  S   S4        1.0  0.27546  0.05024  0.24488  1.0000
  S   S5        1.0  0.30468  0.15666  0.25299  1.0000
  Fe  Fe4       1.0  0.12159  0.31002  0.28093  1.0000
  S   S6        1.0  0.10719  0.27252  0.27489  1.0000
  S   S7        1.0  0.12319  0.33065  0.32186  1.0000
  Fe  Fe5       1.0  0.12609  0.31847  0.21843  1.0000
  S   S8        1.0  0.11132  0.28225  0.20958  1.0000
  S   S9        1.0  0.14344  0.34289  0.18631  1.0000
  Fe  Fe6       1.0  0.08345  0.28951  0.24224  1.0000
  S   S10       1.0  0.04484  0.27685  0.23245  1.0000
  Fe  Fe7       1.0  0.13618  0.26830  0.24258  1.0000
  S   S11       1.0  0.15933  0.23714  0.22521  1.0000
  S   S12       1.0  0.09679  0.32710  0.24916  1.0000
  S   S13       1.0  0.15182  0.30462  0.25076  1.0000
  H   H2        1.0  0.28164  0.17009  0.40208  1.0000
  H   H3        1.0  0.13104  0.40814  0.16598  1.0000
  H   H4        1.0  0.24154  0.47814  0.02464  1.0000
  H   H5        1.0  0.98848  0.37927  0.32590  1.0000
  H   H6        1.0  0.19415  0.46654  0.07098  1.0000
  S   S14       1.0  0.20811  0.43555  0.48431  1.0000
  Fe  Fe8       1.0  0.17023  0.35628  0.02499  1.0000
  S   S15       1.0  0.14172  0.34390  0.05539  1.0000
  Fe  Fe9       1.0  0.18969  0.34771  0.47110  1.0000
  S   S16       1.0  0.18630  0.32502  0.43180  1.0000
  S   S17       1.0  0.20813  0.36404  0.03722  1.0000
  S   S18       1.0  0.22382  0.36843  0.47658  1.0000
  H   H7        1.0  0.99343  0.36337  0.35751  1.0000
  C   C1        1.0  0.31831  0.13660  0.10230  1.0000
  H   H8        1.0  0.16428  0.41989  0.13375  1.0000
  H   H9        1.0  0.31945  0.24524  0.17002  1.0000
  H   H10       1.0  0.21913  0.30154  0.19200  1.0000
  C   C2        1.0  0.14035  0.32770  0.35265  1.0000
  C   C3        1.0  0.13416  0.34234  0.37520  1.0000
  C   C4        1.0  0.14755  0.34132  0.39978  1.0000
  C   C5        1.0  0.16772  0.32600  0.40198  1.0000
  C   C6        1.0  0.17384  0.31123  0.37950  1.0000
  C   C7        1.0  0.16027  0.31203  0.35501  1.0000
  H   H11       1.0  0.11874  0.35444  0.37371  1.0000
  H   H12       1.0  0.14228  0.35245  0.41700  1.0000
  H   H13       1.0  0.18928  0.29914  0.38097  1.0000
  H   H14       1.0  0.16530  0.30064  0.33792  1.0000
  C   C8        1.0  0.14311  0.34176  0.14989  1.0000
  C   C9        1.0  0.16253  0.35130  0.13534  1.0000
  C   C10       1.0  0.16279  0.35140  0.10648  1.0000
  C   C11       1.0  0.14313  0.34284  0.09175  1.0000
  C   C12       1.0  0.12371  0.33331  0.10628  1.0000
  C   C13       1.0  0.12378  0.33254  0.13513  1.0000
  H   H15       1.0  0.17756  0.35853  0.14653  1.0000
  H   H16       1.0  0.17797  0.35853  0.09565  1.0000
  H   H17       1.0  0.10841  0.32659  0.09514  1.0000
  H   H18       1.0  0.10860  0.32537  0.14596  1.0000
  C   C14       1.0  0.01432  0.28415  0.24152  1.0000
  C   C15       1.0  0.00779  0.30491  0.25620  1.0000
  H   H19       1.0  0.20426  0.28531  0.14786  1.0000
  H   H20       1.0  0.02163  0.31698  0.26291  1.0000
  H   H21       1.0  0.29323  0.19253  0.07096  1.0000
  C   C16       1.0  0.21836  0.18654  0.26111  1.0000
  C   C17       1.0  0.20530  0.20235  0.27836  1.0000
  C   C18       1.0  0.18757  0.21835  0.26776  1.0000
  C   C19       1.0  0.18245  0.21850  0.23974  1.0000
  C   C20       1.0  0.19570  0.20288  0.22247  1.0000
  C   C21       1.0  0.21363  0.18710  0.23302  1.0000
  H   H22       1.0  0.20868  0.20201  0.30013  1.0000
  H   H23       1.0  0.17747  0.23013  0.28132  1.0000
  H   H24       1.0  0.19183  0.20275  0.20082  1.0000
  H   H25       1.0  0.22340  0.17500  0.21952  1.0000
  C   C22       1.0  0.28541  0.01943  0.24811  1.0000
  H   H26       1.0  0.01636  0.33525  0.19252  1.0000
  C   C23       1.0  0.17704  0.47431  0.07892  1.0000
  C   C24       1.0  0.13422  0.40786  0.05949  1.0000
  C   C25       1.0  0.19503  0.27875  0.09435  1.0000
  S   S19       1.0  0.16662  0.37652  0.49127  1.0000
  C   C26       1.0  0.18433  0.42011  0.08243  1.0000
  H   H27       1.0  0.28988  0.01060  0.31162  1.0000
  H   H28       1.0  0.20335  0.20286  0.11909  1.0000
  C   C27       1.0  0.17005  0.22382  0.12462  1.0000
  C   C28       1.0  0.29370  0.27017  0.07273  1.0000
  S   S20       1.0  0.23984  0.30352  0.00229  1.0000
  C   C29       1.0  0.29421  0.20294  0.05171  1.0000
  H   H29       1.0  0.20626  0.29250  0.10427  1.0000
  H   H30       1.0  0.24295  0.05986  0.29824  1.0000
  H   H31       1.0  0.24743  0.08455  0.32166  1.0000
  H   H32       1.0  0.31764  0.18864  0.42315  1.0000
  H   H33       1.0  0.14928  0.39614  0.05238  1.0000
  N   N1        1.0  0.20340  0.39121  0.38115  1.0000
  C   C30       1.0  0.19674  0.37578  0.35693  1.0000
  C   C31       1.0  0.21816  0.37664  0.40155  1.0000
  C   C32       1.0  0.18026  0.39927  0.39484  1.0000
  C   C33       1.0  0.21655  0.41343  0.37274  1.0000
  C   C34       1.0  0.23985  0.40940  0.35605  1.0000
  C   C35       1.0  0.17962  0.38749  0.33547  1.0000
  C   C36       1.0  0.18274  0.41216  0.42287  1.0000
  C   C37       1.0  0.23478  0.35615  0.39015  1.0000
  C   C38       1.0  0.25110  0.34554  0.41243  1.0000
  C   C39       1.0  0.25006  0.43337  0.34687  1.0000
  C   C40       1.0  0.17766  0.37167  0.30998  1.0000
  C   C41       1.0  0.15806  0.41956  0.43414  1.0000
  H   H34       1.0  0.18778  0.35927  0.36422  1.0000
  H   H35       1.0  0.21291  0.36909  0.34587  1.0000
  H   H36       1.0  0.22916  0.38866  0.41461  1.0000
  H   H37       1.0  0.20614  0.36740  0.41604  1.0000
  H   H38       1.0  0.16863  0.38356  0.39820  1.0000
  H   H39       1.0  0.16976  0.41174  0.38139  1.0000
  H   H40       1.0  0.20441  0.42586  0.36112  1.0000
  H   H41       1.0  0.22195  0.42383  0.39112  1.0000
  H   H42       1.0  0.23668  0.39857  0.33740  1.0000
  H   H43       1.0  0.25380  0.40044  0.36891  1.0000
  H   H44       1.0  0.16122  0.38969  0.34404  1.0000
  H   H45       1.0  0.18601  0.40527  0.32885  1.0000
  H   H46       1.0  0.19346  0.42861  0.42117  1.0000
  H   H47       1.0  0.19152  0.40028  0.43826  1.0000
  H   H48       1.0  0.22366  0.34127  0.38221  1.0000
  H   H49       1.0  0.24631  0.36231  0.37331  1.0000
  H   H50       1.0  0.26259  0.35959  0.42149  1.0000
  H   H51       1.0  0.29073  0.00753  0.34780  1.0000
  H   H52       1.0  0.26291  0.33120  0.40359  1.0000
  C   C42       1.0  0.21421  0.48490  0.48297  1.0000
  C   C43       1.0  0.16561  0.45790  0.10076  1.0000
  H   H53       1.0  0.26599  0.31022  0.05844  1.0000
  H   H54       1.0  0.16399  0.37949  0.29579  1.0000
  H   H55       1.0  0.19518  0.37038  0.29919  1.0000
  H   H56       1.0  0.17198  0.35330  0.31552  1.0000
  H   H57       1.0  0.14683  0.40350  0.43714  1.0000
  H   H58       1.0  0.16026  0.42859  0.45424  1.0000
  H   H59       1.0  0.14866  0.43225  0.42004  1.0000
  H   H60       1.0  0.26771  0.22917  0.06432  1.0000
  H   H61       1.0  0.16882  0.22815  0.10258  1.0000
  H   H62       1.0  0.22609  0.06172  0.32959  1.0000
  H   H63       1.0  0.29053  0.14904  0.36416  1.0000
  N   N2        1.0  0.30226  0.24426  0.07471  1.0000
  C   C44       1.0  0.30971  0.01228  0.24729  1.0000
  C   C45       1.0  0.31745  0.13629  0.13112  1.0000
  H   H64       1.0  0.30872  0.12319  0.09080  1.0000
  H   H65       1.0  0.25500  0.26732  0.06375  1.0000
  H   H66       1.0  0.31304  0.21673  0.15444  1.0000
  H   H67       1.0  0.21008  0.28690  0.05447  1.0000
  H   H68       1.0  0.25113  0.13166  0.37752  1.0000
  H   H69       1.0  0.24334  0.40938  0.10534  1.0000
  H   H70       1.0  0.10003  0.42096  0.04270  1.0000
  H   H71       1.0  0.12499  0.39855  0.07637  1.0000
  C   C46       1.0  0.20476  0.46551  0.49777  1.0000
  C   C47       1.0  0.11809  0.40914  0.14865  1.0000
  H   H72       1.0  0.28925  0.23910  0.15900  1.0000
  C   C48       1.0  0.27778  0.19082  0.03098  1.0000
  H   H73       1.0  0.27229  0.31197  0.09472  1.0000
  C   C49       1.0  0.99587  0.26880  0.23292  1.0000
  H   H74       1.0  0.30088  0.21672  0.42686  1.0000
  H   H75       1.0  0.18028  0.23853  0.16300  1.0000
  H   H76       1.0  0.24229  0.30639  0.08278  1.0000
  C   C50       1.0  0.20624  0.42194  0.10202  1.0000
  H   H77       1.0  0.29735  0.04103  0.37471  1.0000
  S   S21       1.0  0.21951  0.43237  0.01570  1.0000
  H   H78       1.0  0.31477  0.06543  0.36423  1.0000
  H   H79       1.0  0.25467  0.30704  0.48203  1.0000
  H   H80       1.0  0.20196  0.41520  0.12269  1.0000
  H   H81       1.0  0.26506  0.19775  0.40532  1.0000
  H   H82       1.0  0.17621  0.18594  0.11571  1.0000
  H   H83       1.0  0.15205  0.44057  0.04998  1.0000
  H   H84       1.0  0.28387  0.17185  0.02795  1.0000
  H   H85       1.0  0.22332  0.38769  0.09087  1.0000
  H   H86       1.0  0.29221  0.07387  0.32552  1.0000
  C   C51       1.0  0.27076  0.29953  0.49149  1.0000
  Fe  Fe10      1.0  0.21944  0.33999  0.00192  1.0000
  C   C52       1.0  0.28398  0.28099  0.47831  1.0000
  H   H87       1.0  0.24016  0.33735  0.42879  1.0000
  C   C53       1.0  0.22770  0.40707  0.09150  1.0000
  C   C54       1.0  0.26814  0.00146  0.25144  1.0000
  H   H88       1.0  0.28500  0.23816  0.03585  1.0000
  H   H89       1.0  0.18981  0.42708  0.06216  1.0000
  H   H90       1.0  0.30814  0.00118  0.12849  1.0000
  H   H91       1.0  0.30733  0.17660  0.32722  1.0000
  H   H92       1.0  0.26848  0.11164  0.35588  1.0000
  H   H93       1.0  0.15189  0.22008  0.13270  1.0000
  N   N3        1.0  0.27852  0.19559  0.34857  1.0000
  C   C55       1.0  0.26236  0.17417  0.34969  1.0000
  C   C56       1.0  0.26320  0.21787  0.34345  1.0000
  C   C57       1.0  0.29495  0.19234  0.32415  1.0000
  C   C58       1.0  0.29391  0.19823  0.37395  1.0000
  H   H94       1.0  0.12722  0.24781  0.11709  1.0000
  C   C59       1.0  0.27544  0.14934  0.34944  1.0000
  C   C60       1.0  0.18557  0.47984  0.41120  1.0000
  C   C61       1.0  0.24402  0.22449  0.36525  1.0000
  C   C62       1.0  0.22772  0.24525  0.35545  1.0000
  H   H95       1.0  0.23288  0.41303  0.07072  1.0000
  H   H96       1.0  0.21209  0.44081  0.10388  1.0000
  H   H97       1.0  0.11299  0.42681  0.11024  1.0000
  H   H98       1.0  0.24969  0.17444  0.33201  1.0000
  H   H99       1.0  0.25063  0.17486  0.36795  1.0000
  H   H100      1.0  0.27455  0.23401  0.34197  1.0000
  H   H101      1.0  0.25384  0.21621  0.32331  1.0000
  H   H102      1.0  0.28428  0.18821  0.30540  1.0000
  H   H103      1.0  0.18138  0.40064  0.07889  1.0000
  C   C63       1.0  0.11619  0.41047  0.03602  1.0000
  H   H104      1.0  0.27798  0.27447  0.45865  1.0000
  C   C64       1.0  0.29938  0.19688  0.42552  1.0000
  H   H105      1.0  0.25893  0.19091  0.03844  1.0000
  H   H106      1.0  0.28277  0.14548  0.32881  1.0000
  H   H107      1.0  0.28077  0.23391  0.10947  1.0000
  N   N4        1.0  0.30904  0.03887  0.33264  1.0000
  C   C65       1.0  0.25846  0.12910  0.35660  1.0000
  H   H108      1.0  0.23221  0.20928  0.36992  1.0000
  H   H109      1.0  0.25296  0.23061  0.38426  1.0000
  H   H110      1.0  0.23843  0.26140  0.35097  1.0000
  H   H111      1.0  0.21769  0.23998  0.33675  1.0000
  H   H112      1.0  0.21443  0.25002  0.37159  1.0000
  H   H113      1.0  0.24340  0.12857  0.34164  1.0000
  H   H114      1.0  0.26205  0.26878  0.09983  1.0000
  C   C66       1.0  0.28639  0.22960  0.05626  1.0000
  H   H115      1.0  0.20097  0.24462  0.13672  1.0000
  H   H116      1.0  0.16451  0.47709  0.06148  1.0000
  C   C67       1.0  0.29998  0.23434  0.10324  1.0000
  H   H117      1.0  0.10035  0.41539  0.15663  1.0000
  H   H118      1.0  0.30632  0.21524  0.10378  1.0000
  C   C68       1.0  0.26687  0.27555  0.07931  1.0000
  C   C69       1.0  0.15188  0.41855  0.11599  1.0000
  H   H119      1.0  0.29682  0.27687  0.05157  1.0000
  H   H120      1.0  0.11045  0.39234  0.02937  1.0000
  C   C70       1.0  0.28852  0.05454  0.32212  1.0000
  C   C71       1.0  0.30859  0.23632  0.15401  1.0000
  H   H121      1.0  0.19978  0.47101  0.39856  1.0000
  C   C72       1.0  0.18387  0.46800  0.00590  1.0000
  C   C73       1.0  0.26341  0.05031  0.33492  1.0000
  H   H122      1.0  0.22384  0.48126  0.46420  1.0000
  H   H123      1.0  0.28720  0.32650  0.00238  1.0000
  H   H124      1.0  0.14833  0.46690  0.10663  1.0000
  C   C74       1.0  0.31431  0.24695  0.12602  1.0000
  C   C75       1.0  0.24385  0.06505  0.32017  1.0000
  C   C76       1.0  0.26163  0.30267  0.07881  1.0000
  H   H125      1.0  0.17691  0.45829  0.11957  1.0000
  H   H126      1.0  0.18126  0.27286  0.05301  1.0000
  H   H127      1.0  0.12739  0.44467  0.13598  1.0000
  H   H128      1.0  0.28672  0.05226  0.29965  1.0000
  H   H129      1.0  0.31003  0.26647  0.12692  1.0000
  H   H130      1.0  0.18332  0.30414  0.06277  1.0000
  C   C77       1.0  0.31121  0.21391  0.31743  1.0000
  H   H131      1.0  0.99619  0.36031  0.18546  1.0000
  H   H132      1.0  0.31118  0.18783  0.37176  1.0000
  H   H133      1.0  0.14326  0.25748  0.16686  1.0000
  H   H134      1.0  0.99479  0.34478  0.21789  1.0000
  H   H135      1.0  0.26323  0.05579  0.35674  1.0000
  C   C78       1.0  0.18528  0.28311  0.18565  1.0000
  C   C79       1.0  0.31323  0.04559  0.36212  1.0000
  H   H136      1.0  0.15142  0.39904  0.11119  1.0000
  H   H137      1.0  0.12795  0.44473  0.07307  1.0000
  C   C80       1.0  0.30480  0.27081  0.49037  1.0000
  H   H138      1.0  0.30433  0.28194  0.08624  1.0000
  C   C81       1.0  0.18139  0.24433  0.14128  1.0000
  H   H139      1.0  0.20468  0.26111  0.09495  1.0000
  H   H140      1.0  0.19334  0.26543  0.19136  1.0000
  C   C82       1.0  0.14367  0.43269  0.06848  1.0000
  H   H141      1.0  0.30732  0.12273  0.14159  1.0000
  H   H142      1.0  0.18626  0.19499  0.14913  1.0000
  C   C83       1.0  0.28318  0.18992  0.40158  1.0000
  H   H143      1.0  0.17891  0.30526  0.15001  1.0000
  H   H144      1.0  0.25416  0.44486  0.36483  1.0000
  H   H145      1.0  0.00062  0.25263  0.22165  1.0000
  H   H146      1.0  0.15904  0.26577  0.09537  1.0000
  H   H147      1.0  0.16158  0.29562  0.10717  1.0000
  C   C84       1.0  0.19217  0.28608  0.06437  1.0000
  N   N5        1.0  0.16134  0.43236  0.09193  1.0000
  H   H148      1.0  0.14032  0.28811  0.15744  1.0000
  C   C85       1.0  0.18496  0.20054  0.12735  1.0000
  C   C86       1.0  0.14477  0.26990  0.14911  1.0000
  H   H149      1.0  0.12196  0.27953  0.11382  1.0000
  H   H150      1.0  0.25821  0.03121  0.33353  1.0000
  H   H151      1.0  0.08571  0.25771  0.12828  1.0000
  H   H152      1.0  0.24928  0.00662  0.25213  1.0000
  H   H153      1.0  0.19243  0.32049  0.19578  1.0000
  C   C87       1.0  0.20033  0.30230  0.19957  1.0000
  C   C88       1.0  0.12671  0.42648  0.12671  1.0000
  C   C89       1.0  0.17019  0.27738  0.10850  1.0000
  H   H154      1.0  0.16776  0.47397  0.40369  1.0000
  H   H155      1.0  0.27846  0.20013  0.01094  1.0000
  H   H156      1.0  0.16686  0.28446  0.19420  1.0000
  N   N6        1.0  0.17017  0.26907  0.13789  1.0000
  C   C90       1.0  0.09985  0.26246  0.14329  1.0000
  C   C91       1.0  0.18510  0.28647  0.15416  1.0000
  H   H157      1.0  0.10081  0.24821  0.15917  1.0000
  H   H158      1.0  0.20064  0.29913  0.22197  1.0000
  C   C92       1.0  0.12397  0.26459  0.12874  1.0000
  H   H159      1.0  0.09455  0.27987  0.15290  1.0000
  H   H160      1.0  0.29927  0.21728  0.37645  1.0000
  Fe  Fe11      1.0  0.31826  0.12616  0.27890  1.0000
  H   H161      1.0  0.26698  0.43005  0.33532  1.0000
  H   H162      1.0  0.18798  0.47382  0.43270  1.0000
  H   H163      1.0  0.31282  0.20140  0.04380  1.0000
  C   C93       1.0  0.20781  0.46263  0.01302  1.0000
  H   H164      1.0  0.12446  0.41954  0.01827  1.0000
  C   C94       1.0  0.99778  0.34250  0.19559  1.0000
  H   H165      1.0  0.23708  0.44306  0.33330  1.0000
  C   C95       1.0  0.22301  0.48192  0.01908  1.0000
  C   C96       1.0  0.30172  0.01287  0.32990  1.0000
  H   H166      1.0  0.30034  0.22880  0.30823  1.0000
  Fe  Fe12      1.0  0.20481  0.39461  0.00641  1.0000
  H   H167      1.0  0.29168  0.19035  0.44498  1.0000
  H   H168      1.0  0.31664  0.32884  0.44788  1.0000
  C   C97       1.0  0.31649  0.98768  0.24972  1.0000
  H   H169      1.0  0.17188  0.45352  0.00112  1.0000
  Fe  Fe13      1.0  0.20119  0.39656  0.49890  1.0000
  H   H170      1.0  0.23829  0.15995  0.62618  1.0000
  S   S22       1.0  0.27378  0.10353  0.78261  1.0000
  Fe  Fe14      1.0  0.29470  0.11377  0.70783  1.0000
  S   S23       1.0  0.25701  0.10284  0.71892  1.0000
  Fe  Fe15      1.0  0.25924  0.13070  0.75222  1.0000
  S   S24       1.0  0.23092  0.15692  0.76997  1.0000
  Fe  Fe16      1.0  0.27480  0.07637  0.74805  1.0000
  S   S25       1.0  0.25995  0.03796  0.75210  1.0000
  S   S26       1.0  0.29594  0.14313  0.73976  1.0000
  Fe  Fe17      1.0  0.11689  0.29681  0.78025  1.0000
  S   S27       1.0  0.10200  0.26111  0.76668  1.0000
  S   S28       1.0  0.11860  0.29949  0.82729  1.0000
  Fe  Fe18      1.0  0.12218  0.31333  0.72041  1.0000
  S   S29       1.0  0.10723  0.27918  0.70411  1.0000
  S   S30       1.0  0.13777  0.34222  0.69239  1.0000
  Fe  Fe19      1.0  0.07889  0.28237  0.73712  1.0000
  S   S31       1.0  0.04064  0.27020  0.72507  1.0000
  Fe  Fe20      1.0  0.13122  0.26058  0.73501  1.0000
  S   S32       1.0  0.15281  0.22876  0.71711  1.0000
  S   S33       1.0  0.09234  0.31825  0.75181  1.0000
  S   S34       1.0  0.14762  0.29468  0.75015  1.0000
  Fe  Fe21      1.0  0.22806  0.34951  0.51681  1.0000
  C   C98       1.0  0.17042  0.27706  0.56668  1.0000
  H   H171      1.0  0.17800  0.31231  0.60491  1.0000
  H   H172      1.0  0.27872  0.23436  0.82860  1.0000
  H   H173      1.0  0.19990  0.31286  0.57906  1.0000
  H   H174      1.0  0.30215  0.13036  0.88727  1.0000
  Fe  Fe22      1.0  0.17507  0.35755  0.53143  1.0000
  S   S35       1.0  0.14677  0.34398  0.56162  1.0000
  Fe  Fe23      1.0  0.18110  0.36241  0.96303  1.0000
  S   S36       1.0  0.17380  0.36270  0.91671  1.0000
  S   S37       1.0  0.20824  0.37905  0.54001  1.0000
  S   S38       1.0  0.21969  0.37104  0.97241  1.0000
  H   H175      1.0  0.22669  0.38842  0.60098  1.0000
  C   C99       1.0  0.19491  0.30333  0.59817  1.0000
  C   C100      1.0  0.19521  0.28422  0.88271  1.0000
  C   C101      1.0  0.26072  0.30453  0.62398  1.0000
  H   H176      1.0  0.13844  0.17228  0.70813  1.0000
  C   C102      1.0  0.13351  0.31794  0.85172  1.0000
  C   C103      1.0  0.14964  0.33569  0.84412  1.0000
  C   C104      1.0  0.16165  0.34916  0.86431  1.0000
  C   C105      1.0  0.15774  0.34520  0.89236  1.0000
  C   C106      1.0  0.14150  0.32755  0.89998  1.0000
  C   C107      1.0  0.12956  0.31400  0.87979  1.0000
  H   H177      1.0  0.15292  0.33899  0.82269  1.0000
  H   H178      1.0  0.17404  0.36284  0.85811  1.0000
  H   H179      1.0  0.13800  0.32448  0.92139  1.0000
  H   H180      1.0  0.11707  0.30040  0.88596  1.0000
  C   C108      1.0  0.13937  0.34281  0.65594  1.0000
  C   C109      1.0  0.15301  0.36062  0.64314  1.0000
  C   C110      1.0  0.15541  0.36138  0.61439  1.0000
  C   C111      1.0  0.14376  0.34460  0.59795  1.0000
  C   C112      1.0  0.12965  0.32715  0.61071  1.0000
  C   C113      1.0  0.12769  0.32605  0.63947  1.0000
  H   H181      1.0  0.16196  0.37381  0.65561  1.0000
  H   H182      1.0  0.16603  0.37511  0.60494  1.0000
  H   H183      1.0  0.12042  0.31414  0.59826  1.0000
  H   H184      1.0  0.11701  0.31234  0.64889  1.0000
  C   C114      1.0  0.01072  0.27535  0.73773  1.0000
  C   C115      1.0  0.00559  0.29075  0.75971  1.0000
  C   C116      1.0  0.31323  0.29744  0.99604  1.0000
  H   H185      1.0  0.02012  0.30000  0.76972  1.0000
  C   C117      1.0  0.27353  0.26803  0.99142  1.0000
  C   C118      1.0  0.21021  0.17760  0.75457  1.0000
  C   C119      1.0  0.19612  0.19274  0.77153  1.0000
  C   C120      1.0  0.17921  0.20926  0.76040  1.0000
  C   C121      1.0  0.17576  0.21039  0.73212  1.0000
  C   C122      1.0  0.18980  0.19524  0.71514  1.0000
  C   C123      1.0  0.20712  0.17911  0.72625  1.0000
  H   H186      1.0  0.19811  0.19151  0.79347  1.0000
  H   H187      1.0  0.16844  0.22067  0.77369  1.0000
  H   H188      1.0  0.18711  0.19583  0.69325  1.0000
  H   H189      1.0  0.21769  0.16749  0.71296  1.0000
  C   C124      1.0  0.27147  0.00764  0.75366  1.0000
  H   H190      1.0  0.27004  0.12822  0.52429  1.0000
  H   H191      1.0  0.17225  0.29068  0.83163  1.0000
  H   H192      1.0  0.00692  0.34495  0.67516  1.0000
  C   C125      1.0  0.27835  0.30829  0.51683  1.0000
  H   H193      1.0  0.23936  0.19974  0.80926  1.0000
  H   H194      1.0  0.17786  0.29454  0.88378  1.0000
  C   C126      1.0  0.23147  0.23712  0.81448  1.0000
  S   S39       1.0  0.26213  0.33146  0.53434  1.0000
  H   H195      1.0  0.30890  0.01624  0.75221  1.0000
  H   H196      1.0  0.24664  0.20744  0.54421  1.0000
  H   H197      1.0  0.29496  0.19575  0.87025  1.0000
  H   H198      1.0  0.23762  0.14184  0.82583  1.0000
  C   C127      1.0  0.15872  0.27768  0.96115  1.0000
  H   H199      1.0  0.23911  0.37565  0.63188  1.0000
  H   H200      1.0  0.20702  0.38145  0.62893  1.0000
  C   C128      1.0  0.25310  0.16963  0.63641  1.0000
  H   H201      1.0  0.24594  0.17927  0.85144  1.0000
  C   C129      1.0  0.23794  0.29808  0.60735  1.0000
  H   H202      1.0  0.25698  0.17030  0.53160  1.0000
  H   H203      1.0  0.16606  0.25825  0.56129  1.0000
  H   H204      1.0  0.29597  0.13226  0.54581  1.0000
  H   H205      1.0  0.09728  0.23244  0.67032  1.0000
  H   H206      1.0  0.28646  0.18609  0.62699  1.0000
  H   H207      1.0  0.29738  0.99901  0.83748  1.0000
  H   H208      1.0  0.17766  0.28595  0.54824  1.0000
  H   H209      1.0  0.29244  0.04522  0.86169  1.0000
  N   N7        1.0  0.27706  0.20255  0.57147  1.0000
  C   C130      1.0  0.29718  0.21673  0.58389  1.0000
  C   C131      1.0  0.26051  0.19493  0.59410  1.0000
  H   H210      1.0  0.06707  0.24442  0.67368  1.0000
  H   H211      1.0  0.18853  0.26250  0.83199  1.0000
  C   C132      1.0  0.20585  0.29143  0.85467  1.0000
  H   H212      1.0  0.25544  0.22630  0.91042  1.0000
  C   C133      1.0  0.27176  0.17739  0.61552  1.0000
  C   C134      1.0  0.19046  0.28228  0.83102  1.0000
  H   H213      1.0  0.31771  0.16540  0.79123  1.0000
  H   H214      1.0  0.29325  0.14829  0.51376  1.0000
  H   H215      1.0  0.28993  0.23077  0.59802  1.0000
  H   H216      1.0  0.24404  0.18669  0.58554  1.0000
  S   S40       1.0  0.18132  0.33085  0.99130  1.0000
  H   H217      1.0  0.27237  0.24940  0.92757  1.0000
  H   H218      1.0  0.23601  0.31087  0.88685  1.0000
  H   H219      1.0  0.22440  0.28444  0.85186  1.0000
  H   H220      1.0  0.30889  0.21992  0.79963  1.0000
  H   H221      1.0  0.31365  0.99632  0.64279  1.0000
  H   H222      1.0  0.27919  0.16083  0.60582  1.0000
  H   H223      1.0  0.22295  0.29381  0.66049  1.0000
  H   H224      1.0  0.18067  0.25797  0.67248  1.0000
  C   C135      1.0  0.27025  0.21647  0.82995  1.0000
  H   H225      1.0  0.23514  0.27425  0.54499  1.0000
  H   H226      1.0  0.24174  0.25608  0.87561  1.0000
  H   H227      1.0  0.21125  0.32704  0.90053  1.0000
  N   N8        1.0  0.21419  0.30602  0.61961  1.0000
  H   H228      1.0  0.23781  0.13706  0.86215  1.0000
  H   H229      1.0  0.21127  0.27124  0.63909  1.0000
  N   N9        1.0  0.09126  0.18102  0.73337  1.0000
  C   C136      1.0  0.10732  0.15885  0.73119  1.0000
  C   C137      1.0  0.06520  0.17418  0.73689  1.0000
  H   H230      1.0  0.27936  0.02716  0.81404  1.0000
  C   C138      1.0  0.09898  0.19755  0.75610  1.0000
  C   C139      1.0  0.10156  0.18634  0.78489  1.0000
  C   C140      1.0  0.13462  0.16329  0.72780  1.0000
  Fe  Fe24      1.0  0.31022  0.11435  0.76843  1.0000
  C   C141      1.0  0.06008  0.15091  0.75314  1.0000
  C   C142      1.0  0.03330  0.14897  0.75955  1.0000
  C   C143      1.0  0.11232  0.20417  0.80510  1.0000
  C   C144      1.0  0.14910  0.13963  0.72805  1.0000
  H   H231      1.0  0.14900  0.29523  0.95907  1.0000
  H   H232      1.0  0.10144  0.14758  0.71362  1.0000
  H   H233      1.0  0.10566  0.14724  0.74942  1.0000
  H   H234      1.0  0.05471  0.18928  0.74646  1.0000
  H   H235      1.0  0.05651  0.17132  0.71658  1.0000
  C   C145      1.0  0.31817  0.13358  0.87545  1.0000
  H   H236      1.0  0.23609  0.99260  0.75494  1.0000
  H   H237      1.0  0.11625  0.20617  0.75085  1.0000
  H   H238      1.0  0.08581  0.21273  0.75834  1.0000
  H   H239      1.0  0.11348  0.17014  0.78479  1.0000
  H   H240      1.0  0.08362  0.18170  0.79286  1.0000
  H   H241      1.0  0.16850  0.14335  0.72534  1.0000
  H   H242      1.0  0.14148  0.17449  0.74474  1.0000
  H   H243      1.0  0.14519  0.26342  0.96335  1.0000
  C   C146      1.0  0.31253  0.27971  0.51557  1.0000
  H   H244      1.0  0.06546  0.13491  0.74076  1.0000
  H   H245      1.0  0.07004  0.14998  0.77269  1.0000
  H   H246      1.0  0.02721  0.16412  0.77286  1.0000
  H   H247      1.0  0.02248  0.14916  0.74042  1.0000
  H   H248      1.0  0.03006  0.13186  0.77047  1.0000
  H   H249      1.0  0.10031  0.22024  0.80744  1.0000
  H   H250      1.0  0.11447  0.19556  0.82544  1.0000
  H   H251      1.0  0.13028  0.20994  0.79809  1.0000
  H   H252      1.0  0.08946  0.18231  0.68917  1.0000
  H   H253      1.0  0.14330  0.12773  0.71112  1.0000
  C   C147      1.0  0.31699  0.27264  0.99148  1.0000
  H   H254      1.0  0.30882  0.20490  0.59689  1.0000
  H   H255      1.0  0.16999  0.27790  0.97993  1.0000
  H   H256      1.0  0.30148  0.17176  0.56986  1.0000
  C   C148      1.0  0.21467  0.33195  0.62852  1.0000
  C   C149      1.0  0.22029  0.35034  0.60578  1.0000
  C   C150      1.0  0.22346  0.37547  0.61774  1.0000
  H   H257      1.0  0.22744  0.33432  0.64583  1.0000
  H   H258      1.0  0.19692  0.33765  0.63686  1.0000
  H   H259      1.0  0.20513  0.35138  0.59102  1.0000
  H   H260      1.0  0.23687  0.34545  0.59437  1.0000
  C   C151      1.0  0.30251  0.20110  0.80039  1.0000
  H   H261      1.0  0.14694  0.13024  0.74787  1.0000
  H   H262      1.0  0.22303  0.23460  0.83478  1.0000
  C   C152      1.0  0.29809  0.05276  0.84170  1.0000
  H   H263      1.0  0.18332  0.31295  0.66774  1.0000
  H   H264      1.0  0.23842  0.27827  0.60454  1.0000
  H   H265      1.0  0.24007  0.30556  0.58638  1.0000
  H   H266      1.0  0.25160  0.07172  0.83529  1.0000
  H   H267      1.0  0.24023  0.04813  0.81390  1.0000
  H   H268      1.0  0.26781  0.33627  0.90607  1.0000
  H   H269      1.0  0.18104  0.26737  0.60733  1.0000
  H   H270      1.0  0.19452  0.27797  0.69697  1.0000
  H   H271      1.0  0.26313  0.32427  0.62446  1.0000
  H   H272      1.0  0.22820  0.32403  0.94720  1.0000
  C   C153      1.0  0.27882  0.04626  0.82004  1.0000
  C   C154      1.0  0.18885  0.27724  0.58991  1.0000
  S   S41       1.0  0.16627  0.38763  0.99559  1.0000
  C   C155      1.0  0.19309  0.29251  0.93183  1.0000
  H   H273      1.0  0.16939  0.29323  0.64353  1.0000
  H   H274      1.0  0.16270  0.28011  0.69041  1.0000
  H   H275      1.0  0.25968  0.29799  0.64531  1.0000
  H   H276      1.0  0.25821  0.25643  0.98989  1.0000
  C   C156      1.0  0.29940  0.29835  0.52870  1.0000
  C   C157      1.0  0.28329  0.29331  0.61110  1.0000
  C   C158      1.0  0.20931  0.29067  0.64430  1.0000
  H   H277      1.0  0.15356  0.28662  0.57294  1.0000
  H   H278      1.0  0.26311  0.12703  0.84199  1.0000
  C   C159      1.0  0.18447  0.29485  0.65820  1.0000
  H   H279      1.0  0.20509  0.26726  0.58285  1.0000
  H   H280      1.0  0.25628  0.21918  0.78765  1.0000
  C   C160      1.0  0.24921  0.14145  0.84433  1.0000
  C   C161      1.0  0.24028  0.25581  0.53808  1.0000
  H   H281      1.0  0.24043  0.25476  0.81385  1.0000
  H   H282      1.0  0.19881  0.28701  0.81121  1.0000
  H   H283      1.0  0.26736  0.17061  0.80525  1.0000
  H   H284      1.0  0.29947  0.29920  0.62244  1.0000
  C   C162      1.0  0.24944  0.21668  0.80870  1.0000
  H   H285      1.0  0.22371  0.24628  0.53211  1.0000
  C   C163      1.0  0.18051  0.27655  0.68086  1.0000
  H   H286      1.0  0.08207  0.23135  0.71831  1.0000
  H   H287      1.0  0.26177  0.15722  0.65145  1.0000
  C   C164      1.0  0.30551  0.19678  0.85102  1.0000
  C   C165      1.0  0.28320  0.14153  0.53166  1.0000
  C   C166      1.0  0.29613  0.00199  0.75408  1.0000
  H   H288      1.0  0.29142  0.15802  0.82351  1.0000
  C   C167      1.0  0.26501  0.24344  0.90757  1.0000
  C   C168      1.0  0.27746  0.17243  0.82471  1.0000
  C   C169      1.0  0.26075  0.16583  0.84885  1.0000
  H   H289      1.0  0.27109  0.16466  0.86824  1.0000
  H   H290      1.0  0.18301  0.30993  0.92968  1.0000
  H   H291      1.0  0.31730  0.18041  0.85114  1.0000
  H   H292      1.0  0.30578  0.30538  0.54794  1.0000
  C   C170      1.0  0.00601  0.32514  0.67266  1.0000
  H   H293      1.0  0.29811  0.18706  0.53875  1.0000
  C   C171      1.0  0.28789  0.18108  0.55682  1.0000
  H   H294      1.0  0.26221  0.21592  0.85074  1.0000
  H   H295      1.0  0.21707  0.23716  0.79868  1.0000
  N   N10       1.0  0.28896  0.19670  0.82652  1.0000
  H   H296      1.0  0.30460  0.24062  0.54892  1.0000
  H   H297      1.0  0.24100  0.24040  0.57828  1.0000
  H   H298      1.0  0.27343  0.21999  0.53197  1.0000
  H   H299      1.0  0.11174  0.20094  0.70358  1.0000
  H   H300      1.0  0.00934  0.32028  0.65095  1.0000
  C   C172      1.0  0.09318  0.19453  0.70671  1.0000
  H   H301      1.0  0.26858  0.25381  0.56759  1.0000
  H   H302      1.0  0.20613  0.31136  0.85300  1.0000
  C   C173      1.0  0.31440  0.22873  0.56340  1.0000
  H   H303      1.0  0.24557  0.18543  0.64764  1.0000
  C   C174      1.0  0.25521  0.98859  0.75535  1.0000
  H   H304      1.0  0.25388  0.21090  0.60577  1.0000
  C   C175      1.0  0.25360  0.24234  0.56096  1.0000
  C   C176      1.0  0.26995  0.16216  0.54632  1.0000
  H   H305      1.0  0.25976  0.15419  0.56338  1.0000
  C   C177      1.0  0.26280  0.21732  0.55098  1.0000
  C   C178      1.0  0.26976  0.29273  0.99653  1.0000
  C   C179      1.0  0.22398  0.31174  0.90484  1.0000
  H   H306      1.0  0.05744  0.21324  0.70739  1.0000
  H   H307      1.0  0.25201  0.25750  0.51987  1.0000
  H   H308      1.0  0.19019  0.26497  0.88164  1.0000
  C   C180      1.0  0.23972  0.31901  0.92958  1.0000
  H   H309      1.0  0.24330  0.35621  0.91650  1.0000
  S   S42       1.0  0.19545  0.32740  0.51044  1.0000
  C   C181      1.0  0.22637  0.26755  0.91477  1.0000
  N   N11       1.0  0.21015  0.28886  0.90807  1.0000
  C   C182      1.0  0.25497  0.34071  0.92277  1.0000
  H   H310      1.0  0.24920  0.04142  0.84854  1.0000
  H   H311      1.0  0.07193  0.21479  0.65946  1.0000
  H   H312      1.0  0.20322  0.29389  0.95142  1.0000
  S   S43       1.0  0.31220  0.08584  0.73536  1.0000
  H   H313      1.0  0.21597  0.25071  0.91471  1.0000
  H   H314      1.0  0.23337  0.26910  0.93607  1.0000
  H   H315      1.0  0.26542  0.34600  0.94113  1.0000
  H   H316      1.0  0.29950  0.23904  0.98485  1.0000
  H   H317      1.0  0.25218  0.30422  0.93589  1.0000
  C   C183      1.0  0.24808  0.26278  0.89565  1.0000
  H   H318      1.0  0.29033  0.19927  0.78245  1.0000
  C   C184      1.0  0.17425  0.27258  0.93600  1.0000
  C   C185      1.0  0.07661  0.21721  0.70368  1.0000
  H   H319      1.0  0.28160  0.05684  0.80127  1.0000
  H   H320      1.0  0.30438  0.11665  0.83893  1.0000
  H   H321      1.0  0.25887  0.27905  0.89260  1.0000
  C   C186      1.0  0.25345  0.05229  0.83024  1.0000
  C   C187      1.0  0.07840  0.22776  0.67497  1.0000
  S   S44       1.0  0.30269  0.11410  0.66178  1.0000
  C   C188      1.0  0.99141  0.26354  0.72508  1.0000
  H   H322      1.0  0.31356  0.10939  0.60480  1.0000
  C   C189      1.0  0.19274  0.47064  0.52228  1.0000
  H   H323      1.0  0.18313  0.25478  0.93904  1.0000
  H   H324      1.0  0.31094  0.23581  0.85513  1.0000
  H   H325      1.0  0.16192  0.27143  0.91819  1.0000
  C   C190      1.0  0.29695  0.25808  0.98865  1.0000
  H   H326      1.0  0.29638  0.07270  0.84368  1.0000
  H   H327      1.0  0.02049  0.31665  0.68532  1.0000
  H   H328      1.0  0.28034  0.24015  0.89349  1.0000
  H   H329      1.0  0.28266  0.27341  0.61194  1.0000
  H   H330      1.0  0.18536  0.45609  0.53401  1.0000
  H   H331      1.0  0.99505  0.25156  0.70808  1.0000
  C   C191      1.0  0.31878  0.13300  0.63922  1.0000
  H   H332      1.0  0.28489  0.29913  0.58950  1.0000
  H   H333      1.0  0.31542  0.00286  0.80721  1.0000
  C   C192      1.0  0.31929  0.12591  0.84801  1.0000
  H   H334      1.0  0.31652  0.07724  0.88420  1.0000
  C   C193      1.0  0.31601  0.99998  0.82951  1.0000
  H   H335      1.0  0.31743  0.03929  0.79241  1.0000
  C   C194      1.0  0.28976  0.30748  0.99844  1.0000
  H   H336      1.0  0.29958  0.71976  0.39248  1.0000
  S   S45       1.0  0.28488  0.87906  0.29567  1.0000
  Fe  Fe25      1.0  0.29943  0.85249  0.22261  1.0000
  S   S46       1.0  0.27022  0.88037  0.23047  1.0000
  Fe  Fe26      1.0  0.29665  0.89928  0.25795  1.0000
  H   H337      1.0  0.02563  0.68080  0.19589  1.0000
  Fe  Fe27      1.0  0.26100  0.85786  0.26723  1.0000
  S   S47       1.0  0.22209  0.84766  0.27589  1.0000
  S   S48       1.0  0.28875  0.82938  0.25817  1.0000
  Fe  Fe28      1.0  0.13123  0.67359  0.23490  1.0000
  S   S49       1.0  0.12333  0.71247  0.22599  1.0000
  S   S50       1.0  0.13988  0.64491  0.20254  1.0000
  Fe  Fe29      1.0  0.12442  0.68087  0.29736  1.0000
  S   S51       1.0  0.11606  0.72037  0.29191  1.0000
  S   S52       1.0  0.11997  0.66594  0.34060  1.0000
  Fe  Fe30      1.0  0.09270  0.70876  0.25633  1.0000
  S   S53       1.0  0.05447  0.72428  0.24821  1.0000
  Fe  Fe31      1.0  0.14717  0.72028  0.26235  1.0000
  S   S54       1.0  0.18237  0.74125  0.26233  1.0000
  S   S55       1.0  0.09962  0.66948  0.26335  1.0000
  S   S56       1.0  0.15653  0.68112  0.26974  1.0000
  Fe  Fe32      1.0  0.19913  0.62367  0.47418  1.0000
  S   S57       1.0  0.22956  0.59859  0.48725  1.0000
  S   S58       1.0  0.19827  0.62991  0.42787  1.0000
  Fe  Fe33      1.0  0.17810  0.63106  0.04074  1.0000
  S   S59       1.0  0.20969  0.60503  0.04124  1.0000
  S   S60       1.0  0.16553  0.65610  0.07571  1.0000
  H   H338      1.0  0.31338  0.97101  0.16471  1.0000
  H   H339      1.0  0.13558  0.75361  0.37786  1.0000
  H   H340      1.0  0.26965  0.76339  0.37798  1.0000
  C   C195      1.0  0.28953  0.76475  0.37853  1.0000
  H   H341      1.0  0.20422  0.68826  0.07972  1.0000
  H   H342      1.0  0.09805  0.73380  0.38934  1.0000
  H   H343      1.0  0.29733  0.96559  0.31331  1.0000
  C   C196      1.0  0.29920  0.96974  0.25310  1.0000
  H   H344      1.0  0.27262  0.93334  0.21425  1.0000
  H   H345      1.0  0.30202  0.73446  0.09018  1.0000
  H   H346      1.0  0.26440  0.70537  0.05415  1.0000
  C   C197      1.0  0.14761  0.64855  0.16750  1.0000
  C   C198      1.0  0.14802  0.67113  0.15500  1.0000
  C   C199      1.0  0.15346  0.67300  0.12692  1.0000
  C   C200      1.0  0.15897  0.65243  0.11107  1.0000
  C   C201      1.0  0.15883  0.62991  0.12365  1.0000
  C   C202      1.0  0.15305  0.62801  0.15164  1.0000
  H   H347      1.0  0.14388  0.68709  0.16688  1.0000
  H   H348      1.0  0.15342  0.69051  0.11738  1.0000
  H   H349      1.0  0.16294  0.61392  0.11177  1.0000
  H   H350      1.0  0.15279  0.61045  0.16108  1.0000
  C   C203      1.0  0.14200  0.65579  0.36450  1.0000
  C   C204      1.0  0.13525  0.65240  0.39191  1.0000
  C   C205      1.0  0.15221  0.64475  0.41172  1.0000
  C   C206      1.0  0.17610  0.64015  0.40420  1.0000
  C   C207      1.0  0.18281  0.64339  0.37675  1.0000
  C   C208      1.0  0.16592  0.65131  0.35703  1.0000
  H   H351      1.0  0.11678  0.65584  0.39789  1.0000
  H   H352      1.0  0.14679  0.64230  0.43273  1.0000
  H   H353      1.0  0.20123  0.63974  0.37070  1.0000
  H   H354      1.0  0.17132  0.65373  0.33601  1.0000
  C   C209      1.0  0.02489  0.71194  0.24867  1.0000
  C   C210      1.0  0.02089  0.68744  0.25270  1.0000
  C   C211      1.0  0.00472  0.72730  0.24445  1.0000
  H   H355      1.0  0.03603  0.67533  0.25618  1.0000
  H   H356      1.0  0.00744  0.74629  0.24125  1.0000
  C   C212      1.0  0.28758  0.77142  0.42887  1.0000
  H   H357      1.0  0.99081  0.68595  0.14731  1.0000
  H   H358      1.0  0.30932  0.65392  0.01021  1.0000
  H   H359      1.0  0.20347  0.79026  0.32842  1.0000
  Fe  Fe34      1.0  0.18897  0.58190  0.01140  1.0000
  H   H360      1.0  0.31161  0.94364  0.19640  1.0000
  H   H361      1.0  0.20607  0.51171  0.41536  1.0000
  C   C213      1.0  0.26258  0.69817  0.41716  1.0000
  H   H362      1.0  0.28662  0.76044  0.44782  1.0000
  C   C214      1.0  0.21105  0.81789  0.27391  1.0000
  C   C215      1.0  0.18610  0.81429  0.27226  1.0000
  C   C216      1.0  0.17680  0.79096  0.26939  1.0000
  C   C217      1.0  0.19244  0.77096  0.26821  1.0000
  C   C218      1.0  0.21733  0.77453  0.27064  1.0000
  C   C219      1.0  0.22657  0.79780  0.27365  1.0000
  H   H363      1.0  0.17389  0.82969  0.27273  1.0000
  H   H364      1.0  0.15761  0.78853  0.26757  1.0000
  H   H365      1.0  0.22960  0.75920  0.26998  1.0000
  H   H366      1.0  0.24574  0.80020  0.27558  1.0000
  C   C220      1.0  0.24629  0.66388  0.07371  1.0000
  H   H367      1.0  0.25831  0.73436  0.43165  1.0000
  H   H368      1.0  0.23334  0.69777  0.31722  1.0000
  H   H369      1.0  0.20278  0.73115  0.31665  1.0000
  H   H370      1.0  0.21315  0.69604  0.28842  1.0000
  H   H371      1.0  0.13973  0.60368  0.35914  1.0000
  H   H372      1.0  0.30278  0.72352  0.42843  1.0000
  H   H373      1.0  0.30295  0.77798  0.21080  1.0000
  H   H374      1.0  0.22862  0.65529  0.06996  1.0000
  C   C221      1.0  0.01824  0.68052  0.32319  1.0000
  H   H375      1.0  0.23061  0.71791  0.03670  1.0000
  C   C222      1.0  0.99414  0.69411  0.32546  1.0000
  H   H376      1.0  0.27933  0.87048  0.13370  1.0000
  H   H377      1.0  0.13509  0.57255  0.35103  1.0000
  H   H378      1.0  0.28307  0.97149  0.15118  1.0000
  H   H379      1.0  0.26859  0.77615  0.42354  1.0000
  C   C223      1.0  0.30782  0.69248  0.00481  1.0000
  H   H380      1.0  0.30655  0.72078  0.05699  1.0000
  S   S61       1.0  0.30911  0.93892  0.25630  1.0000
  C   C224      1.0  0.26138  0.64555  0.09099  1.0000
  H   H381      1.0  0.26104  0.93057  0.15286  1.0000
  H   H382      1.0  0.19757  0.80246  0.36207  1.0000
  C   C225      1.0  0.21458  0.50611  0.01800  1.0000
  H   H383      1.0  0.21448  0.65971  0.11676  1.0000
  H   H384      1.0  0.28088  0.79791  0.47673  1.0000
  C   C226      1.0  0.21174  0.50891  0.49243  1.0000
  H   H385      1.0  0.23645  0.65671  0.16103  1.0000
  H   H386      1.0  0.19569  0.49755  0.10762  1.0000
  H   H387      1.0  0.23449  0.95643  0.21575  1.0000
  H   H388      1.0  0.22662  0.52058  0.02268  1.0000
  H   H389      1.0  0.17908  0.70965  0.31666  1.0000
  C   C227      1.0  0.28809  0.79507  0.33984  1.0000
  H   H390      1.0  0.23064  0.95318  0.17940  1.0000
  H   H391      1.0  0.18463  0.51193  0.38737  1.0000
  C   C228      1.0  0.22165  0.67022  0.15829  1.0000
  N   N12       1.0  0.23104  0.78603  0.18725  1.0000
  C   C229      1.0  0.21788  0.76284  0.19150  1.0000
  C   C230      1.0  0.25351  0.78642  0.20476  1.0000
  C   C231      1.0  0.21449  0.80643  0.19639  1.0000
  C   C232      1.0  0.23701  0.79017  0.15758  1.0000
  C   C233      1.0  0.25314  0.77092  0.14344  1.0000
  C   C234      1.0  0.19351  0.76054  0.17629  1.0000
  C   C235      1.0  0.22612  0.83150  0.19968  1.0000
  C   C236      1.0  0.26733  0.76224  0.20940  1.0000
  H   H392      1.0  0.24319  0.69444  0.41980  1.0000
  C   C237      1.0  0.25380  0.77491  0.11253  1.0000
  C   C238      1.0  0.18307  0.73556  0.18025  1.0000
  C   C239      1.0  0.20692  0.85116  0.20427  1.0000
  H   H393      1.0  0.21422  0.76039  0.21371  1.0000
  H   H394      1.0  0.22912  0.74700  0.18563  1.0000
  H   H395      1.0  0.26631  0.79968  0.19659  1.0000
  H   H396      1.0  0.24914  0.79287  0.22568  1.0000
  H   H397      1.0  0.20621  0.80212  0.21647  1.0000
  H   H398      1.0  0.19920  0.80877  0.18185  1.0000
  H   H399      1.0  0.22031  0.79279  0.14530  1.0000
  H   H400      1.0  0.24676  0.80727  0.15517  1.0000
  H   H401      1.0  0.24677  0.75247  0.14687  1.0000
  H   H402      1.0  0.27188  0.77235  0.15112  1.0000
  H   H403      1.0  0.18009  0.77380  0.18433  1.0000
  H   H404      1.0  0.19560  0.76333  0.15402  1.0000
  H   H405      1.0  0.23663  0.83662  0.18151  1.0000
  H   H406      1.0  0.23841  0.83165  0.21760  1.0000
  H   H407      1.0  0.25669  0.75046  0.22291  1.0000
  H   H408      1.0  0.27084  0.75241  0.19013  1.0000
  C   C240      1.0  0.99722  0.67853  0.25230  1.0000
  C   C241      1.0  0.31218  0.96818  0.32820  1.0000
  S   S62       1.0  0.15640  0.60694  0.01366  1.0000
  H   H409      1.0  0.23603  0.77106  0.10324  1.0000
  H   H410      1.0  0.25859  0.79371  0.10767  1.0000
  H   H411      1.0  0.26758  0.76277  0.10320  1.0000
  H   H412      1.0  0.16533  0.73461  0.16988  1.0000
  H   H413      1.0  0.19517  0.72148  0.17138  1.0000
  H   H414      1.0  0.18041  0.73179  0.20231  1.0000
  H   H415      1.0  0.19548  0.84675  0.22207  1.0000
  H   H416      1.0  0.21571  0.86852  0.20855  1.0000
  H   H417      1.0  0.19538  0.85331  0.18586  1.0000
  H   H418      1.0  0.20907  0.71009  0.44917  1.0000
  S   S63       1.0  0.17857  0.54168  0.00984  1.0000
  H   H419      1.0  0.25555  0.73075  0.39523  1.0000
  H   H420      1.0  0.19017  0.51050  0.07442  1.0000
  H   H421      1.0  0.18765  0.68689  0.45517  1.0000
  H   H422      1.0  0.19631  0.68924  0.40637  1.0000
  H   H423      1.0  0.16552  0.69763  0.41332  1.0000
  H   H424      1.0  0.22804  0.79767  0.35069  1.0000
  C   C242      1.0  0.26298  0.70494  0.07681  1.0000
  H   H425      1.0  0.17787  0.71796  0.45610  1.0000
  C   C243      1.0  0.30654  0.71741  0.07935  1.0000
  H   H426      1.0  0.20937  0.67615  0.31700  1.0000
  H   H427      1.0  0.06182  0.62483  0.24221  1.0000
  H   H428      1.0  0.11177  0.70454  0.38413  1.0000
  H   H429      1.0  0.25713  0.68060  0.12599  1.0000
  H   H430      1.0  0.10744  0.72474  0.35555  1.0000
  N   N13       1.0  0.06570  0.67162  0.16116  1.0000
  C   C244      1.0  0.07348  0.69380  0.17636  1.0000
  C   C245      1.0  0.07226  0.64966  0.17788  1.0000
  C   C246      1.0  0.08016  0.67019  0.13502  1.0000
  C   C247      1.0  0.03916  0.67217  0.15415  1.0000
  C   C248      1.0  0.02206  0.68570  0.17441  1.0000
  C   C249      1.0  0.07207  0.71750  0.15962  1.0000
  C   C250      1.0  0.07780  0.64683  0.11794  1.0000
  C   C251      1.0  0.06028  0.64754  0.20622  1.0000
  H   H431      1.0  0.24995  0.63786  0.10722  1.0000
  H   H432      1.0  0.23109  0.58765  0.42949  1.0000
  C   C252      1.0  0.07102  0.73969  0.17805  1.0000
  C   C253      1.0  0.08907  0.64951  0.08967  1.0000
  H   H433      1.0  0.09247  0.69145  0.18337  1.0000
  H   H434      1.0  0.06312  0.69654  0.19548  1.0000
  H   H435      1.0  0.06732  0.63297  0.16689  1.0000
  H   H436      1.0  0.09213  0.64854  0.18085  1.0000
  H   H437      1.0  0.09967  0.67222  0.13955  1.0000
  H   H438      1.0  0.07514  0.68536  0.12122  1.0000
  H   H439      1.0  0.03593  0.68078  0.13390  1.0000
  H   H440      1.0  0.03260  0.65351  0.15167  1.0000
  H   H441      1.0  0.02428  0.70541  0.17277  1.0000
  S   S64       1.0  0.31906  0.73737  0.48461  1.0000
  H   H442      1.0  0.08832  0.71875  0.14654  1.0000
  H   H443      1.0  0.05606  0.71812  0.14606  1.0000
  H   H444      1.0  0.05866  0.64207  0.11521  1.0000
  H   H445      1.0  0.08753  0.63167  0.12816  1.0000
  H   H446      1.0  0.06345  0.66360  0.21900  1.0000
  H   H447      1.0  0.04067  0.64494  0.20386  1.0000
  C   C254      1.0  0.24101  0.68894  0.11633  1.0000
  H   H448      1.0  0.28354  0.80361  0.38223  1.0000
  H   H449      1.0  0.01782  0.66709  0.30639  1.0000
  H   H450      1.0  0.27238  0.69153  0.43556  1.0000
  H   H451      1.0  0.26929  0.78993  0.33552  1.0000
  C   C255      1.0  0.27493  0.97689  0.25404  1.0000
  H   H452      1.0  0.08652  0.73972  0.19239  1.0000
  H   H453      1.0  0.07151  0.75621  0.16541  1.0000
  H   H454      1.0  0.05405  0.74014  0.19001  1.0000
  H   H455      1.0  0.10835  0.65415  0.09152  1.0000
  H   H456      1.0  0.08796  0.63228  0.07827  1.0000
  H   H457      1.0  0.07946  0.66371  0.07773  1.0000
  N   N14       1.0  0.16608  0.54690  0.42531  1.0000
  C   C256      1.0  0.15702  0.55261  0.39688  1.0000
  C   C257      1.0  0.16921  0.51998  0.42826  1.0000
  C   C258      1.0  0.14666  0.55496  0.44513  1.0000
  C   C259      1.0  0.18914  0.55957  0.43225  1.0000
  C   C260      1.0  0.20720  0.56323  0.40843  1.0000
  C   C261      1.0  0.14888  0.57916  0.39214  1.0000
  C   C262      1.0  0.15092  0.54849  0.47560  1.0000
  H   H458      1.0  0.17950  0.69824  0.04001  1.0000
  C   C263      1.0  0.21854  0.67646  0.12809  1.0000
  C   C264      1.0  0.23204  0.57003  0.41891  1.0000
  H   H459      1.0  0.20478  0.66240  0.16612  1.0000
  C   C265      1.0  0.30016  0.79473  0.43815  1.0000
  H   H460      1.0  0.14136  0.54123  0.39178  1.0000
  H   H461      1.0  0.17065  0.54796  0.38117  1.0000
  H   H462      1.0  0.17569  0.51527  0.44912  1.0000
  H   H463      1.0  0.15147  0.51122  0.42577  1.0000
  H   H464      1.0  0.12899  0.54745  0.43901  1.0000
  H   H465      1.0  0.14429  0.57489  0.44462  1.0000
  H   H466      1.0  0.18525  0.57790  0.44062  1.0000
  H   H467      1.0  0.19871  0.54999  0.44916  1.0000
  H   H468      1.0  0.20066  0.57798  0.39489  1.0000
  H   H469      1.0  0.20960  0.54704  0.39559  1.0000
  H   H470      1.0  0.13078  0.58245  0.40115  1.0000
  H   H471      1.0  0.16144  0.59178  0.40190  1.0000
  C   C266      1.0  0.28652  0.88835  0.12823  1.0000
  H   H472      1.0  0.30545  0.96478  0.34916  1.0000
  H   H473      1.0  0.02258  0.67112  0.34265  1.0000
  H   H474      1.0  0.12927  0.57883  0.49115  1.0000
  H   H475      1.0  0.25452  0.66500  0.05307  1.0000
  C   C267      1.0  0.18243  0.49909  0.09067  1.0000
  H   H476      1.0  0.25647  0.61562  0.06277  1.0000
  H   H477      1.0  0.29180  0.93647  0.12206  1.0000
  H   H478      1.0  0.23937  0.55615  0.43313  1.0000
  H   H479      1.0  0.24459  0.57165  0.40143  1.0000
  H   H480      1.0  0.14016  0.73254  0.40540  1.0000
  H   H481      1.0  0.31480  0.87189  0.10316  1.0000
  C   C268      1.0  0.29148  0.76629  0.22348  1.0000
  C   C269      1.0  0.99568  0.68052  0.16847  1.0000
  N   N15       1.0  0.18197  0.72891  0.37097  1.0000
  C   C270      1.0  0.19878  0.71200  0.35575  1.0000
  C   C271      1.0  0.18837  0.72793  0.40095  1.0000
  C   C272      1.0  0.15647  0.72115  0.36604  1.0000
  C   C273      1.0  0.18415  0.75441  0.36105  1.0000
  C   C274      1.0  0.20980  0.76488  0.36173  1.0000
  C   C275      1.0  0.19748  0.71325  0.32413  1.0000
  C   C276      1.0  0.13671  0.73424  0.38316  1.0000
  C   C277      1.0  0.18439  0.70344  0.41526  1.0000
  C   C278      1.0  0.19014  0.70484  0.44577  1.0000
  C   C279      1.0  0.20964  0.79034  0.35003  1.0000
  C   C280      1.0  0.21444  0.69461  0.31103  1.0000
  C   C281      1.0  0.11203  0.72365  0.37763  1.0000
  H   H482      1.0  0.19509  0.69307  0.36128  1.0000
  H   H483      1.0  0.21778  0.71477  0.36202  1.0000
  H   H484      1.0  0.20769  0.73194  0.40397  1.0000
  H   H485      1.0  0.17846  0.74225  0.41251  1.0000
  H   H486      1.0  0.15491  0.70156  0.36943  1.0000
  H   H487      1.0  0.15133  0.72381  0.34425  1.0000
  H   H488      1.0  0.17694  0.75625  0.33983  1.0000
  H   H489      1.0  0.17270  0.76676  0.37361  1.0000
  H   H490      1.0  0.22268  0.75385  0.34952  1.0000
  H   H491      1.0  0.21664  0.76593  0.38302  1.0000
  H   H492      1.0  0.25899  0.72377  0.08337  1.0000
  H   H493      1.0  0.09007  0.62698  0.22453  1.0000
  H   H494      1.0  0.30416  0.80668  0.42082  1.0000
  C   C282      1.0  0.14718  0.58514  0.36173  1.0000
  C   C283      1.0  0.13096  0.55905  0.49371  1.0000
  H   H495      1.0  0.30108  0.74880  0.22652  1.0000
  H   H496      1.0  0.27697  0.65369  0.10116  1.0000
  H   H497      1.0  0.28412  0.63153  0.05818  1.0000
  H   H498      1.0  0.24059  0.70777  0.12415  1.0000
  H   H499      1.0  0.21574  0.71753  0.08463  1.0000
  H   H500      1.0  0.03276  0.69338  0.31882  1.0000
  H   H501      1.0  0.22270  0.68678  0.03249  1.0000
  C   C284      1.0  0.26609  0.72517  0.41347  1.0000
  C   C285      1.0  0.29462  0.79084  0.36986  1.0000
  H   H502      1.0  0.99196  0.70560  0.30701  1.0000
  H   H503      1.0  0.29464  0.82513  0.46530  1.0000
  H   H504      1.0  0.23001  0.92700  0.20143  1.0000
  H   H505      1.0  0.16529  0.58427  0.35222  1.0000
  H   H506      1.0  0.28080  0.61148  0.08671  1.0000
  H   H507      1.0  0.26136  0.96351  0.25697  1.0000
  C   C286      1.0  0.07030  0.62568  0.22172  1.0000
  C   C287      1.0  0.21961  0.69984  0.07464  1.0000
  C   C288      1.0  0.26576  0.94135  0.19493  1.0000
  H   H508      1.0  0.20260  0.68875  0.12633  1.0000
  C   C289      1.0  0.21818  0.70374  0.04334  1.0000
  C   C290      1.0  0.28866  0.69791  0.08657  1.0000
  H   H509      1.0  0.28961  0.69533  0.10897  1.0000
  H   H510      1.0  0.28870  0.77486  0.24380  1.0000
  N   N16       1.0  0.24283  0.68886  0.08553  1.0000
  C   C291      1.0  0.23853  0.94461  0.19794  1.0000
  C   C292      1.0  0.31467  0.92570  0.18698  1.0000
  H   H511      1.0  0.06641  0.60884  0.21047  1.0000
  H   H512      1.0  0.18786  0.72929  0.04435  1.0000
  H   H513      1.0  0.26759  0.81511  0.44883  1.0000
  C   C293      1.0  0.18749  0.50715  0.40910  1.0000
  C   C294      1.0  0.31108  0.81831  0.12861  1.0000
  C   C295      1.0  0.28473  0.80902  0.45850  1.0000
  S   S65       1.0  0.29909  0.83424  0.18021  1.0000
  H   H514      1.0  0.21956  0.52338  0.48103  1.0000
  H   H515      1.0  0.29411  0.80929  0.12944  1.0000
  C   C296      1.0  0.27123  0.62480  0.07354  1.0000
  C   C297      1.0  0.19293  0.71191  0.03451  1.0000
  H   H516      1.0  0.31752  0.86354  0.40572  1.0000
  H   H517      1.0  0.29614  0.75235  0.36219  1.0000
  H   H518      1.0  0.16833  0.55560  0.48260  1.0000
  H   H519      1.0  0.11347  0.55085  0.48859  1.0000
  C   C298      1.0  0.27223  0.92451  0.17055  1.0000
  H   H520      1.0  0.30050  0.78462  0.32634  1.0000
  H   H521      1.0  0.28989  0.81443  0.33490  1.0000
  N   N17       1.0  0.29927  0.75697  0.40601  1.0000
  H   H522      1.0  0.26920  0.68805  0.39898  1.0000
  H   H523      1.0  0.15095  0.52879  0.47898  1.0000
  H   H524      1.0  0.27219  0.71786  0.48145  1.0000
  H   H525      1.0  0.26506  0.90665  0.17633  1.0000
  H   H526      1.0  0.99523  0.70610  0.34346  1.0000
  N   N18       1.0  0.29853  0.92219  0.16244  1.0000
  H   H527      1.0  0.19244  0.71429  0.01198  1.0000
  H   H528      1.0  0.99452  0.65953  0.25532  1.0000
  H   H529      1.0  0.16570  0.50809  0.09820  1.0000
  H   H530      1.0  0.29483  0.68121  0.07601  1.0000
  C   C299      1.0  0.30310  0.89695  0.15198  1.0000
  H   H531      1.0  0.27356  0.95938  0.19277  1.0000
  H   H532      1.0  0.22560  0.68655  0.17046  1.0000
  C   C300      1.0  0.29320  0.73082  0.41005  1.0000
  H   H533      1.0  0.27066  0.90028  0.12472  1.0000
  C   C301      1.0  0.29995  0.88542  0.10113  1.0000
  H   H534      1.0  0.29905  0.97845  0.10451  1.0000
  C   C302      1.0  0.19061  0.51148  0.01112  1.0000
  C   C303      1.0  0.28335  0.70506  0.49256  1.0000
  H   H535      1.0  0.30749  0.90274  0.09444  1.0000
  H   H536      1.0  0.31379  0.79513  0.37237  1.0000
  C   C304      1.0  0.17536  0.49218  0.00511  1.0000
  S   S66       1.0  0.19128  0.65225  0.00458  1.0000
  H   H537      1.0  0.30114  0.88399  0.16910  1.0000
  Fe  Fe35      1.0  0.31334  0.85146  0.28448  1.0000
  H   H538      1.0  0.31354  0.86138  0.35510  1.0000
  H   H539      1.0  0.99214  0.66111  0.17126  1.0000
  C   C305      1.0  0.31019  0.98187  0.12295  1.0000
  Fe  Fe36      1.0  0.22204  0.62557  0.00407  1.0000
  H   H540      1.0  0.25470  0.67977  0.49751  1.0000
  C   C306      1.0  0.30207  0.96640  0.14684  1.0000
  H   H541      1.0  0.31003  0.91257  0.20322  1.0000
  H   H542      1.0  0.28742  0.87902  0.08510  1.0000
  H   H543      1.0  0.31742  0.79009  0.44858  1.0000
  C   C307      1.0  0.29791  0.66931  0.00532  1.0000
  C   C308      1.0  0.30756  0.71027  0.49778  1.0000
  C   C309      1.0  0.30413  0.93933  0.13966  1.0000
  S   S67       1.0  0.26155  0.63640  0.00165  1.0000
  C   C310      1.0  0.31851  0.83196  0.15126  1.0000
  H   H544      1.0  0.31927  0.80570  0.08763  1.0000
  H   H545      1.0  0.30762  0.78686  0.92731  1.0000
  S   S68       1.0  0.27947  0.86440  0.79387  1.0000
  H   H546      1.0  0.01782  0.68519  0.65406  1.0000
  S   S69       1.0  0.26019  0.87189  0.73150  1.0000
  Fe  Fe37      1.0  0.28703  0.88991  0.75925  1.0000
  S   S70       1.0  0.29953  0.92905  0.76536  1.0000
  Fe  Fe38      1.0  0.25565  0.84407  0.76464  1.0000
  S   S71       1.0  0.22439  0.82419  0.78381  1.0000
  S   S72       1.0  0.28519  0.81970  0.74907  1.0000
  Fe  Fe39      1.0  0.13008  0.67904  0.72227  1.0000
  S   S73       1.0  0.10262  0.70847  0.71449  1.0000
  S   S74       1.0  0.15359  0.65753  0.69187  1.0000
  Fe  Fe40      1.0  0.12857  0.68726  0.78556  1.0000
  S   S75       1.0  0.10113  0.71769  0.78164  1.0000
  S   S76       1.0  0.15243  0.67735  0.82252  1.0000
  Fe  Fe41      1.0  0.08231  0.69393  0.75077  1.0000
  S   S77       1.0  0.04228  0.68270  0.75073  1.0000
  Fe  Fe42      1.0  0.12338  0.72987  0.74578  1.0000
  S   S78       1.0  0.13543  0.76756  0.73438  1.0000
  S   S79       1.0  0.10898  0.66277  0.75672  1.0000
  S   S80       1.0  0.15145  0.70125  0.75150  1.0000
  Fe  Fe43      1.0  0.17202  0.62613  0.97748  1.0000
  S   S81       1.0  0.20380  0.60051  0.97431  1.0000
  S   S82       1.0  0.14433  0.63429  0.94356  1.0000
  Fe  Fe44      1.0  0.18489  0.63367  0.53420  1.0000
  S   S83       1.0  0.21438  0.60959  0.55036  1.0000
  S   S84       1.0  0.15776  0.65411  0.56118  1.0000
  H   H547      1.0  0.25050  0.95016  0.75957  1.0000
  H   H548      1.0  0.29057  0.76797  0.94868  1.0000
  H   H549      1.0  0.23345  0.72330  0.67253  1.0000
  H   H550      1.0  0.28108  0.77611  0.61261  1.0000
  H   H551      1.0  0.01518  0.75031  0.82040  1.0000
  C   C311      1.0  0.12303  0.54419  0.88546  1.0000
  C   C312      1.0  0.10924  0.57685  0.96623  1.0000
  C   C313      1.0  0.28799  0.95889  0.75936  1.0000
  C   C314      1.0  0.28758  0.66660  0.51584  1.0000
  H   H552      1.0  0.27680  0.74211  0.57880  1.0000
  C   C315      1.0  0.99924  0.70531  0.82834  1.0000
  C   C316      1.0  0.15469  0.65775  0.65551  1.0000
  C   C317      1.0  0.13635  0.66804  0.63951  1.0000
  C   C318      1.0  0.13771  0.66695  0.61071  1.0000
  C   C319      1.0  0.15736  0.65559  0.59754  1.0000
  C   C320      1.0  0.17587  0.64558  0.61356  1.0000
  C   C321      1.0  0.17447  0.64662  0.64234  1.0000
  H   H553      1.0  0.12099  0.67662  0.64930  1.0000
  H   H554      1.0  0.12331  0.67482  0.59854  1.0000
  H   H555      1.0  0.19123  0.63705  0.60377  1.0000
  H   H556      1.0  0.18888  0.63882  0.65453  1.0000
  C   C322      1.0  0.14958  0.66530  0.85610  1.0000
  C   C323      1.0  0.17025  0.66323  0.87273  1.0000
  C   C324      1.0  0.16904  0.65385  0.89949  1.0000
  C   C325      1.0  0.14708  0.64630  0.90997  1.0000
  C   C326      1.0  0.12642  0.64825  0.89331  1.0000
  C   C327      1.0  0.12762  0.65771  0.86657  1.0000
  H   H557      1.0  0.18733  0.66904  0.86488  1.0000
  H   H558      1.0  0.18507  0.65254  0.91200  1.0000
  H   H559      1.0  0.10934  0.64249  0.90119  1.0000
  H   H560      1.0  0.11162  0.65916  0.85410  1.0000
  C   C328      1.0  0.01212  0.69490  0.75180  1.0000
  H   H561      1.0  0.27883  0.75992  0.52142  1.0000
  C   C329      1.0  0.00682  0.71956  0.74972  1.0000
  H   H562      1.0  0.12195  0.51320  0.85807  1.0000
  H   H563      1.0  0.02128  0.73199  0.74686  1.0000
  C   C330      1.0  0.26335  0.96441  0.75791  1.0000
  H   H564      1.0  0.24016  0.68355  0.98808  1.0000
  H   H565      1.0  0.01611  0.66026  0.67778  1.0000
  H   H566      1.0  0.02881  0.68450  0.87538  1.0000
  C   C331      1.0  0.04036  0.71892  0.81977  1.0000
  H   H567      1.0  0.22893  0.50460  0.93220  1.0000
  H   H568      1.0  0.15431  0.57399  0.70318  1.0000
  C   C332      1.0  0.03261  0.67622  0.82525  1.0000
  H   H569      1.0  0.17543  0.56649  0.65905  1.0000
  C   C333      1.0  0.20181  0.80697  0.76755  1.0000
  C   C334      1.0  0.18907  0.81569  0.74483  1.0000
  C   C335      1.0  0.16883  0.80342  0.73501  1.0000
  C   C336      1.0  0.16142  0.78196  0.74727  1.0000
  C   C337      1.0  0.17469  0.77275  0.76937  1.0000
  C   C338      1.0  0.19451  0.78540  0.77969  1.0000
  H   H570      1.0  0.19408  0.83252  0.73567  1.0000
  H   H571      1.0  0.15865  0.81078  0.71800  1.0000
  H   H572      1.0  0.16918  0.75633  0.77912  1.0000
  H   H573      1.0  0.20395  0.77870  0.79756  1.0000
  C   C339      1.0  0.14745  0.59069  0.69322  1.0000
  H   H574      1.0  0.29122  0.69186  0.56936  1.0000
  H   H575      1.0  0.21500  0.73594  0.64667  1.0000
  H   H576      1.0  0.19139  0.59141  0.60320  1.0000
  H   H577      1.0  0.23550  0.90259  0.69056  1.0000
  H   H578      1.0  0.20564  0.68522  0.66948  1.0000
  C   C340      1.0  0.14313  0.58708  0.60375  1.0000
  C   C341      1.0  0.14466  0.58935  0.57216  1.0000
  C   C342      1.0  0.12186  0.60120  0.56041  1.0000
  H   H579      1.0  0.12460  0.58164  0.60929  1.0000
  H   H580      1.0  0.14471  0.60593  0.61118  1.0000
  H   H581      1.0  0.18430  0.56705  0.58181  1.0000
  H   H582      1.0  0.16009  0.60077  0.56677  1.0000
  H   H583      1.0  0.14748  0.57193  0.56169  1.0000
  C   C343      1.0  0.03441  0.74593  0.82428  1.0000
  C   C344      1.0  0.28958  0.77867  0.92952  1.0000
  C   C345      1.0  0.27439  0.81045  0.96321  1.0000
  N   N19       1.0  0.15960  0.55406  0.91625  1.0000
  C   C346      1.0  0.17745  0.54187  0.93522  1.0000
  C   C347      1.0  0.14375  0.57078  0.93294  1.0000
  C   C348      1.0  0.14515  0.53500  0.90213  1.0000
  C   C349      1.0  0.17201  0.56860  0.89464  1.0000
  C   C350      1.0  0.19006  0.58738  0.90515  1.0000
  C   C351      1.0  0.01219  0.67974  0.67487  1.0000
  C   C352      1.0  0.25891  0.68593  0.99314  1.0000
  C   C353      1.0  0.20170  0.60052  0.88137  1.0000
  H   H584      1.0  0.16799  0.52977  0.94956  1.0000
  H   H585      1.0  0.18620  0.55524  0.94872  1.0000
  H   H586      1.0  0.15494  0.58334  0.94498  1.0000
  H   H587      1.0  0.13255  0.58263  0.91943  1.0000
  H   H588      1.0  0.13898  0.52137  0.91705  1.0000
  H   H589      1.0  0.18155  0.55660  0.87980  1.0000
  H   H590      1.0  0.15850  0.57890  0.88231  1.0000
  H   H591      1.0  0.20470  0.57883  0.91734  1.0000
  H   H592      1.0  0.18080  0.60114  0.91794  1.0000
  C   C354      1.0  0.27968  0.91530  0.67023  1.0000
  H   H593      1.0  0.10991  0.55404  0.89861  1.0000
  H   H594      1.0  0.29925  0.78836  0.87766  1.0000
  H   H595      1.0  0.13819  0.55109  0.97118  1.0000
  H   H596      1.0  0.11817  0.61882  0.57047  1.0000
  H   H597      1.0  0.30137  0.84360  0.84551  1.0000
  H   H598      1.0  0.25774  0.75901  0.85348  1.0000
  H   H599      1.0  0.21220  0.58773  0.86838  1.0000
  H   H600      1.0  0.18778  0.60984  0.86868  1.0000
  H   H601      1.0  0.21407  0.61426  0.88948  1.0000
  H   H602      1.0  0.28093  0.66725  0.60967  1.0000
  H   H603      1.0  0.02297  0.68982  0.69005  1.0000
  C   C355      1.0  0.31667  0.83699  0.88557  1.0000
  H   H604      1.0  0.09414  0.53028  0.86047  1.0000
  C   C356      1.0  0.31665  0.92479  0.69502  1.0000
  H   H605      1.0  0.29267  0.75878  0.67085  1.0000
  H   H606      1.0  0.22757  0.55509  0.57835  1.0000
  H   H607      1.0  0.28623  0.71245  0.61329  1.0000
  H   H608      1.0  0.27309  0.78331  0.66012  1.0000
  C   C357      1.0  0.18556  0.57236  0.60357  1.0000
  C   C358      1.0  0.21393  0.51442  0.94255  1.0000
  H   H609      1.0  0.24544  0.76119  0.90434  1.0000
  N   N20       1.0  0.31289  0.73438  0.59374  1.0000
  C   C359      1.0  0.14445  0.50551  0.59663  1.0000
  C   C360      1.0  0.30632  0.83048  0.61875  1.0000
  H   H610      1.0  0.04977  0.70717  0.86918  1.0000
  H   H611      1.0  0.09672  0.58366  0.95015  1.0000
  C   C361      1.0  0.30428  0.97789  0.75731  1.0000
  H   H612      1.0  0.29597  0.96187  0.66878  1.0000
  H   H613      1.0  0.23098  0.69737  0.89169  1.0000
  H   H614      1.0  0.13091  0.59693  0.70403  1.0000
  C   C362      1.0  0.14921  0.53216  0.59202  1.0000
  C   C363      1.0  0.28990  0.77307  0.65528  1.0000
  H   H615      1.0  0.22778  0.71440  0.92286  1.0000
  C   C364      1.0  0.01454  0.71987  0.88287  1.0000
  H   H616      1.0  0.11870  0.59232  0.97531  1.0000
  H   H617      1.0  0.02585  0.70499  0.92221  1.0000
  H   H618      1.0  0.27980  0.89596  0.67626  1.0000
  H   H619      1.0  0.29250  0.81831  0.96502  1.0000
  N   N21       1.0  0.02548  0.70110  0.83529  1.0000
  H   H620      1.0  0.12852  0.50321  0.60995  1.0000
  Fe  Fe45      1.0  0.29129  0.84819  0.71725  1.0000
  H   H621      1.0  0.04448  0.78074  0.80845  1.0000
  C   C365      1.0  0.03063  0.70246  0.86563  1.0000
  H   H622      1.0  0.23524  0.57945  0.60116  1.0000
  C   C366      1.0  0.02453  0.72270  0.91180  1.0000
  H   H623      1.0  0.22990  0.92871  0.66941  1.0000
  H   H624      1.0  0.02625  0.67352  0.80391  1.0000
  C   C367      1.0  0.19022  0.49465  0.53170  1.0000
  H   H625      1.0  0.21938  0.72780  0.89037  1.0000
  H   H626      1.0  0.31269  0.66165  0.61628  1.0000
  C   C368      1.0  0.27753  0.78343  0.82912  1.0000
  C   C369      1.0  0.28228  0.77831  0.88038  1.0000
  H   H627      1.0  0.28505  0.79103  0.52820  1.0000
  H   H628      1.0  0.24613  0.68639  0.64758  1.0000
  H   H629      1.0  0.04487  0.75706  0.78327  1.0000
  H   H630      1.0  0.14089  0.49664  0.57670  1.0000
  H   H631      1.0  0.27474  0.74766  0.62763  1.0000
  C   C370      1.0  0.12724  0.55865  0.95414  1.0000
  H   H632      1.0  0.30266  0.73266  0.88501  1.0000
  H   H633      1.0  0.22166  0.52803  0.95654  1.0000
  H   H634      1.0  0.31772  0.82131  0.57758  1.0000
  Fe  Fe46      1.0  0.23751  0.62718  0.51854  1.0000
  H   H635      1.0  0.18100  0.49817  0.55072  1.0000
  H   H636      1.0  0.01287  0.73796  0.87372  1.0000
  H   H637      1.0  0.26775  0.79214  0.88291  1.0000
  H   H638      1.0  0.25726  0.72445  0.98811  1.0000
  S   S85       1.0  0.29115  0.84302  0.67056  1.0000
  C   C371      1.0  0.31276  0.73088  0.92785  1.0000
  H   H639      1.0  0.30942  0.91039  0.70828  1.0000
  C   C372      1.0  0.29568  0.74185  0.57130  1.0000
  C   C373      1.0  0.31316  0.75268  0.61659  1.0000
  H   H640      1.0  0.27928  0.91424  0.86740  1.0000
  S   S86       1.0  0.17266  0.60671  0.50268  1.0000
  H   H641      1.0  0.26075  0.82502  0.96649  1.0000
  H   H642      1.0  0.24434  0.54898  0.60915  1.0000
  C   C374      1.0  0.23752  0.92235  0.68918  1.0000
  C   C375      1.0  0.23247  0.71557  0.90085  1.0000
  C   C376      1.0  0.28071  0.77361  0.53784  1.0000
  H   H643      1.0  0.26506  0.79905  0.83239  1.0000
  H   H644      1.0  0.03903  0.71528  0.79743  1.0000
  H   H645      1.0  0.26225  0.72447  0.87531  1.0000
  Fe  Fe47      1.0  0.30895  0.84096  0.77717  1.0000
  C   C377      1.0  0.10986  0.52327  0.87229  1.0000
  C   C378      1.0  0.25811  0.72448  0.89739  1.0000
  H   H646      1.0  0.10621  0.58942  0.56333  1.0000
  H   H647      1.0  0.20375  0.50127  0.95474  1.0000
  H   H648      1.0  0.13535  0.54489  0.63015  1.0000
  H   H649      1.0  0.11671  0.54394  0.94511  1.0000
  N   N22       1.0  0.19788  0.73388  0.68649  1.0000
  C   C379      1.0  0.17238  0.72543  0.68359  1.0000
  C   C380      1.0  0.20686  0.72755  0.71481  1.0000
  C   C381      1.0  0.19707  0.76099  0.68437  1.0000
  C   C382      1.0  0.21460  0.72381  0.66475  1.0000
  C   C383      1.0  0.15921  0.73247  0.65654  1.0000
  C   C384      1.0  0.22090  0.77397  0.69082  1.0000
  C   C385      1.0  0.21046  0.70047  0.72119  1.0000
  C   C386      1.0  0.21773  0.69666  0.75107  1.0000
  C   C387      1.0  0.14000  0.75226  0.66055  1.0000
  C   C388      1.0  0.22057  0.79965  0.67977  1.0000
  H   H650      1.0  0.16131  0.73184  0.70121  1.0000
  H   H651      1.0  0.17155  0.70563  0.68526  1.0000
  H   H652      1.0  0.22472  0.73542  0.71877  1.0000
  H   H653      1.0  0.19451  0.73558  0.73049  1.0000
  H   H654      1.0  0.18317  0.76864  0.69838  1.0000
  H   H655      1.0  0.19132  0.76665  0.66355  1.0000
  H   H656      1.0  0.19250  0.69936  0.64019  1.0000
  H   H657      1.0  0.17180  0.73790  0.64026  1.0000
  H   H658      1.0  0.14989  0.71644  0.64851  1.0000
  H   H659      1.0  0.23663  0.76425  0.68190  1.0000
  H   H660      1.0  0.22348  0.77519  0.71334  1.0000
  H   H661      1.0  0.19391  0.69024  0.71746  1.0000
  H   H662      1.0  0.22520  0.69271  0.70849  1.0000
  H   H663      1.0  0.20384  0.70435  0.76505  1.0000
  H   H664      1.0  0.21961  0.67711  0.75532  1.0000
  H   H665      1.0  0.23518  0.70524  0.75546  1.0000
  H   H666      1.0  0.12604  0.74623  0.67504  1.0000
  H   H667      1.0  0.14789  0.76899  0.66862  1.0000
  H   H668      1.0  0.13114  0.75638  0.64070  1.0000
  H   H669      1.0  0.20478  0.80997  0.68777  1.0000
  H   H670      1.0  0.23715  0.80890  0.68636  1.0000
  H   H671      1.0  0.21991  0.79957  0.65709  1.0000
  H   H672      1.0  0.16532  0.53429  0.63235  1.0000
  H   H673      1.0  0.26338  0.77581  0.54887  1.0000
  H   H674      1.0  0.08426  0.63946  0.81886  1.0000
  H   H675      1.0  0.29613  0.72845  0.55438  1.0000
  H   H676      1.0  0.22452  0.67098  0.62680  1.0000
  C   C389      1.0  0.20888  0.69849  0.65318  1.0000
  C   C390      1.0  0.22976  0.56038  0.60012  1.0000
  H   H677      1.0  0.06861  0.75863  0.80857  1.0000
  H   H678      1.0  0.13283  0.60268  0.65503  1.0000
  H   H679      1.0  0.16518  0.53325  0.57868  1.0000
  H   H680      1.0  0.04261  0.73082  0.91125  1.0000
  H   H681      1.0  0.18975  0.51195  0.90864  1.0000
  H   H682      1.0  0.31979  0.69654  0.90752  1.0000
  H   H683      1.0  0.22710  0.93096  0.70603  1.0000
  H   H684      1.0  0.02356  0.66223  0.83749  1.0000
  C   C391      1.0  0.30560  0.74551  0.90198  1.0000
  H   H685      1.0  0.13324  0.53986  0.58128  1.0000
  H   H686      1.0  0.13523  0.55514  0.51546  1.0000
  H   H687      1.0  0.15669  0.52463  0.88756  1.0000
  H   H688      1.0  0.12858  0.55637  0.86883  1.0000
  H   H689      1.0  0.05713  0.63887  0.79873  1.0000
  H   H690      1.0  0.20993  0.56174  0.63744  1.0000
  N   N23       1.0  0.16157  0.57092  0.61779  1.0000
  C   C392      1.0  0.99283  0.67916  0.75549  1.0000
  H   H691      1.0  0.27352  0.81409  0.91978  1.0000
  H   H692      1.0  0.27220  0.77434  0.80986  1.0000
  H   H693      1.0  0.27032  0.71102  0.90717  1.0000
  C   C393      1.0  0.22941  0.68875  0.63533  1.0000
  C   C394      1.0  0.06457  0.64328  0.81921  1.0000
  C   C395      1.0  0.26107  0.74965  0.91075  1.0000
  H   H694      1.0  0.23275  0.70110  0.61800  1.0000
  C   C396      1.0  0.15292  0.54543  0.61946  1.0000
  H   H695      1.0  0.25853  0.74679  0.93311  1.0000
  H   H696      1.0  0.20219  0.53745  0.61470  1.0000
  H   H697      1.0  0.26470  0.94886  0.68910  1.0000
  H   H698      1.0  0.29610  0.79000  0.82659  1.0000
  C   C397      1.0  0.16498  0.57991  0.64674  1.0000
  C   C398      1.0  0.27108  0.79945  0.93485  1.0000
  C   C399      1.0  0.26394  0.92913  0.69158  1.0000
  S   S87       1.0  0.31816  0.86707  0.74362  1.0000
  H   H699      1.0  0.99613  0.71273  0.88469  1.0000
  H   H700      1.0  0.06782  0.67370  0.84620  1.0000
  H   H701      1.0  0.99697  0.70724  0.80586  1.0000
  H   H702      1.0  0.30267  0.84710  0.89611  1.0000
  H   H703      1.0  0.27225  0.79666  0.97938  1.0000
  H   H704      1.0  0.17589  0.59647  0.64685  1.0000
  S   S88       1.0  0.19560  0.54402  0.53004  1.0000
  C   C400      1.0  0.20639  0.55684  0.61586  1.0000
  H   H705      1.0  0.16112  0.60486  0.69529  1.0000
  C   C401      1.0  0.14171  0.58608  0.66311  1.0000
  C   C402      1.0  0.05992  0.66982  0.82584  1.0000
  H   H706      1.0  0.12423  0.60438  0.53820  1.0000
  N   N24       1.0  0.28431  0.76251  0.90540  1.0000
  S   S89       1.0  0.20855  0.65280  0.50418  1.0000
  H   H707      1.0  0.26991  0.91615  0.65035  1.0000
  H   H708      1.0  0.28436  0.88668  0.84888  1.0000
  H   H709      1.0  0.31165  0.94196  0.70555  1.0000
  C   C403      1.0  0.04902  0.76145  0.80493  1.0000
  H   H710      1.0  0.12860  0.57139  0.66215  1.0000
  C   C404      1.0  0.30087  0.76623  0.55756  1.0000
  H   H711      1.0  0.05632  0.63166  0.83488  1.0000
  H   H712      1.0  0.27006  0.92472  0.71262  1.0000
  H   H713      1.0  0.25235  0.79312  0.93338  1.0000
  H   H714      1.0  0.28675  0.91532  0.83159  1.0000
  C   C405      1.0  0.27337  0.68343  0.50160  1.0000
  H   H715      1.0  0.31775  0.76471  0.54561  1.0000
  H   H716      1.0  0.06956  0.68024  0.81012  1.0000
  H   H717      1.0  0.05974  0.71672  0.82507  1.0000
  C   C406      1.0  0.19963  0.51403  0.51690  1.0000
  C   C407      1.0  0.27637  0.76577  0.85298  1.0000
  H   H718      1.0  0.20892  0.53759  0.90804  1.0000
  C   C408      1.0  0.19751  0.52643  0.92128  1.0000
  H   H719      1.0  0.16039  0.49646  0.60613  1.0000
  H   H720      1.0  0.28806  0.83495  0.61267  1.0000
  H   H721      1.0  0.03934  0.75127  0.84536  1.0000
  C   C409      1.0  0.31838  0.90572  0.64920  1.0000
  C   C410      1.0  0.29319  0.71256  0.99887  1.0000
  C   C411      1.0  0.31308  0.83291  0.64639  1.0000
  H   H722      1.0  0.28912  0.75073  0.84847  1.0000
  H   H723      1.0  0.29679  0.72423  0.93877  1.0000
  C   C412      1.0  0.27335  0.66589  0.99975  1.0000
  H   H724      1.0  0.29153  0.88905  0.62281  1.0000
  Fe  Fe48      1.0  0.20362  0.58316  0.51743  1.0000
  H   H725      1.0  0.31955  0.88802  0.65988  1.0000
  H   H726      1.0  0.30284  0.78080  0.57273  1.0000
  C   C413      1.0  0.29906  0.66585  0.60026  1.0000
  S   S90       1.0  0.30394  0.74248  0.99964  1.0000
  H   H727      1.0  0.01237  0.73471  0.92388  1.0000
  C   C414      1.0  0.28817  0.76203  0.62671  1.0000
  C   C415      1.0  0.29023  0.90554  0.85105  1.0000
  H   H728      1.0  0.29128  0.94883  0.63648  1.0000
  H   H729      1.0  0.99655  0.66007  0.75732  1.0000
  C   C416      1.0  0.26873  0.70910  0.99293  1.0000
  N   N25       1.0  0.30515  0.92384  0.66696  1.0000
  H   H730      1.0  0.10326  0.51082  0.88818  1.0000
  S   S91       1.0  0.27554  0.63940  0.52835  1.0000
  H   H731      1.0  0.09861  0.56818  0.98250  1.0000
  H   H732      1.0  0.99232  0.72261  0.83675  1.0000
  H   H733      1.0  0.31629  0.88235  0.58279  1.0000
  H   H734      1.0  0.30512  0.78557  0.65654  1.0000
  H   H735      1.0  0.31258  0.98000  0.61073  1.0000
  C   C417      1.0  0.31188  0.67173  0.52089  1.0000
  H   H736      1.0  0.29904  0.65077  0.58531  1.0000
  H   H737      1.0  0.30115  0.91776  0.61049  1.0000
  H   H738      1.0  0.31600  0.70578  0.62367  1.0000
  C   C418      1.0  0.31601  0.83523  0.85679  1.0000
  C   C419      1.0  0.30386  0.94856  0.65420  1.0000
  C   C420      1.0  0.30492  0.71079  0.60549  1.0000
  C   C421      1.0  0.30723  0.90094  0.62066  1.0000
  C   C422      1.0  0.30505  0.68913  0.58550  1.0000
  H   H739      1.0  0.31733  0.96132  0.82381  1.0000
  C   C423      1.0  0.31686  0.90612  0.85873  1.0000
  H   H740      1.0  0.31913  0.89563  0.87786  1.0000
  H   H741      1.0  0.15680  0.49598  0.99971  1.0000
  Fe  Fe49      1.0  0.35315  0.17345  0.01942  1.0000
  S   S92       1.0  0.37886  0.20378  0.02367  1.0000
  H   H742      1.0  0.59067  0.21183  0.08576  1.0000
  Fe  Fe50      1.0  0.36231  0.16854  0.47100  1.0000
  S   S93       1.0  0.37518  0.20423  0.45653  1.0000
  S   S94       1.0  0.34794  0.13935  0.44250  1.0000
  S   S95       1.0  0.33114  0.15273  0.18268  1.0000
  H   H743      1.0  0.53596  0.20707  0.43819  1.0000
  C   C424      1.0  0.51384  0.21555  0.48979  1.0000
  H   H744      1.0  0.34346  0.27016  0.09137  1.0000
  C   C425      1.0  0.34469  0.26352  0.07012  1.0000
  H   H745      1.0  0.34534  0.07492  0.33647  1.0000
  Fe  Fe51      1.0  0.63014  0.19237  0.02940  1.0000
  S   S96       1.0  0.61340  0.22806  0.01668  1.0000
  S   S97       1.0  0.44007  0.21788  0.48752  1.0000
  Fe  Fe52      1.0  0.63604  0.17423  0.46580  1.0000
  S   S98       1.0  0.60951  0.20409  0.45654  1.0000
  H   H746      1.0  0.32375  0.04397  0.41756  1.0000
  H   H747      1.0  0.59861  0.09025  0.45609  1.0000
  H   H748      1.0  0.55490  0.13631  0.03013  1.0000
  H   H749      1.0  0.48810  0.13600  0.45691  1.0000
  H   H750      1.0  0.33686  0.32129  0.42022  1.0000
  H   H751      1.0  0.36717  0.16956  0.35029  1.0000
  S   S99       1.0  0.34496  0.13805  0.31178  1.0000
  H   H752      1.0  0.57965  0.10805  0.41437  1.0000
  H   H753      1.0  0.37368  0.25306  0.04253  1.0000
  C   C426      1.0  0.58605  0.17684  0.16742  1.0000
  H   H754      1.0  0.33959  0.27871  0.05638  1.0000
  H   H755      1.0  0.34770  0.10034  0.05270  1.0000
  H   H756      1.0  0.41134  0.09298  0.10784  1.0000
  H   H757      1.0  0.62305  0.17524  0.39508  1.0000
  H   H758      1.0  0.44083  0.34446  0.44531  1.0000
  C   C427      1.0  0.33092  0.12268  0.36350  1.0000
  C   C428      1.0  0.56823  0.14312  0.37820  1.0000
  H   H759      1.0  0.58796  0.10911  0.37056  1.0000
  C   C429      1.0  0.34577  0.14047  0.40618  1.0000
  C   C430      1.0  0.35793  0.15751  0.39078  1.0000
  C   C431      1.0  0.35707  0.15674  0.36195  1.0000
  H   H760      1.0  0.40221  0.32014  0.44261  1.0000
  H   H761      1.0  0.56078  0.11438  0.45854  1.0000
  H   H762      1.0  0.36861  0.17082  0.40106  1.0000
  H   H763      1.0  0.42890  0.24271  0.39962  1.0000
  C   C432      1.0  0.36859  0.29226  0.45228  1.0000
  H   H764      1.0  0.33388  0.24400  0.12271  1.0000
  C   C433      1.0  0.56912  0.12911  0.04405  1.0000
  H   H765      1.0  0.40191  0.20168  0.08401  1.0000
  H   H766      1.0  0.39472  0.25162  0.46720  1.0000
  H   H767      1.0  0.56167  0.25842  0.04195  1.0000
  H   H768      1.0  0.35426  0.18450  0.09291  1.0000
  C   C434      1.0  0.49877  0.12840  0.43965  1.0000
  H   H769      1.0  0.51646  0.16167  0.43348  1.0000
  C   C435      1.0  0.38286  0.10246  0.15248  1.0000
  H   H770      1.0  0.59594  0.10646  0.48790  1.0000
  H   H771      1.0  0.36514  0.10598  0.16237  1.0000
  H   H772      1.0  0.34439  0.06445  0.40171  1.0000
  C   C436      1.0  0.64559  0.14299  0.34067  1.0000
  H   H773      1.0  0.58834  0.13246  0.32741  1.0000
  H   H774      1.0  0.38240  0.27262  0.06981  1.0000
  N   N26       1.0  0.56192  0.14273  0.40826  1.0000
  H   H775      1.0  0.55603  0.12952  0.32445  1.0000
  H   H776      1.0  0.33661  0.99527  0.34123  1.0000
  H   H777      1.0  0.34239  0.19214  0.30476  1.0000
  H   H778      1.0  0.35296  0.18394  0.14381  1.0000
  C   C437      1.0  0.63169  0.16001  0.35538  1.0000
  H   H779      1.0  0.48759  0.12964  0.42083  1.0000
  H   H780      1.0  0.62597  0.04071  0.19181  1.0000
  H   H781      1.0  0.53653  0.22437  0.40718  1.0000
  H   H782      1.0  0.38390  0.08484  0.07627  1.0000
  H   H783      1.0  0.58533  0.15272  0.37504  1.0000
  N   N27       1.0  0.56350  0.18514  0.09194  1.0000
  C   C438      1.0  0.57129  0.17015  0.06765  1.0000
  H   H784      1.0  0.53970  0.22536  0.06458  1.0000
  C   C439      1.0  0.57741  0.17572  0.11645  1.0000
  C   C440      1.0  0.53682  0.18378  0.09763  1.0000
  C   C441      1.0  0.51991  0.18003  0.07259  1.0000
  C   C442      1.0  0.56885  0.14254  0.07131  1.0000
  H   H785      1.0  0.35185  0.03513  0.36430  1.0000
  H   H786      1.0  0.39092  0.25878  0.41904  1.0000
  C   C443      1.0  0.64925  0.14643  0.39851  1.0000
  C   C444      1.0  0.49367  0.18564  0.07977  1.0000
  H   H787      1.0  0.55435  0.15351  0.36649  1.0000
  H   H788      1.0  0.61943  0.17191  0.34445  1.0000
  H   H789      1.0  0.59056  0.17337  0.06300  1.0000
  H   H790      1.0  0.56162  0.17574  0.04879  1.0000
  H   H791      1.0  0.35892  0.27498  0.45320  1.0000
  H   H792      1.0  0.41374  0.28116  0.41880  1.0000
  H   H793      1.0  0.59698  0.17438  0.11167  1.0000
  H   H794      1.0  0.57194  0.15713  0.12146  1.0000
  H   H795      1.0  0.53304  0.16876  0.11189  1.0000
  H   H796      1.0  0.53053  0.20025  0.10874  1.0000
  H   H797      1.0  0.52104  0.16108  0.06551  1.0000
  H   H798      1.0  0.52453  0.19130  0.05489  1.0000
  H   H799      1.0  0.58421  0.13539  0.08368  1.0000
  H   H800      1.0  0.55206  0.13813  0.08220  1.0000
  H   H801      1.0  0.56566  0.22215  0.10553  1.0000
  S   S100      1.0  0.33306  0.15234  0.05198  1.0000
  H   H802      1.0  0.58476  0.20762  0.14149  1.0000
  C   C445      1.0  0.64971  0.12713  0.11595  1.0000
  H   H803      1.0  0.58801  0.25070  0.06190  1.0000
  C   C446      1.0  0.56807  0.25004  0.06131  1.0000
  H   H804      1.0  0.32259  0.10996  0.40404  1.0000
  H   H805      1.0  0.48789  0.17456  0.09730  1.0000
  H   H806      1.0  0.49123  0.20499  0.08497  1.0000
  H   H807      1.0  0.48205  0.18171  0.06186  1.0000
  H   H808      1.0  0.36107  0.07549  0.03418  1.0000
  Fe  Fe53      1.0  0.40220  0.20169  0.49131  1.0000
  C   C447      1.0  0.40619  0.31270  0.46330  1.0000
  H   H809      1.0  0.58345  0.17330  0.41866  1.0000
  C   C448      1.0  0.57105  0.11834  0.36384  1.0000
  H   H810      1.0  0.35962  0.33006  0.46272  1.0000
  Fe  Fe54      1.0  0.58978  0.19224  0.49442  1.0000
  H   H811      1.0  0.53193  0.14138  0.45579  1.0000
  S   S101      1.0  0.60439  0.17076  0.00394  1.0000
  C   C449      1.0  0.33000  0.31528  0.44031  1.0000
  C   C450      1.0  0.36366  0.09440  0.04064  1.0000
  H   H812      1.0  0.32328  0.02568  0.24442  1.0000
  N   N28       1.0  0.39175  0.29041  0.46849  1.0000
  H   H813      1.0  0.37704  0.24142  0.07699  1.0000
  C   C451      1.0  0.58027  0.12669  0.42249  1.0000
  H   H814      1.0  0.55984  0.19226  0.38388  1.0000
  H   H815      1.0  0.57764  0.14141  0.46439  1.0000
  H   H816      1.0  0.53751  0.11315  0.41233  1.0000
  C   C452      1.0  0.48946  0.22319  0.48764  1.0000
  H   H817      1.0  0.45941  0.11011  0.10622  1.0000
  C   C453      1.0  0.54650  0.21067  0.41947  1.0000
  H   H818      1.0  0.38472  0.08288  0.14831  1.0000
  C   C454      1.0  0.57072  0.21087  0.08759  1.0000
  H   H819      1.0  0.36900  0.09021  0.29782  1.0000
  H   H820      1.0  0.59878  0.13311  0.41832  1.0000
  H   H821      1.0  0.50305  0.10923  0.44415  1.0000
  C   C455      1.0  0.38416  0.11679  0.12596  1.0000
  H   H822      1.0  0.52803  0.22836  0.48735  1.0000
  H   H823      1.0  0.57553  0.10325  0.32315  1.0000
  H   H824      1.0  0.42253  0.26565  0.46983  1.0000
  C   C456      1.0  0.52185  0.14252  0.43632  1.0000
  C   C457      1.0  0.64589  0.16864  0.10036  1.0000
  C   C458      1.0  0.34363  0.13933  0.34811  1.0000
  H   H825      1.0  0.36488  0.10575  0.02207  1.0000
  H   H826      1.0  0.53190  0.18130  0.39660  1.0000
  C   C459      1.0  0.57279  0.12117  0.33284  1.0000
  C   C460      1.0  0.53680  0.13316  0.41147  1.0000
  C   C461      1.0  0.56424  0.16804  0.41893  1.0000
  H   H827      1.0  0.55906  0.16935  0.44072  1.0000
  C   C462      1.0  0.44596  0.33448  0.46415  1.0000
  H   H828      1.0  0.55561  0.10672  0.36846  1.0000
  H   H829      1.0  0.58696  0.13055  0.03418  1.0000
  C   C463      1.0  0.59826  0.10844  0.46550  1.0000
  C   C464      1.0  0.57760  0.12383  0.45376  1.0000
  H   H830      1.0  0.56075  0.26074  0.07871  1.0000
  C   C465      1.0  0.42051  0.19604  0.07832  1.0000
  Fe  Fe55      1.0  0.63242  0.22625  0.48511  1.0000
  C   C466      1.0  0.34030  0.06950  0.31543  1.0000
  C   C467      1.0  0.33064  0.04355  0.31492  1.0000
  H   H831      1.0  0.42655  0.20762  0.06128  1.0000
  H   H832      1.0  0.52559  0.13742  0.39313  1.0000
  C   C468      1.0  0.37104  0.25709  0.06454  1.0000
  C   C469      1.0  0.54990  0.18763  0.40277  1.0000
  H   H833      1.0  0.56582  0.10976  0.04761  1.0000
  C   C470      1.0  0.55951  0.22413  0.06274  1.0000
  H   H834      1.0  0.61578  0.11705  0.46179  1.0000
  H   H835      1.0  0.35878  0.06617  0.27627  1.0000
  H   H836      1.0  0.48103  0.09887  0.06299  1.0000
  H   H837      1.0  0.56416  0.21806  0.42537  1.0000
  C   C471      1.0  0.34394  0.17111  0.10339  1.0000
  C   C472      1.0  0.33212  0.12317  0.39234  1.0000
  N   N29       1.0  0.41206  0.12652  0.08527  1.0000
  H   H838      1.0  0.48523  0.24190  0.48355  1.0000
  C   C473      1.0  0.43508  0.11804  0.07183  1.0000
  C   C474      1.0  0.41266  0.15297  0.09220  1.0000
  C   C475      1.0  0.39156  0.12262  0.06561  1.0000
  C   C476      1.0  0.38649  0.09612  0.05793  1.0000
  H   H839      1.0  0.39715  0.10801  0.16695  1.0000
  C   C477      1.0  0.42125  0.16978  0.06911  1.0000
  C   C478      1.0  0.45844  0.12240  0.08837  1.0000
  C   C479      1.0  0.48074  0.11764  0.07082  1.0000
  H   H840      1.0  0.58484  0.18810  0.18616  1.0000
  S   S102      1.0  0.64187  0.14087  0.30461  1.0000
  C   C480      1.0  0.34314  0.17075  0.13224  1.0000
  H   H841      1.0  0.56454  0.21501  0.04336  1.0000
  H   H842      1.0  0.42283  0.11736  0.12650  1.0000
  H   H843      1.0  0.43473  0.09834  0.06801  1.0000
  H   H844      1.0  0.43678  0.12621  0.05113  1.0000
  H   H845      1.0  0.42401  0.15619  0.11056  1.0000
  H   H846      1.0  0.39440  0.15965  0.09814  1.0000
  H   H847      1.0  0.37473  0.13087  0.07372  1.0000
  H   H848      1.0  0.39471  0.13216  0.04603  1.0000
  H   H849      1.0  0.43269  0.19870  0.09605  1.0000
  H   H850      1.0  0.40155  0.08833  0.04574  1.0000
  H   H851      1.0  0.42123  0.22706  0.43045  1.0000
  H   H852      1.0  0.34608  0.03158  0.32038  1.0000
  H   H853      1.0  0.40967  0.16816  0.05079  1.0000
  H   H854      1.0  0.44001  0.16545  0.06297  1.0000
  H   H855      1.0  0.45937  0.14107  0.09606  1.0000
  C   C481      1.0  0.40869  0.11262  0.11138  1.0000
  H   H856      1.0  0.44037  0.30043  0.48324  1.0000
  Fe  Fe56      1.0  0.34892  0.22018  0.48696  1.0000
  C   C482      1.0  0.40468  0.26751  0.45986  1.0000
  C   C483      1.0  0.47054  0.20693  0.49072  1.0000
  H   H857      1.0  0.38146  0.13601  0.13134  1.0000
  H   H858      1.0  0.35518  0.03587  0.41449  1.0000
  C   C484      1.0  0.42691  0.24459  0.42210  1.0000
  H   H859      1.0  0.44466  0.24911  0.43100  1.0000
  H   H860      1.0  0.36893  0.11117  0.11290  1.0000
  H   H861      1.0  0.37752  0.05961  0.30581  1.0000
  C   C485      1.0  0.40814  0.26422  0.42858  1.0000
  C   C486      1.0  0.36277  0.07137  0.29772  1.0000
  H   H862      1.0  0.44090  0.29958  0.44685  1.0000
  H   H863      1.0  0.55579  0.19464  0.14796  1.0000
  H   H864      1.0  0.49721  0.12034  0.08325  1.0000
  H   H865      1.0  0.60535  0.17250  0.16348  1.0000
  H   H866      1.0  0.57640  0.15988  0.17113  1.0000
  H   H867      1.0  0.37242  0.29515  0.43024  1.0000
  S   S103      1.0  0.63817  0.19097  0.07553  1.0000
  C   C487      1.0  0.57494  0.19051  0.14324  1.0000
  H   H868      1.0  0.33675  0.22529  0.07292  1.0000
  C   C488      1.0  0.63363  0.16188  0.38411  1.0000
  H   H869      1.0  0.40052  0.32730  0.47769  1.0000
  H   H870      1.0  0.63918  0.13789  0.07495  1.0000
  H   H871      1.0  0.48099  0.13028  0.05326  1.0000
  H   H872      1.0  0.34226  0.30827  0.48089  1.0000
  H   H873      1.0  0.64205  0.06817  0.18763  1.0000
  S   S104      1.0  0.64298  0.26496  0.47620  1.0000
  C   C489      1.0  0.35056  0.31255  0.46094  1.0000
  C   C490      1.0  0.43406  0.30997  0.46470  1.0000
  C   C491      1.0  0.33167  0.15385  0.08827  1.0000
  C   C492      1.0  0.38509  0.28848  0.49832  1.0000
  H   H874      1.0  0.46583  0.33196  0.46444  1.0000
  H   H875      1.0  0.64142  0.01629  0.30218  1.0000
  C   C493      1.0  0.33517  0.03355  0.37642  1.0000
  H   H876      1.0  0.48893  0.15277  0.00716  1.0000
  C   C494      1.0  0.51976  0.19139  0.49490  1.0000
  C   C495      1.0  0.50086  0.17515  0.49817  1.0000
  H   H877      1.0  0.33004  0.99528  0.30539  1.0000
  C   C496      1.0  0.47647  0.18280  0.49608  1.0000
  S   S105      1.0  0.32710  0.10287  0.24212  1.0000
  H   H878      1.0  0.32680  0.08257  0.30729  1.0000
  H   H879      1.0  0.33159  0.01430  0.38016  1.0000
  H   H880      1.0  0.44061  0.34529  0.48235  1.0000
  H   H881      1.0  0.32826  0.23963  0.04193  1.0000
  H   H882      1.0  0.64844  0.10813  0.11164  1.0000
  C   C497      1.0  0.33982  0.04522  0.40422  1.0000
  S   S106      1.0  0.65192  0.14736  0.43476  1.0000
  C   C498      1.0  0.33003  0.15325  0.14631  1.0000
  S   S107      1.0  0.55021  0.18034  0.49741  1.0000
  H   H883      1.0  0.34213  0.22268  0.29267  1.0000
  H   H884      1.0  0.32635  0.03908  0.29326  1.0000
  C   C499      1.0  0.64374  0.04918  0.19438  1.0000
  C   C500      1.0  0.32796  0.24191  0.06459  1.0000
  C   C501      1.0  0.33070  0.20698  0.29675  1.0000
  C   C502      1.0  0.64445  0.14398  0.09506  1.0000
  H   H885      1.0  0.64857  0.04869  0.21638  1.0000
  H   H886      1.0  0.53044  0.16817  0.00225  1.0000
  C   C503      1.0  0.32201  0.99356  0.32604  1.0000
  H   H887      1.0  0.46225  0.17002  0.49860  1.0000
  C   C504      1.0  0.49144  0.17112  0.00074  1.0000
  C   C505      1.0  0.65257  0.17613  0.12678  1.0000
  H   H888      1.0  0.32040  0.10932  0.35319  1.0000
  S   S108      1.0  0.32131  0.24829  0.47219  1.0000
  H   H889      1.0  0.32246  0.20128  0.27717  1.0000
  H   H890      1.0  0.32028  0.22068  0.33604  1.0000
  H   H891      1.0  0.32070  0.29793  0.43765  1.0000
  S   S109      1.0  0.33475  0.18459  0.49974  1.0000
  Fe  Fe57      1.0  0.36384  0.18387  0.53178  1.0000
  S   S110      1.0  0.37661  0.22076  0.52028  1.0000
  S   S111      1.0  0.35839  0.18168  0.57828  1.0000
  Fe  Fe58      1.0  0.35629  0.17363  0.95603  1.0000
  S   S112      1.0  0.38251  0.20421  0.95600  1.0000
  H   H892      1.0  0.65059  0.40113  0.98827  1.0000
  H   H893      1.0  0.62555  0.23098  0.59243  1.0000
  H   H894      1.0  0.34077  0.99081  0.62351  1.0000
  H   H895      1.0  0.52928  0.18458  0.61731  1.0000
  C   C506      1.0  0.62903  0.16202  0.89019  1.0000
  C   C507      1.0  0.51038  0.15676  0.91747  1.0000
  H   H896      1.0  0.60692  0.19654  0.61510  1.0000
  Fe  Fe59      1.0  0.63724  0.18656  0.52796  1.0000
  S   S113      1.0  0.61035  0.21703  0.52216  1.0000
  H   H897      1.0  0.47510  0.16940  0.90330  1.0000
  Fe  Fe60      1.0  0.63115  0.17499  0.96949  1.0000
  S   S114      1.0  0.61442  0.20926  0.95404  1.0000
  H   H898      1.0  0.60194  0.04195  0.70089  1.0000
  S   S115      1.0  0.34190  0.12020  0.79777  1.0000
  C   C508      1.0  0.63872  0.14362  0.59793  1.0000
  H   H899      1.0  0.53111  0.18969  0.55454  1.0000
  H   H900      1.0  0.55700  0.11089  0.53163  1.0000
  C   C509      1.0  0.64277  0.14496  0.90464  1.0000
  H   H901      1.0  0.58536  0.11812  0.54730  1.0000
  C   C510      1.0  0.63743  0.05413  0.68877  1.0000
  C   C511      1.0  0.51510  0.17980  0.99792  1.0000
  H   H902      1.0  0.35781  0.06945  0.76418  1.0000
  C   C512      1.0  0.34341  0.16221  0.60123  1.0000
  H   H903      1.0  0.34579  0.25119  0.56355  1.0000
  Fe  Fe61      1.0  0.58885  0.20625  0.98977  1.0000
  H   H904      1.0  0.35725  0.09643  0.88707  1.0000
  C   C513      1.0  0.48369  0.16234  0.92225  1.0000
  H   H905      1.0  0.53396  0.13977  0.81546  1.0000
  C   C514      1.0  0.40608  0.28486  0.51885  1.0000
  H   H906      1.0  0.60770  0.07308  0.70841  1.0000
  H   H907      1.0  0.56382  0.20032  0.93264  1.0000
  C   C515      1.0  0.35828  0.14913  0.87230  1.0000
  C   C516      1.0  0.51880  0.20349  0.98950  1.0000
  H   H908      1.0  0.58939  0.15518  0.57331  1.0000
  C   C517      1.0  0.35301  0.07946  0.89775  1.0000
  H   H909      1.0  0.37341  0.15803  0.88150  1.0000
  N   N30       1.0  0.56200  0.17517  0.59554  1.0000
  H   H910      1.0  0.56945  0.17696  0.86304  1.0000
  H   H911      1.0  0.32383  0.25921  0.58914  1.0000
  H   H912      1.0  0.58311  0.19656  0.90402  1.0000
  C   C518      1.0  0.32948  0.04960  0.80589  1.0000
  C   C519      1.0  0.64005  0.14280  0.84669  1.0000
  H   H913      1.0  0.35246  0.17800  0.76490  1.0000
  H   H914      1.0  0.54126  0.19276  0.86152  1.0000
  H   H915      1.0  0.58767  0.24250  0.90964  1.0000
  H   H916      1.0  0.38530  0.26608  0.54964  1.0000
  H   H917      1.0  0.61950  0.17601  0.90127  1.0000
  H   H918      1.0  0.50089  0.23648  0.97719  1.0000
  H   H919      1.0  0.57838  0.13029  0.97548  1.0000
  C   C520      1.0  0.52432  0.18007  0.91152  1.0000
  C   C521      1.0  0.62732  0.16069  0.86145  1.0000
  H   H920      1.0  0.37792  0.04390  0.76054  1.0000
  C   C522      1.0  0.54319  0.15506  0.82530  1.0000
  C   C523      1.0  0.56263  0.15497  0.91188  1.0000
  H   H921      1.0  0.54502  0.13751  0.86396  1.0000
  C   C524      1.0  0.57305  0.12845  0.65450  1.0000
  Fe  Fe62      1.0  0.64032  0.22773  0.98243  1.0000
  H   H922      1.0  0.51848  0.15640  0.85873  1.0000
  H   H923      1.0  0.62925  0.13898  0.57941  1.0000
  H   H924      1.0  0.56281  0.15299  0.82130  1.0000
  H   H925      1.0  0.52684  0.15879  0.59678  1.0000
  H   H926      1.0  0.63533  0.01703  0.67862  1.0000
  H   H927      1.0  0.54906  0.12936  0.57573  1.0000
  H   H928      1.0  0.53639  0.17203  0.81585  1.0000
  S   S116      1.0  0.63636  0.14132  0.81060  1.0000
  C   C525      1.0  0.55491  0.22357  0.89909  1.0000
  H   H929      1.0  0.48624  0.18922  0.59143  1.0000
  S   S117      1.0  0.33134  0.19161  0.98643  1.0000
  H   H930      1.0  0.52396  0.19041  0.93110  1.0000
  H   H931      1.0  0.56417  0.13921  0.67089  1.0000
  H   H932      1.0  0.58380  0.16629  0.94714  1.0000
  H   H933      1.0  0.56446  0.24411  0.93550  1.0000
  H   H934      1.0  0.56692  0.17411  0.63938  1.0000
  H   H935      1.0  0.37546  0.14439  0.83298  1.0000
  H   H936      1.0  0.53862  0.14875  0.54913  1.0000
  H   H937      1.0  0.38605  0.29831  0.55428  1.0000
  H   H938      1.0  0.56145  0.26161  0.90475  1.0000
  H   H939      1.0  0.47440  0.14572  0.92837  1.0000
  H   H940      1.0  0.59286  0.13008  0.65651  1.0000
  H   H941      1.0  0.51754  0.14799  0.93623  1.0000
  C   C526      1.0  0.47478  0.20946  0.98653  1.0000
  S   S118      1.0  0.44153  0.17364  0.99891  1.0000
  C   C527      1.0  0.63687  0.12908  0.62144  1.0000
  H   H942      1.0  0.53535  0.22629  0.90270  1.0000
  C   C528      1.0  0.57074  0.16224  0.57009  1.0000
  C   C529      1.0  0.56446  0.13691  0.62632  1.0000
  C   C530      1.0  0.56797  0.24413  0.91315  1.0000
  C   C531      1.0  0.56853  0.12585  0.53836  1.0000
  H   H943      1.0  0.56357  0.21097  0.61308  1.0000
  C   C532      1.0  0.33353  0.14051  0.59277  1.0000
  H   H944      1.0  0.55254  0.13852  0.90715  1.0000
  H   H945      1.0  0.51335  0.19122  0.89706  1.0000
  H   H946      1.0  0.48734  0.19879  0.55626  1.0000
  C   C533      1.0  0.57108  0.20063  0.59539  1.0000
  H   H947      1.0  0.55260  0.16232  0.95491  1.0000
  H   H948      1.0  0.49361  0.16781  0.56455  1.0000
  C   C534      1.0  0.59879  0.20338  0.59586  1.0000
  C   C535      1.0  0.39670  0.28212  0.54800  1.0000
  H   H949      1.0  0.52359  0.21171  0.58005  1.0000
  H   H950      1.0  0.55850  0.22513  0.87688  1.0000
  H   H951      1.0  0.58021  0.15221  0.90131  1.0000
  C   C536      1.0  0.61579  0.05465  0.70798  1.0000
  H   H952      1.0  0.33728  0.18344  0.81174  1.0000
  C   C537      1.0  0.55505  0.14138  0.55930  1.0000
  C   C538      1.0  0.56802  0.15496  0.94299  1.0000
  C   C539      1.0  0.34099  0.16913  0.62882  1.0000
  H   H953      1.0  0.59179  0.16214  0.62053  1.0000
  C   C540      1.0  0.53489  0.17682  0.59722  1.0000
  H   H954      1.0  0.57230  0.17501  0.55269  1.0000
  C   C541      1.0  0.60567  0.22979  0.59390  1.0000
  H   H955      1.0  0.63069  0.05947  0.66827  1.0000
  H   H956      1.0  0.32710  0.16021  0.66883  1.0000
  H   H957      1.0  0.48131  0.17583  0.93882  1.0000
  H   H958      1.0  0.34313  0.23281  0.59346  1.0000
  H   H959      1.0  0.33441  0.22021  0.83657  1.0000
  H   H960      1.0  0.37542  0.30506  0.50532  1.0000
  H   H961      1.0  0.59757  0.23841  0.57552  1.0000
  S   S119      1.0  0.39085  0.16470  0.50433  1.0000
  H   H962      1.0  0.57320  0.12481  0.61106  1.0000
  H   H963      1.0  0.41708  0.26854  0.51404  1.0000
  C   C542      1.0  0.33757  0.14536  0.88778  1.0000
  H   H964      1.0  0.45945  0.22110  0.98201  1.0000
  H   H965      1.0  0.57293  0.13666  0.52013  1.0000
  Fe  Fe63      1.0  0.35823  0.22078  0.98850  1.0000
  C   C543      1.0  0.49841  0.21815  0.98379  1.0000
  C   C544      1.0  0.52240  0.19235  0.57469  1.0000
  H   H966      1.0  0.64238  0.05600  0.60143  1.0000
  H   H967      1.0  0.62145  0.04985  0.72911  1.0000
  C   C545      1.0  0.64959  0.13447  0.64558  1.0000
  C   C546      1.0  0.35550  0.04303  0.79676  1.0000
  C   C547      1.0  0.33285  0.24392  0.57843  1.0000
  H   H968      1.0  0.51180  0.14355  0.90062  1.0000
  H   H969      1.0  0.54472  0.13479  0.62560  1.0000
  H   H970      1.0  0.36903  0.05280  0.80890  1.0000
  H   H971      1.0  0.34689  0.08407  0.91875  1.0000
  C   C548      1.0  0.57423  0.12967  0.95330  1.0000
  H   H972      1.0  0.59030  0.12226  0.94244  1.0000
  H   H973      1.0  0.56854  0.10927  0.65740  1.0000
  H   H974      1.0  0.56479  0.21024  0.57667  1.0000
  H   H975      1.0  0.35899  0.02340  0.79883  1.0000
  S   S120      1.0  0.64628  0.11573  0.67477  1.0000
  H   H976      1.0  0.65189  0.02255  0.70896  1.0000
  H   H977      1.0  0.60698  0.19353  0.57841  1.0000
  H   H978      1.0  0.62564  0.11345  0.62089  1.0000
  H   H979      1.0  0.34898  0.20102  0.87954  1.0000
  Fe  Fe64      1.0  0.40152  0.18507  0.99127  1.0000
  H   H980      1.0  0.34863  0.18583  0.63564  1.0000
  C   C549      1.0  0.32879  0.15464  0.64772  1.0000
  H   H981      1.0  0.32537  0.19141  0.75094  1.0000
  C   C550      1.0  0.35938  0.14139  0.84478  1.0000
  H   H982      1.0  0.55885  0.11754  0.95015  1.0000
  H   H983      1.0  0.34634  0.04067  0.75337  1.0000
  C   C551      1.0  0.33976  0.13003  0.83236  1.0000
  C   C552      1.0  0.55040  0.17653  0.87020  1.0000
  C   C553      1.0  0.53827  0.15502  0.85604  1.0000
  C   C554      1.0  0.56391  0.19877  0.91001  1.0000
  C   C555      1.0  0.49577  0.18661  0.57169  1.0000
  C   C556      1.0  0.57182  0.16315  0.62102  1.0000
  N   N31       1.0  0.54980  0.17718  0.90105  1.0000
  H   H984      1.0  0.41210  0.27978  0.56231  1.0000
  C   C557      1.0  0.65329  0.16383  0.59830  1.0000
  S   S121      1.0  0.33448  0.15506  0.92229  1.0000
  S   S122      1.0  0.54821  0.21577  0.98539  1.0000
  S   S123      1.0  0.34692  0.26059  0.99025  1.0000
  H   H985      1.0  0.33541  0.13481  0.57172  1.0000
  H   H986      1.0  0.61619  0.17364  0.85053  1.0000
  C   C558      1.0  0.35952  0.04965  0.76687  1.0000
  H   H987      1.0  0.59957  0.23979  0.61238  1.0000
  H   H988      1.0  0.41758  0.30087  0.51897  1.0000
  H   H989      1.0  0.34544  0.20926  0.77161  1.0000
  S   S124      1.0  0.64365  0.14463  0.94101  1.0000
  H   H990      1.0  0.65061  0.02420  0.63564  1.0000
  H   H991      1.0  0.32859  0.30894  0.99804  1.0000
  H   H992      1.0  0.32437  0.21494  0.55133  1.0000
  S   S125      1.0  0.37645  0.15346  0.98909  1.0000
  C   C559      1.0  0.47103  0.18584  0.99508  1.0000
  H   H993      1.0  0.34826  0.23331  0.88211  1.0000
  H   H994      1.0  0.65012  0.06760  0.69647  1.0000
  H   H995      1.0  0.35900  0.05506  0.85191  1.0000
  H   H996      1.0  0.32891  0.27260  0.52463  1.0000
  C   C560      1.0  0.64924  0.02878  0.68758  1.0000
  C   C561      1.0  0.33694  0.21719  0.88012  1.0000
  H   H997      1.0  0.36963  0.06811  0.89920  1.0000
  H   H998      1.0  0.64983  0.21921  0.78468  1.0000
  H   H999      1.0  0.34918  0.01622  0.84299  1.0000
  C   C562      1.0  0.33761  0.19121  0.76893  1.0000
  C   C563      1.0  0.32181  0.21892  0.85401  1.0000
  H   H1000     1.0  0.32526  0.21617  0.89846  1.0000
  H   H1001     1.0  0.65097  0.39804  0.95135  1.0000
  H   H1002     1.0  0.34068  0.08006  0.84248  1.0000
  C   C564      1.0  0.32415  0.18384  0.79467  1.0000
  C   C565      1.0  0.34008  0.06197  0.85209  1.0000
  H   H1003     1.0  0.37232  0.27348  0.50118  1.0000
  H   H1004     1.0  0.33040  0.04892  0.89337  1.0000
  S   S126      1.0  0.61572  0.16108  0.50252  1.0000
  H   H1005     1.0  0.32571  0.06880  0.80049  1.0000
  C   C566      1.0  0.33326  0.06609  0.88257  1.0000
  C   C567      1.0  0.32953  0.02013  0.84459  1.0000
  H   H1006     1.0  0.50507  0.15645  0.50234  1.0000
  C   C568      1.0  0.32119  0.12611  0.61161  1.0000
  H   H1007     1.0  0.32540  0.01782  0.86662  1.0000
  N   N32       1.0  0.32396  0.04563  0.83575  1.0000
  C   C569      1.0  0.64033  0.81014  0.39180  1.0000
  H   H1008     1.0  0.41378  0.81763  0.11873  1.0000
  C   C570      1.0  0.63927  0.95194  0.28458  1.0000
  Fe  Fe65      1.0  0.62850  0.78428  0.46122  1.0000
  S   S127      1.0  0.60617  0.75319  0.47578  1.0000
  H   H1009     1.0  0.37786  0.73762  0.37317  1.0000
  Fe  Fe66      1.0  0.62483  0.80282  0.03439  1.0000
  S   S128      1.0  0.59875  0.77230  0.03592  1.0000
  H   H1010     1.0  0.64710  0.93689  0.24427  1.0000
  C   C571      1.0  0.51268  0.77375  0.07332  1.0000
  N   N33       1.0  0.44832  0.80357  0.07742  1.0000
  H   H1011     1.0  0.64539  0.76309  0.10656  1.0000
  H   H1012     1.0  0.42984  0.73159  0.09103  1.0000
  H   H1013     1.0  0.34736  0.90433  0.17672  1.0000
  Fe  Fe67      1.0  0.36148  0.80508  0.03348  1.0000
  S   S129      1.0  0.37063  0.76555  0.03110  1.0000
  S   S130      1.0  0.36586  0.82648  0.07357  1.0000
  Fe  Fe68      1.0  0.36374  0.81074  0.47465  1.0000
  S   S131      1.0  0.37565  0.77387  0.46150  1.0000
  S   S132      1.0  0.34758  0.83839  0.44470  1.0000
  S   S133      1.0  0.64730  0.82847  0.19787  1.0000
  H   H1014     1.0  0.62504  0.92338  0.32989  1.0000
  H   H1015     1.0  0.32498  0.71151  0.08547  1.0000
  C   C572      1.0  0.43513  0.81668  0.05475  1.0000
  H   H1016     1.0  0.46377  0.83846  0.03690  1.0000
  H   H1017     1.0  0.64881  0.81838  0.32302  1.0000
  S   S134      1.0  0.33872  0.83135  0.31410  1.0000
  H   H1018     1.0  0.40113  0.74522  0.08150  1.0000
  H   H1019     1.0  0.48979  0.74362  0.46837  1.0000
  H   H1020     1.0  0.61142  0.73836  0.08717  1.0000
  C   C573      1.0  0.42712  0.83129  0.11310  1.0000
  C   C574      1.0  0.35481  0.84160  0.12600  1.0000
  H   H1021     1.0  0.53183  0.75240  0.48224  1.0000
  H   H1022     1.0  0.55761  0.73581  0.44367  1.0000
  H   H1023     1.0  0.57920  0.77325  0.43202  1.0000
  C   C575      1.0  0.62346  0.91707  0.37279  1.0000
  H   H1024     1.0  0.57852  0.86624  0.36367  1.0000
  H   H1025     1.0  0.62449  0.71069  0.10065  1.0000
  C   C576      1.0  0.48849  0.78029  0.08647  1.0000
  H   H1026     1.0  0.41531  0.78714  0.09025  1.0000
  C   C577      1.0  0.34513  0.83587  0.40842  1.0000
  C   C578      1.0  0.35943  0.81969  0.39333  1.0000
  S   S135      1.0  0.44347  0.76378  0.48298  1.0000
  H   H1027     1.0  0.44455  0.86103  0.13383  1.0000
  H   H1028     1.0  0.49369  0.78544  0.42625  1.0000
  H   H1029     1.0  0.56753  0.83981  0.34674  1.0000
  H   H1030     1.0  0.37596  0.92766  0.20367  1.0000
  H   H1031     1.0  0.34662  0.85408  0.16707  1.0000
  H   H1032     1.0  0.45835  0.80852  0.11974  1.0000
  H   H1033     1.0  0.50993  0.76311  0.05436  1.0000
  H   H1034     1.0  0.49221  0.78961  0.10604  1.0000
  H   H1035     1.0  0.41467  0.85485  0.14574  1.0000
  C   C579      1.0  0.62870  0.81169  0.11937  1.0000
  H   H1036     1.0  0.33728  0.72545  0.38540  1.0000
  H   H1037     1.0  0.62697  0.91927  0.26487  1.0000
  C   C580      1.0  0.64376  0.82582  0.10350  1.0000
  H   H1038     1.0  0.35180  0.91746  0.22482  1.0000
  C   C581      1.0  0.45078  0.81924  0.10244  1.0000
  H   H1039     1.0  0.61636  0.94674  0.24916  1.0000
  Fe  Fe69      1.0  0.35144  0.76047  0.49479  1.0000
  S   S136      1.0  0.62948  0.78788  0.41445  1.0000
  H   H1040     1.0  0.59459  0.83801  0.36739  1.0000
  H   H1041     1.0  0.41586  0.81956  0.06008  1.0000
  H   H1042     1.0  0.52376  0.76272  0.08767  1.0000
  C   C582      1.0  0.47313  0.79663  0.06730  1.0000
  H   H1043     1.0  0.43936  0.83512  0.15527  1.0000
  H   H1044     1.0  0.47936  0.76323  0.09096  1.0000
  H   H1045     1.0  0.37246  0.80833  0.40383  1.0000
  C   C583      1.0  0.63006  0.81269  0.14819  1.0000
  C   C584      1.0  0.32634  0.84972  0.36556  1.0000
  C   C585      1.0  0.36790  0.74756  0.38942  1.0000
  H   H1046     1.0  0.33282  0.75211  0.42781  1.0000
  H   H1047     1.0  0.56076  0.83455  0.49583  1.0000
  C   C586      1.0  0.35638  0.92961  0.20771  1.0000
  C   C587      1.0  0.41939  0.74004  0.07409  1.0000
  H   H1048     1.0  0.61802  0.80206  0.16029  1.0000
  H   H1049     1.0  0.37172  0.85078  0.12507  1.0000
  H   H1050     1.0  0.48389  0.81295  0.06369  1.0000
  C   C588      1.0  0.34084  0.74495  0.38510  1.0000
  H   H1051     1.0  0.36868  0.80628  0.35312  1.0000
  C   C589      1.0  0.34082  0.83371  0.35043  1.0000
  S   S137      1.0  0.32658  0.87228  0.24796  1.0000
  H   H1052     1.0  0.46692  0.81958  0.41111  1.0000
  H   H1053     1.0  0.47211  0.78773  0.04697  1.0000
  H   H1054     1.0  0.33220  0.77756  0.40642  1.0000
  H   H1055     1.0  0.41747  0.72660  0.05743  1.0000
  C   C590      1.0  0.47334  0.77108  0.49372  1.0000
  H   H1056     1.0  0.37292  0.76674  0.38844  1.0000
  H   H1057     1.0  0.50476  0.80340  0.45379  1.0000
  C   C591      1.0  0.43234  0.76195  0.06313  1.0000
  C   C592      1.0  0.43184  0.84648  0.13854  1.0000
  C   C593      1.0  0.64904  0.82228  0.34469  1.0000
  H   H1058     1.0  0.33642  0.75221  0.36454  1.0000
  H   H1059     1.0  0.46412  0.83355  0.09895  1.0000
  H   H1060     1.0  0.45020  0.75566  0.05571  1.0000
  H   H1061     1.0  0.58282  0.72955  0.42158  1.0000
  C   C594      1.0  0.42978  0.85402  0.02523  1.0000
  H   H1062     1.0  0.52274  0.79018  0.06818  1.0000
  H   H1063     1.0  0.55275  0.72990  0.40765  1.0000
  C   C595      1.0  0.63207  0.93779  0.25918  1.0000
  H   H1064     1.0  0.57562  0.76673  0.39623  1.0000
  H   H1065     1.0  0.57099  0.84846  0.40864  1.0000
  C   C596      1.0  0.43420  0.78178  0.08523  1.0000
  Fe  Fe70      1.0  0.40482  0.77686  0.49391  1.0000
  H   H1066     1.0  0.42181  0.76892  0.04557  1.0000
  S   S138      1.0  0.32948  0.80168  0.00594  1.0000
  C   C597      1.0  0.35735  0.81870  0.36455  1.0000
  C   C598      1.0  0.62450  0.72339  0.08319  1.0000
  H   H1067     1.0  0.61560  0.80048  0.10948  1.0000
  H   H1068     1.0  0.62214  0.95031  0.35068  1.0000
  C   C599      1.0  0.63131  0.93251  0.34872  1.0000
  H   H1069     1.0  0.41880  0.84333  0.09754  1.0000
  H   H1070     1.0  0.43478  0.80542  0.03595  1.0000
  C   C600      1.0  0.34733  0.82792  0.10332  1.0000
  H   H1071     1.0  0.43728  0.87186  0.02045  1.0000
  H   H1072     1.0  0.61860  0.71363  0.06458  1.0000
  S   S139      1.0  0.63460  0.71507  0.00408  1.0000
  H   H1073     1.0  0.54365  0.85051  0.38837  1.0000
  H   H1074     1.0  0.32941  0.97805  0.11815  1.0000
  C   C601      1.0  0.55972  0.84767  0.47882  1.0000
  H   H1075     1.0  0.44155  0.77346  0.10425  1.0000
  H   H1076     1.0  0.32667  0.69481  0.00938  1.0000
  C   C602      1.0  0.44575  0.84116  0.04625  1.0000
  H   H1077     1.0  0.47763  0.83741  0.43960  1.0000
  H   H1078     1.0  0.44748  0.85348  0.06393  1.0000
  C   C603      1.0  0.51703  0.76299  0.49051  1.0000
  H   H1079     1.0  0.34809  0.93523  0.16551  1.0000
  H   H1080     1.0  0.37347  0.74006  0.40955  1.0000
  H   H1081     1.0  0.46130  0.81035  0.44576  1.0000
  C   C604      1.0  0.34056  0.84357  0.14985  1.0000
  N   N34       1.0  0.54260  0.80558  0.41753  1.0000
  C   C605      1.0  0.51709  0.81448  0.41275  1.0000
  C   C606      1.0  0.55832  0.81364  0.39427  1.0000
  C   C607      1.0  0.54224  0.77840  0.41678  1.0000
  C   C608      1.0  0.55276  0.81362  0.44474  1.0000
  C   C609      1.0  0.54365  0.83842  0.45591  1.0000
  C   C610      1.0  0.49805  0.80409  0.43246  1.0000
  C   C611      1.0  0.56709  0.76528  0.41666  1.0000
  C   C612      1.0  0.56125  0.84104  0.39080  1.0000
  C   C613      1.0  0.57638  0.84651  0.36558  1.0000
  H   H1082     1.0  0.41125  0.85678  0.03331  1.0000
  C   C614      1.0  0.47459  0.81886  0.43209  1.0000
  C   C615      1.0  0.56480  0.73850  0.42277  1.0000
  H   H1083     1.0  0.51123  0.80991  0.39158  1.0000
  H   H1084     1.0  0.51566  0.83435  0.41365  1.0000
  H   H1085     1.0  0.57704  0.80650  0.39684  1.0000
  H   H1086     1.0  0.55163  0.80615  0.37457  1.0000
  H   H1087     1.0  0.53227  0.77204  0.39841  1.0000
  H   H1088     1.0  0.53229  0.77146  0.43473  1.0000
  H   H1089     1.0  0.54884  0.80038  0.46109  1.0000
  H   H1090     1.0  0.57278  0.81375  0.44381  1.0000
  H   H1091     1.0  0.52527  0.83683  0.46439  1.0000
  H   H1092     1.0  0.54280  0.85245  0.43998  1.0000
  H   H1093     1.0  0.55214  0.86485  0.48695  1.0000
  S   S140      1.0  0.64235  0.82626  0.06715  1.0000
  C   C616      1.0  0.34219  0.92313  0.18202  1.0000
  H   H1094     1.0  0.64116  0.97831  0.32817  1.0000
  C   C617      1.0  0.64865  0.83229  0.40100  1.0000
  H   H1095     1.0  0.64858  0.83631  0.42264  1.0000
  C   C618      1.0  0.32635  0.75867  0.40751  1.0000
  H   H1096     1.0  0.62908  0.92520  0.39249  1.0000
  H   H1097     1.0  0.64868  0.74465  0.06021  1.0000
  Fe  Fe71      1.0  0.33971  0.76249  0.00110  1.0000
  H   H1098     1.0  0.42905  0.84345  0.00600  1.0000
  C   C619      1.0  0.49309  0.75797  0.48278  1.0000
  C   C620      1.0  0.64663  0.82759  0.16148  1.0000
  C   C621      1.0  0.32535  0.81623  0.10484  1.0000
  H   H1099     1.0  0.64224  0.97071  0.27801  1.0000
  S   S141      1.0  0.65039  0.78403  0.00532  1.0000
  H   H1100     1.0  0.35238  0.94848  0.21396  1.0000
  H   H1101     1.0  0.62376  0.95220  0.29867  1.0000
  S   S142      1.0  0.61147  0.81045  0.49083  1.0000
  Fe  Fe72      1.0  0.62345  0.75477  0.00448  1.0000
  H   H1102     1.0  0.33533  0.98252  0.24900  1.0000
  C   C622      1.0  0.64967  0.73310  0.07865  1.0000
  H   H1103     1.0  0.57809  0.85096  0.47102  1.0000
  H   H1104     1.0  0.63143  0.89863  0.37108  1.0000
  H   H1105     1.0  0.60357  0.91563  0.37272  1.0000
  H   H1106     1.0  0.63385  0.78834  0.35612  1.0000
  C   C623      1.0  0.64043  0.80533  0.36352  1.0000
  H   H1107     1.0  0.32667  0.95475  0.32353  1.0000
  C   C624      1.0  0.32861  0.85087  0.39432  1.0000
  H   H1108     1.0  0.32238  0.93547  0.13128  1.0000
  H   H1109     1.0  0.32204  0.89438  0.14522  1.0000
  S   S143      1.0  0.60487  0.82136  0.00015  1.0000
  H   H1110     1.0  0.45155  0.80936  0.98733  1.0000
  H   H1111     1.0  0.39950  0.87139  0.77163  1.0000
  H   H1112     1.0  0.56878  0.73249  0.59900  1.0000
  Fe  Fe73      1.0  0.62872  0.80063  0.97102  1.0000
  S   S144      1.0  0.60308  0.77002  0.96818  1.0000
  H   H1113     1.0  0.34912  0.90177  0.69307  1.0000
  Fe  Fe74      1.0  0.64065  0.79895  0.52059  1.0000
  S   S145      1.0  0.61905  0.76931  0.53796  1.0000
  H   H1114     1.0  0.39130  0.87917  0.82100  1.0000
  H   H1115     1.0  0.38763  0.74064  0.58499  1.0000
  C   C625      1.0  0.50879  0.87074  0.94316  1.0000
  H   H1116     1.0  0.41133  0.85583  0.90483  1.0000
  H   H1117     1.0  0.55468  0.76433  0.94138  1.0000
  Fe  Fe75      1.0  0.58001  0.78969  0.99950  1.0000
  Fe  Fe76      1.0  0.36927  0.79771  0.53628  1.0000
  S   S146      1.0  0.38132  0.75973  0.52597  1.0000
  S   S147      1.0  0.36880  0.80642  0.58231  1.0000
  Fe  Fe77      1.0  0.35381  0.80779  0.97006  1.0000
  S   S148      1.0  0.36344  0.76876  0.96447  1.0000
  H   H1118     1.0  0.38233  0.71249  0.56747  1.0000
  H   H1119     1.0  0.32882  0.97122  0.85641  1.0000
  H   H1120     1.0  0.39533  0.95756  0.81607  1.0000
  H   H1121     1.0  0.36102  0.93037  0.82045  1.0000
  C   C626      1.0  0.36480  0.88460  0.86803  1.0000
  C   C627      1.0  0.37979  0.87253  0.76799  1.0000
  C   C628      1.0  0.51039  0.78972  0.99349  1.0000
  H   H1122     1.0  0.39058  0.96407  0.85199  1.0000
  H   H1123     1.0  0.64998  0.97959  0.68558  1.0000
  H   H1124     1.0  0.57112  0.74789  0.91545  1.0000
  H   H1125     1.0  0.54285  0.86842  0.90639  1.0000
  H   H1126     1.0  0.51959  0.88731  0.94372  1.0000
  H   H1127     1.0  0.40092  0.92155  0.86335  1.0000
  H   H1128     1.0  0.32691  0.87714  0.83102  1.0000
  C   C629      1.0  0.46231  0.77227  0.99166  1.0000
  C   C630      1.0  0.35734  0.72068  0.60074  1.0000
  C   C631      1.0  0.57975  0.83816  0.92585  1.0000
  N   N35       1.0  0.55903  0.83244  0.90696  1.0000
  C   C632      1.0  0.34677  0.81675  0.60630  1.0000
  C   C633      1.0  0.36767  0.88970  0.78842  1.0000
  C   C634      1.0  0.35337  0.81305  0.88678  1.0000
  C   C635      1.0  0.33678  0.82711  0.65388  1.0000
  S   S149      1.0  0.39402  0.81483  0.50543  1.0000
  H   H1129     1.0  0.36221  0.89822  0.88454  1.0000
  H   H1130     1.0  0.32283  0.68645  0.57570  1.0000
  H   H1131     1.0  0.36802  0.80469  0.89812  1.0000
  H   H1132     1.0  0.59003  0.87106  0.82815  1.0000
  H   H1133     1.0  0.32299  0.74517  0.63459  1.0000
  S   S150      1.0  0.55154  0.78839  0.52028  1.0000
  H   H1134     1.0  0.57768  0.82913  0.94599  1.0000
  H   H1135     1.0  0.37541  0.90773  0.78554  1.0000
  C   C636      1.0  0.33291  0.89573  0.83534  1.0000
  H   H1136     1.0  0.62237  0.86601  0.92600  1.0000
  C   C637      1.0  0.50199  0.79449  0.52021  1.0000
  H   H1137     1.0  0.42002  0.95509  0.83989  1.0000
  C   C638      1.0  0.32306  0.82259  0.59879  1.0000
  C   C639      1.0  0.38223  0.72167  0.58768  1.0000
  H   H1138     1.0  0.36517  0.86204  0.81933  1.0000
  H   H1139     1.0  0.58546  0.78947  0.91696  1.0000
  C   C640      1.0  0.58183  0.85424  0.83551  1.0000
  H   H1140     1.0  0.57004  0.78346  0.88529  1.0000
  H   H1141     1.0  0.52120  0.75253  0.99712  1.0000
  H   H1142     1.0  0.34581  0.71553  0.91069  1.0000
  H   H1143     1.0  0.62388  0.79434  0.89510  1.0000
  S   S151      1.0  0.65003  0.82028  0.93801  1.0000
  S   S152      1.0  0.33838  0.79748  0.50681  1.0000
  H   H1144     1.0  0.54537  0.80630  0.93542  1.0000
  C   C641      1.0  0.63426  0.81069  0.85689  1.0000
  H   H1145     1.0  0.33447  0.69998  0.94012  1.0000
  C   C642      1.0  0.46658  0.79695  0.98984  1.0000
  C   C643      1.0  0.37159  0.88081  0.81810  1.0000
  H   H1146     1.0  0.56485  0.85146  0.82406  1.0000
  H   H1147     1.0  0.58061  0.87707  0.91467  1.0000
  C   C644      1.0  0.57698  0.85617  0.86620  1.0000
  C   C645      1.0  0.55009  0.80758  0.91339  1.0000
  H   H1148     1.0  0.35826  0.73025  0.62061  1.0000
  H   H1149     1.0  0.35354  0.70151  0.60467  1.0000
  C   C646      1.0  0.35305  0.81188  0.85794  1.0000
  H   H1150     1.0  0.53319  0.80402  0.90189  1.0000
  H   H1151     1.0  0.33733  0.91076  0.64604  1.0000
  H   H1152     1.0  0.64568  0.79092  0.58920  1.0000
  C   C647      1.0  0.56767  0.78623  0.90760  1.0000
  H   H1153     1.0  0.57101  0.87126  0.94870  1.0000
  H   H1154     1.0  0.51358  0.83258  0.93949  1.0000
  H   H1155     1.0  0.37948  0.85487  0.91081  1.0000
  H   H1156     1.0  0.59857  0.82979  0.68511  1.0000
  H   H1157     1.0  0.34588  0.91678  0.74077  1.0000
  C   C648      1.0  0.32543  0.88842  0.60173  1.0000
  H   H1158     1.0  0.59683  0.83036  0.91754  1.0000
  H   H1159     1.0  0.33384  0.87251  0.61186  1.0000
  H   H1160     1.0  0.52392  0.84586  0.89445  1.0000
  H   H1161     1.0  0.37656  0.87905  0.74684  1.0000
  H   H1162     1.0  0.34832  0.89067  0.78317  1.0000
  C   C649      1.0  0.56706  0.83240  0.87748  1.0000
  H   H1163     1.0  0.59459  0.83911  0.83106  1.0000
  H   H1164     1.0  0.59444  0.86007  0.87620  1.0000
  H   H1165     1.0  0.50522  0.80869  0.53480  1.0000
  H   H1166     1.0  0.36745  0.80241  0.84734  1.0000
  H   H1167     1.0  0.55204  0.82664  0.86397  1.0000
  C   C650      1.0  0.50614  0.76505  0.99518  1.0000
  N   N36       1.0  0.35981  0.89577  0.84032  1.0000
  H   H1168     1.0  0.34056  0.69715  0.51593  1.0000
  H   H1169     1.0  0.37172  0.81458  0.64003  1.0000
  H   H1170     1.0  0.58209  0.85780  0.68862  1.0000
  H   H1171     1.0  0.38985  0.85424  0.86105  1.0000
  H   H1172     1.0  0.58940  0.87557  0.55309  1.0000
  H   H1173     1.0  0.61077  0.88894  0.94867  1.0000
  C   C651      1.0  0.39406  0.86603  0.90251  1.0000
  H   H1174     1.0  0.56424  0.87149  0.86929  1.0000
  H   H1175     1.0  0.32337  0.97398  0.75835  1.0000
  H   H1176     1.0  0.35034  0.94718  0.72910  1.0000
  H   H1177     1.0  0.39571  0.71254  0.60108  1.0000
  C   C652      1.0  0.33546  0.82613  0.90075  1.0000
  C   C653      1.0  0.58186  0.83972  0.67896  1.0000
  C   C654      1.0  0.60917  0.86981  0.94253  1.0000
  H   H1178     1.0  0.56598  0.83005  0.68664  1.0000
  C   C655      1.0  0.38955  0.87163  0.87235  1.0000
  H   H1179     1.0  0.40547  0.91505  0.82740  1.0000
  H   H1180     1.0  0.60075  0.82134  0.54987  1.0000
  H   H1181     1.0  0.60102  0.85883  0.52425  1.0000
  C   C656      1.0  0.58367  0.86522  0.93245  1.0000
  H   H1182     1.0  0.33774  0.72205  0.56224  1.0000
  Fe  Fe78      1.0  0.63659  0.74618  0.50540  1.0000
  C   C657      1.0  0.40042  0.95229  0.83724  1.0000
  N   N37       1.0  0.57523  0.81755  0.60346  1.0000
  C   C658      1.0  0.58150  0.81744  0.63352  1.0000
  C   C659      1.0  0.58207  0.79332  0.59151  1.0000
  C   C660      1.0  0.59058  0.83614  0.58981  1.0000
  C   C661      1.0  0.54905  0.82369  0.59774  1.0000
  C   C662      1.0  0.53039  0.81616  0.61951  1.0000
  C   C663      1.0  0.58071  0.84232  0.64790  1.0000
  C   C664      1.0  0.58984  0.83661  0.55811  1.0000
  C   C665      1.0  0.56846  0.77140  0.60253  1.0000
  C   C666      1.0  0.57856  0.74794  0.59044  1.0000
  C   C667      1.0  0.50475  0.81854  0.60834  1.0000
  C   C668      1.0  0.48234  0.75645  0.99427  1.0000
  H   H1183     1.0  0.60008  0.80999  0.63659  1.0000
  H   H1184     1.0  0.56991  0.80517  0.64513  1.0000
  H   H1185     1.0  0.57874  0.79308  0.56916  1.0000
  H   H1186     1.0  0.60172  0.78978  0.59424  1.0000
  H   H1187     1.0  0.60976  0.83371  0.59596  1.0000
  H   H1188     1.0  0.58519  0.85451  0.59682  1.0000
  H   H1189     1.0  0.54625  0.84344  0.59512  1.0000
  H   H1190     1.0  0.54359  0.81583  0.57770  1.0000
  H   H1191     1.0  0.53162  0.82791  0.63780  1.0000
  H   H1192     1.0  0.53316  0.79742  0.62645  1.0000
  H   H1193     1.0  0.57119  0.83528  0.55022  1.0000
  C   C669      1.0  0.65193  0.80679  0.59958  1.0000
  H   H1194     1.0  0.56985  0.76998  0.62506  1.0000
  H   H1195     1.0  0.54927  0.77266  0.59631  1.0000
  H   H1196     1.0  0.57614  0.74778  0.56787  1.0000
  H   H1197     1.0  0.59797  0.74559  0.59540  1.0000
  H   H1198     1.0  0.37220  0.85426  0.76973  1.0000
  H   H1199     1.0  0.50226  0.80620  0.59070  1.0000
  H   H1200     1.0  0.49171  0.81372  0.62449  1.0000
  H   H1201     1.0  0.50075  0.83730  0.60173  1.0000
  C   C670      1.0  0.39485  0.92588  0.84228  1.0000
  C   C671      1.0  0.63449  0.80801  0.88557  1.0000
  C   C672      1.0  0.36759  0.92154  0.83954  1.0000
  H   H1202     1.0  0.37396  0.92470  0.72531  1.0000
  C   C673      1.0  0.35345  0.81905  0.63396  1.0000
  C   C674      1.0  0.60051  0.85967  0.54692  1.0000
  S   S153      1.0  0.33717  0.83172  0.93653  1.0000
  H   H1203     1.0  0.54072  0.75828  0.90877  1.0000
  H   H1204     1.0  0.61919  0.86180  0.55454  1.0000
  H   H1205     1.0  0.34449  0.75037  0.57633  1.0000
  H   H1206     1.0  0.49946  0.86900  0.96309  1.0000
  H   H1207     1.0  0.39505  0.88287  0.91464  1.0000
  H   H1208     1.0  0.49502  0.87227  0.92674  1.0000
  C   C675      1.0  0.35419  0.92789  0.72472  1.0000
  C   C676      1.0  0.55790  0.76280  0.91902  1.0000
  H   H1209     1.0  0.58201  0.81912  0.87433  1.0000
  H   H1210     1.0  0.40476  0.88227  0.86496  1.0000
  H   H1211     1.0  0.47944  0.73732  0.99555  1.0000
  H   H1212     1.0  0.56418  0.85272  0.64238  1.0000
  C   C677      1.0  0.47804  0.78948  0.51247  1.0000
  C   C678      1.0  0.53783  0.84961  0.91027  1.0000
  H   H1213     1.0  0.59654  0.85290  0.64172  1.0000
  H   H1214     1.0  0.49327  0.82466  0.98942  1.0000
  H   H1215     1.0  0.35155  0.87038  0.87231  1.0000
  H   H1216     1.0  0.64753  0.98514  0.75232  1.0000
  H   H1217     1.0  0.35901  0.93196  0.85641  1.0000
  H   H1218     1.0  0.34227  0.82874  0.67502  1.0000
  C   C679      1.0  0.33461  0.82329  0.84270  1.0000
  C   C680      1.0  0.33788  0.73224  0.58187  1.0000
  C   C681      1.0  0.64873  0.82282  0.90176  1.0000
  C   C682      1.0  0.52507  0.84867  0.93847  1.0000
  C   C683      1.0  0.65123  0.80821  0.62836  1.0000
  Fe  Fe79      1.0  0.59049  0.77913  0.50669  1.0000
  S   S154      1.0  0.65131  0.87268  0.74337  1.0000
  H   H1219     1.0  0.53821  0.84741  0.95554  1.0000
  C   C684      1.0  0.32180  0.69355  0.51215  1.0000
  H   H1220     1.0  0.32805  0.90630  0.81676  1.0000
  H   H1221     1.0  0.33983  0.90097  0.59597  1.0000
  H   H1222     1.0  0.62312  0.79917  0.84457  1.0000
  S   S155      1.0  0.64690  0.83076  0.80778  1.0000
  S   S156      1.0  0.33631  0.82324  0.80629  1.0000
  S   S157      1.0  0.43262  0.76017  0.99062  1.0000
  C   C685      1.0  0.52169  0.78131  0.50932  1.0000
  H   H1223     1.0  0.32365  0.76874  0.61077  1.0000
  H   H1224     1.0  0.61368  0.85843  0.96046  1.0000
  H   H1225     1.0  0.35403  0.93165  0.68124  1.0000
  H   H1226     1.0  0.32270  0.74251  0.94222  1.0000
  C   C686      1.0  0.34441  0.92106  0.69663  1.0000
  H   H1227     1.0  0.33791  0.94727  0.63080  1.0000
  C   C687      1.0  0.32783  0.95944  0.64482  1.0000
  H   H1228     1.0  0.64420  0.79339  0.63993  1.0000
  S   S158      1.0  0.54004  0.80188  0.99427  1.0000
  C   C688      1.0  0.32923  0.70943  0.92096  1.0000
  H   H1229     1.0  0.46319  0.79979  0.52110  1.0000
  H   H1230     1.0  0.33908  0.96373  0.66283  1.0000
  H   H1231     1.0  0.32307  0.65873  0.53168  1.0000
  C   C689      1.0  0.49036  0.80555  0.99084  1.0000
  Fe  Fe80      1.0  0.39374  0.77558  0.99475  1.0000
  S   S159      1.0  0.38531  0.81513  0.99800  1.0000
  C   C690      1.0  0.64839  0.82801  0.84398  1.0000
  H   H1232     1.0  0.34640  0.97491  0.82554  1.0000
  S   S160      1.0  0.65194  0.71002  0.51978  1.0000
  H   H1233     1.0  0.32181  0.75567  0.89582  1.0000
  C   C691      1.0  0.32797  0.97537  0.83424  1.0000
  C   C692      1.0  0.32333  0.98306  0.62955  1.0000
  H   H1234     1.0  0.32116  0.92508  0.86313  1.0000
  Fe  Fe81      1.0  0.70222  0.08315  0.25412  1.0000
  C   C693      1.0  0.74258  0.04775  0.19432  1.0000
  S   S161      1.0  0.71589  0.04441  0.26457  1.0000
  Fe  Fe82      1.0  0.71727  0.13697  0.24898  1.0000
  S   S162      1.0  0.67912  0.14834  0.23909  1.0000
  S   S163      1.0  0.73848  0.17171  0.25466  1.0000
  Fe  Fe83      1.0  0.66864  0.12434  0.27388  1.0000
  H   H1235     1.0  0.74495  0.28393  0.42991  1.0000
  Fe  Fe84      1.0  0.67765  0.11614  0.21167  1.0000
  C   C694      1.0  0.91871  0.33110  0.09584  1.0000
  S   S164      1.0  0.70657  0.11379  0.28461  1.0000
  S   S165      1.0  0.71651  0.10569  0.21927  1.0000
  H   H1236     1.0  0.74230  0.00024  0.27521  1.0000
  H   H1237     1.0  0.72392  0.42498  0.06357  1.0000
  Fe  Fe85      1.0  0.77051  0.34070  0.49221  1.0000
  C   C695      1.0  0.93647  0.32754  0.14376  1.0000
  H   H1238     1.0  0.68402  0.21147  0.36426  1.0000
  H   H1239     1.0  0.88936  0.34920  0.35653  1.0000
  H   H1240     1.0  0.67952  0.07833  0.08417  1.0000
  H   H1241     1.0  0.78460  0.26742  0.41993  1.0000
  Fe  Fe86      1.0  0.81029  0.35161  0.02822  1.0000
  S   S166      1.0  0.83482  0.33173  0.05890  1.0000
  Fe  Fe87      1.0  0.82021  0.35623  0.47236  1.0000
  S   S167      1.0  0.84982  0.34275  0.44335  1.0000
  S   S168      1.0  0.78001  0.37883  0.03308  1.0000
  S   S169      1.0  0.78259  0.36565  0.45898  1.0000
  Fe  Fe88      1.0  0.89527  0.29051  0.25436  1.0000
  S   S170      1.0  0.86889  0.32197  0.25558  1.0000
  S   S171      1.0  0.93421  0.30340  0.26020  1.0000
  Fe  Fe89      1.0  0.85370  0.25488  0.24942  1.0000
  S   S172      1.0  0.82563  0.28403  0.25122  1.0000
  S   S173      1.0  0.84318  0.21596  0.24148  1.0000
  Fe  Fe90      1.0  0.84892  0.30363  0.22171  1.0000
  S   S174      1.0  0.82782  0.32425  0.18889  1.0000
  Fe  Fe91      1.0  0.84763  0.30004  0.28498  1.0000
  S   S175      1.0  0.82595  0.31848  0.31895  1.0000
  S   S176      1.0  0.87651  0.27375  0.21813  1.0000
  S   S177      1.0  0.87454  0.26924  0.28564  1.0000
  H   H1242     1.0  0.74336  0.04516  0.15009  1.0000
  C   C696      1.0  0.96488  0.29498  0.25312  1.0000
  H   H1243     1.0  0.75111  0.42282  0.04380  1.0000
  H   H1244     1.0  0.94191  0.24517  0.16544  1.0000
  H   H1245     1.0  0.95765  0.26183  0.23219  1.0000
  C   C697      1.0  0.83246  0.32975  0.09504  1.0000
  C   C698      1.0  0.81488  0.34261  0.10967  1.0000
  C   C699      1.0  0.81383  0.34068  0.13837  1.0000
  C   C700      1.0  0.83024  0.32585  0.15278  1.0000
  C   C701      1.0  0.84768  0.31274  0.13816  1.0000
  C   C702      1.0  0.84879  0.31474  0.10943  1.0000
  H   H1246     1.0  0.80219  0.35417  0.09890  1.0000
  H   H1247     1.0  0.80024  0.35086  0.14949  1.0000
  H   H1248     1.0  0.86021  0.30106  0.14893  1.0000
  H   H1249     1.0  0.86233  0.30458  0.09824  1.0000
  C   C703      1.0  0.84405  0.33675  0.40834  1.0000
  C   C704      1.0  0.82781  0.35096  0.39331  1.0000
  C   C705      1.0  0.82306  0.34550  0.36573  1.0000
  C   C706      1.0  0.83478  0.32603  0.35269  1.0000
  C   C707      1.0  0.85160  0.31220  0.36744  1.0000
  C   C708      1.0  0.85622  0.31758  0.39515  1.0000
  H   H1250     1.0  0.81892  0.36620  0.40301  1.0000
  H   H1251     1.0  0.81014  0.35640  0.35445  1.0000
  H   H1252     1.0  0.86044  0.29694  0.35774  1.0000
  H   H1253     1.0  0.86876  0.30649  0.40668  1.0000
  H   H1254     1.0  0.77847  0.21878  0.34144  1.0000
  H   H1255     1.0  0.75605  0.39210  0.38712  1.0000
  H   H1256     1.0  0.66505  0.22070  0.27558  1.0000
  C   C709      1.0  0.83351  0.47874  0.08850  1.0000
  S   S178      1.0  0.72121  0.34547  0.01254  1.0000
  C   C710      1.0  0.71123  0.00987  0.17085  1.0000
  H   H1257     1.0  0.87706  0.38332  0.19152  1.0000
  H   H1258     1.0  0.70735  0.25360  0.39250  1.0000
  H   H1259     1.0  0.72834  0.99399  0.13438  1.0000
  H   H1260     1.0  0.68599  0.02321  0.12831  1.0000
  C   C711      1.0  0.87923  0.36354  0.18914  1.0000
  C   C712      1.0  0.71563  0.29061  0.40277  1.0000
  H   H1261     1.0  0.87088  0.35479  0.20701  1.0000
  H   H1262     1.0  0.91091  0.30745  0.43127  1.0000
  C   C713      1.0  0.66152  0.12785  0.35503  1.0000
  C   C714      1.0  0.76774  0.18340  0.24999  1.0000
  C   C715      1.0  0.77107  0.20811  0.25448  1.0000
  C   C716      1.0  0.79396  0.21833  0.25196  1.0000
  C   C717      1.0  0.81386  0.20398  0.24457  1.0000
  C   C718      1.0  0.81044  0.17937  0.23945  1.0000
  C   C719      1.0  0.78755  0.16909  0.24219  1.0000
  H   H1263     1.0  0.75584  0.21943  0.26015  1.0000
  H   H1264     1.0  0.79625  0.23724  0.25602  1.0000
  H   H1265     1.0  0.82568  0.16809  0.23365  1.0000
  H   H1266     1.0  0.78530  0.15009  0.23852  1.0000
  H   H1267     1.0  0.86962  0.35808  0.17026  1.0000
  H   H1268     1.0  0.67598  0.02026  0.23583  1.0000
  C   C720      1.0  0.69958  0.31062  0.47868  1.0000
  H   H1269     1.0  0.90163  0.33214  0.08398  1.0000
  N   N38       1.0  0.93267  0.31948  0.34998  1.0000
  H   H1270     1.0  0.73009  0.16344  0.37662  1.0000
  C   C721      1.0  0.81184  0.28306  0.44462  1.0000
  C   C722      1.0  0.68785  0.04672  0.18034  1.0000
  H   H1271     1.0  0.75211  0.25773  0.03008  1.0000
  H   H1272     1.0  0.89312  0.36410  0.29622  1.0000
  C   C723      1.0  0.70989  0.01366  0.25579  1.0000
  H   H1273     1.0  0.72202  0.22585  0.03503  1.0000
  H   H1274     1.0  0.77458  0.23114  0.30779  1.0000
  H   H1275     1.0  0.68258  0.27093  0.40679  1.0000
  S   S179      1.0  0.66001  0.19705  0.49200  1.0000
  C   C724      1.0  0.76542  0.06253  0.19526  1.0000
  C   C725      1.0  0.76125  0.30162  0.31872  1.0000
  H   H1276     1.0  0.69488  0.99930  0.16665  1.0000
  H   H1277     1.0  0.76389  0.35165  0.36794  1.0000
  C   C726      1.0  0.70229  0.26738  0.40800  1.0000
  H   H1278     1.0  0.69958  0.42887  0.02205  1.0000
  H   H1279     1.0  0.72841  0.37610  0.38300  1.0000
  C   C727      1.0  0.93702  0.29419  0.17776  1.0000
  H   H1280     1.0  0.74167  0.33471  0.42269  1.0000
  N   N39       1.0  0.93391  0.32096  0.17360  1.0000
  C   C728      1.0  0.68939  0.00682  0.24124  1.0000
  H   H1281     1.0  0.67227  0.11460  0.34404  1.0000
  H   H1282     1.0  0.67463  0.06755  0.13229  1.0000
  C   C729      1.0  0.68952  0.30797  0.01542  1.0000
  C   C730      1.0  0.68585  0.06033  0.09130  1.0000
  C   C731      1.0  0.93546  0.29914  0.39760  1.0000
  H   H1283     1.0  0.68675  0.20572  0.43870  1.0000
  H   H1284     1.0  0.72179  0.22382  0.35425  1.0000
  H   H1285     1.0  0.71669  0.20344  0.40191  1.0000
  C   C732      1.0  0.66257  0.03555  0.17738  1.0000
  H   H1286     1.0  0.70216  0.32972  0.47632  1.0000
  C   C733      1.0  0.67632  0.30106  0.47646  1.0000
  N   N40       1.0  0.78244  0.25524  0.16489  1.0000
  C   C734      1.0  0.77764  0.25809  0.13465  1.0000
  C   C735      1.0  0.76954  0.23335  0.17505  1.0000
  C   C736      1.0  0.77148  0.27702  0.17911  1.0000
  C   C737      1.0  0.80900  0.25369  0.17182  1.0000
  C   C738      1.0  0.82588  0.24155  0.15034  1.0000
  C   C739      1.0  0.78563  0.28223  0.12204  1.0000
  C   C740      1.0  0.77023  0.27568  0.21073  1.0000
  C   C741      1.0  0.77767  0.20872  0.16313  1.0000
  C   C742      1.0  0.76020  0.18907  0.17108  1.0000
  C   C743      1.0  0.85154  0.23878  0.16122  1.0000
  C   C744      1.0  0.78597  0.28113  0.09082  1.0000
  C   C745      1.0  0.76593  0.30048  0.22353  1.0000
  H   H1287     1.0  0.75801  0.25662  0.13038  1.0000
  H   H1288     1.0  0.78618  0.24329  0.12272  1.0000
  H   H1289     1.0  0.77191  0.23122  0.19750  1.0000
  H   H1290     1.0  0.74980  0.23571  0.17155  1.0000
  H   H1291     1.0  0.75277  0.28059  0.17165  1.0000
  H   H1292     1.0  0.78174  0.29342  0.17401  1.0000
  H   H1293     1.0  0.81634  0.27195  0.17533  1.0000
  H   H1294     1.0  0.81180  0.24416  0.19165  1.0000
  H   H1295     1.0  0.82679  0.25262  0.13156  1.0000
  H   H1296     1.0  0.81975  0.22354  0.14431  1.0000
  H   H1297     1.0  0.77292  0.29699  0.12804  1.0000
  H   H1298     1.0  0.80376  0.28705  0.12931  1.0000
  H   H1299     1.0  0.78707  0.26787  0.21924  1.0000
  H   H1300     1.0  0.75513  0.26417  0.21704  1.0000
  H   H1301     1.0  0.77863  0.20884  0.14054  1.0000
  H   H1302     1.0  0.79555  0.20349  0.17170  1.0000
  H   H1303     1.0  0.76709  0.17135  0.16367  1.0000
  H   H1304     1.0  0.75828  0.18810  0.19362  1.0000
  H   H1305     1.0  0.85918  0.25671  0.16517  1.0000
  H   H1306     1.0  0.85194  0.22807  0.18038  1.0000
  H   H1307     1.0  0.86299  0.22937  0.14583  1.0000
  H   H1308     1.0  0.79059  0.29902  0.08251  1.0000
  H   H1309     1.0  0.79975  0.26784  0.08365  1.0000
  H   H1310     1.0  0.74892  0.30878  0.21576  1.0000
  H   H1311     1.0  0.76472  0.29875  0.24609  1.0000
  H   H1312     1.0  0.78110  0.31248  0.21882  1.0000
  N   N41       1.0  0.71116  0.18687  0.34799  1.0000
  C   C746      1.0  0.69908  0.18452  0.32045  1.0000
  C   C747      1.0  0.72178  0.16267  0.35597  1.0000
  C   C748      1.0  0.69185  0.19332  0.36862  1.0000
  C   C749      1.0  0.68294  0.20624  0.31163  1.0000
  C   C750      1.0  0.69972  0.19360  0.39909  1.0000
  S   S180      1.0  0.66276  0.11253  0.16792  1.0000
  H   H1313     1.0  0.91349  0.36597  0.16930  1.0000
  H   H1314     1.0  0.73214  0.11453  0.34307  1.0000
  H   H1315     1.0  0.68752  0.16839  0.32004  1.0000
  C   C751      1.0  0.67632  0.20481  0.28136  1.0000
  H   H1316     1.0  0.67683  0.22445  0.41077  1.0000
  H   H1317     1.0  0.70720  0.14929  0.35738  1.0000
  H   H1318     1.0  0.67672  0.18069  0.36683  1.0000
  H   H1319     1.0  0.70912  0.25533  0.04150  1.0000
  H   H1320     1.0  0.69196  0.22351  0.31548  1.0000
  H   H1321     1.0  0.70236  0.17493  0.40671  1.0000
  C   C752      1.0  0.92331  0.25154  0.17017  1.0000
  H   H1322     1.0  0.66581  0.20630  0.32329  1.0000
  C   C753      1.0  0.67256  0.27626  0.47960  1.0000
  H   H1323     1.0  0.77370  0.28580  0.31699  1.0000
  H   H1324     1.0  0.94464  0.28275  0.38949  1.0000
  H   H1325     1.0  0.72890  0.39943  0.04150  1.0000
  H   H1326     1.0  0.68620  0.31413  0.03608  1.0000
  H   H1327     1.0  0.73784  0.31908  0.34757  1.0000
  C   C754      1.0  0.94664  0.29882  0.33718  1.0000
  C   C755      1.0  0.90028  0.35206  0.33792  1.0000
  C   C756      1.0  0.93224  0.27582  0.33123  1.0000
  C   C757      1.0  0.88308  0.36024  0.31525  1.0000
  H   H1328     1.0  0.95242  0.35291  0.18677  1.0000
  C   C758      1.0  0.67673  0.28823  0.00503  1.0000
  H   H1329     1.0  0.95425  0.30436  0.31721  1.0000
  H   H1330     1.0  0.91100  0.32756  0.38563  1.0000
  H   H1331     1.0  0.92250  0.33146  0.30931  1.0000
  H   H1332     1.0  0.91263  0.36705  0.34188  1.0000
  H   H1333     1.0  0.92413  0.26848  0.35002  1.0000
  H   H1334     1.0  0.91771  0.27974  0.31630  1.0000
  H   H1335     1.0  0.86974  0.34617  0.31102  1.0000
  H   H1336     1.0  0.87316  0.37681  0.32174  1.0000
  H   H1337     1.0  0.76124  0.08178  0.19103  1.0000
  H   H1338     1.0  0.96474  0.33115  0.37080  1.0000
  H   H1339     1.0  0.90644  0.27848  0.41528  1.0000
  H   H1340     1.0  0.75866  0.24463  0.33609  1.0000
  H   H1341     1.0  0.93179  0.28288  0.43763  1.0000
  H   H1342     1.0  0.74789  0.02891  0.19914  1.0000
  C   C759      1.0  0.68051  0.20563  0.41713  1.0000
  C   C760      1.0  0.91971  0.27785  0.16181  1.0000
  H   H1343     1.0  0.74221  0.19259  0.16183  1.0000
  H   H1344     1.0  0.95657  0.26227  0.29954  1.0000
  Fe  Fe92      1.0  0.75982  0.35575  0.00284  1.0000
  C   C761      1.0  0.97939  0.37090  0.34357  1.0000
  H   H1345     1.0  0.76803  0.27627  0.08272  1.0000
  H   H1346     1.0  0.94120  0.35291  0.37039  1.0000
  C   C762      1.0  0.71701  0.24337  0.02552  1.0000
  H   H1347     1.0  0.70305  0.24040  0.00964  1.0000
  C   C763      1.0  0.74172  0.15202  0.33723  1.0000
  C   C764      1.0  0.91972  0.31175  0.37543  1.0000
  H   H1348     1.0  0.90027  0.31488  0.32601  1.0000
  H   H1349     1.0  0.73085  0.25861  0.49058  1.0000
  C   C765      1.0  0.74808  0.12611  0.34525  1.0000
  H   H1350     1.0  0.74178  0.37944  0.41657  1.0000
  C   C766      1.0  0.91417  0.32865  0.32967  1.0000
  H   H1351     1.0  0.90064  0.28292  0.16547  1.0000
  H   H1352     1.0  0.90464  0.29974  0.37013  1.0000
  H   H1353     1.0  0.94930  0.31144  0.40553  1.0000
  S   S181      1.0  0.66340  0.09266  0.24553  1.0000
  H   H1354     1.0  0.94992  0.35942  0.31891  1.0000
  H   H1355     1.0  0.74872  0.26978  0.39766  1.0000
  H   H1356     1.0  0.73246  0.21917  0.30637  1.0000
  H   H1357     1.0  0.69274  0.20446  0.26845  1.0000
  H   H1358     1.0  0.77155  0.31820  0.31504  1.0000
  C   C767      1.0  0.94842  0.25609  0.31893  1.0000
  H   H1359     1.0  0.66380  0.27928  0.01773  1.0000
  H   H1360     1.0  0.66587  0.18838  0.27735  1.0000
  H   H1361     1.0  0.90248  0.31180  0.12847  1.0000
  H   H1362     1.0  0.77755  0.35547  0.40092  1.0000
  C   C768      1.0  0.92014  0.29156  0.42187  1.0000
  C   C769      1.0  0.91003  0.32901  0.18552  1.0000
  H   H1363     1.0  0.76246  0.11892  0.33159  1.0000
  C   C770      1.0  0.72992  0.04998  0.16612  1.0000
  H   H1364     1.0  0.94965  0.31506  0.13367  1.0000
  H   H1365     1.0  0.80066  0.28347  0.46341  1.0000
  H   H1366     1.0  0.91050  0.24018  0.15876  1.0000
  H   H1367     1.0  0.70654  0.26031  0.42869  1.0000
  H   H1368     1.0  0.73351  0.27296  0.00507  1.0000
  H   H1369     1.0  0.92951  0.31546  0.08824  1.0000
  C   C771      1.0  0.72640  0.99540  0.26383  1.0000
  C   C772      1.0  0.76377  0.48230  0.47889  1.0000
  H   H1370     1.0  0.76548  0.46098  0.02592  1.0000
  H   H1371     1.0  0.69293  0.04524  0.20224  1.0000
  H   H1372     1.0  0.78272  0.31558  0.36459  1.0000
  C   C773      1.0  0.76522  0.22732  0.32726  1.0000
  C   C774      1.0  0.71566  0.27059  0.48666  1.0000
  C   C775      1.0  0.73002  0.20605  0.34869  1.0000
  H   H1373     1.0  0.82388  0.29868  0.44487  1.0000
  H   H1374     1.0  0.73804  0.28661  0.34881  1.0000
  H   H1375     1.0  0.77870  0.05565  0.18008  1.0000
  H   H1376     1.0  0.80777  0.28198  0.40098  1.0000
  H   H1377     1.0  0.75469  0.12526  0.36668  1.0000
  H   H1378     1.0  0.73057  0.05449  0.21069  1.0000
  H   H1379     1.0  0.82316  0.26638  0.44476  1.0000
  C   C776      1.0  0.79589  0.28356  0.41916  1.0000
  H   H1380     1.0  0.95526  0.28788  0.17147  1.0000
  H   H1381     1.0  0.74332  0.20205  0.36523  1.0000
  H   H1382     1.0  0.92349  0.27884  0.13958  1.0000
  H   H1383     1.0  0.71239  0.18112  0.30406  1.0000
  C   C777      1.0  0.74564  0.37660  0.39451  1.0000
  H   H1384     1.0  0.79355  0.32132  0.41170  1.0000
  C   C778      1.0  0.77407  0.47495  0.01452  1.0000
  N   N42       1.0  0.75934  0.30712  0.39836  1.0000
  C   C779      1.0  0.97972  0.32507  0.18345  1.0000
  C   C780      1.0  0.74310  0.28708  0.40746  1.0000
  H   H1385     1.0  0.75836  0.16252  0.33946  1.0000
  H   H1386     1.0  0.70516  0.07524  0.12505  1.0000
  H   H1387     1.0  0.72592  0.06950  0.16314  1.0000
  C   C781      1.0  0.76859  0.30253  0.36986  1.0000
  C   C782      1.0  0.74427  0.21053  0.32197  1.0000
  C   C783      1.0  0.74944  0.30265  0.34690  1.0000
  C   C784      1.0  0.78070  0.30732  0.41751  1.0000
  H   H1388     1.0  0.74947  0.00546  0.15884  1.0000
  H   H1389     1.0  0.77473  0.31229  0.43849  1.0000
  H   H1390     1.0  0.71133  0.29644  0.38167  1.0000
  H   H1391     1.0  0.66344  0.19573  0.41602  1.0000
  H   H1392     1.0  0.77796  0.28469  0.36865  1.0000
  H   H1393     1.0  0.79453  0.24329  0.00721  1.0000
  H   H1394     1.0  0.72929  0.33172  0.38955  1.0000
  H   H1395     1.0  0.96255  0.29371  0.34991  1.0000
  H   H1396     1.0  0.74724  0.30027  0.30261  1.0000
  C   C785      1.0  0.76028  0.35334  0.39016  1.0000
  H   H1397     1.0  0.70840  0.30443  0.41721  1.0000
  H   H1398     1.0  0.75166  0.19376  0.31285  1.0000
  H   H1399     1.0  0.82916  0.46350  0.07475  1.0000
  H   H1400     1.0  0.73626  0.15177  0.31547  1.0000
  C   C786      1.0  0.74655  0.33129  0.40087  1.0000
  C   C787      1.0  0.73158  0.41909  0.04366  1.0000
  H   H1401     1.0  0.77362  0.06119  0.21595  1.0000
  C   C788      1.0  0.98329  0.31031  0.26179  1.0000
  H   H1402     1.0  0.95062  0.33038  0.21220  1.0000
  H   H1403     1.0  0.94437  0.34568  0.14159  1.0000
  C   C789      1.0  0.65665  0.13465  0.14231  1.0000
  C   C790      1.0  0.90591  0.35668  0.18725  1.0000
  H   H1404     1.0  0.90128  0.34366  0.13218  1.0000
  H   H1405     1.0  0.89477  0.32115  0.17423  1.0000
  H   H1406     1.0  0.92003  0.24924  0.19239  1.0000
  C   C791      1.0  0.65914  0.01892  0.31215  1.0000
  C   C792      1.0  0.95015  0.33877  0.35762  1.0000
  N   N43       1.0  0.70731  0.03574  0.16252  1.0000
  H   H1407     1.0  0.91497  0.36370  0.20583  1.0000
  H   H1408     1.0  0.67536  0.11745  0.39467  1.0000
  C   C793      1.0  0.96297  0.35108  0.33339  1.0000
  C   C794      1.0  0.91309  0.32822  0.12618  1.0000
  H   H1409     1.0  0.93550  0.28991  0.19992  1.0000
  H   H1410     1.0  0.92870  0.34788  0.09225  1.0000
  H   H1411     1.0  0.90816  0.32198  0.20673  1.0000
  C   C795      1.0  0.97140  0.27402  0.23881  1.0000
  C   C796      1.0  0.77782  0.46260  0.48840  1.0000
  C   C797      1.0  0.73909  0.25509  0.01315  1.0000
  H   H1412     1.0  0.69150  0.99908  0.32192  1.0000
  H   H1413     1.0  0.68613  0.06642  0.17679  1.0000
  H   H1414     1.0  0.96299  0.25084  0.33345  1.0000
  C   C798      1.0  0.70019  0.03650  0.13275  1.0000
  H   H1415     1.0  0.82222  0.47747  0.10711  1.0000
  H   H1416     1.0  0.93761  0.24000  0.31436  1.0000
  C   C799      1.0  0.95341  0.33312  0.18988  1.0000
  C   C800      1.0  0.69137  0.06140  0.12188  1.0000
  H   H1417     1.0  0.71566  0.03075  0.11974  1.0000
  H   H1418     1.0  0.70224  0.05511  0.07959  1.0000
  H   H1419     1.0  0.71401  0.00854  0.19330  1.0000
  C   C801      1.0  0.69241  0.26110  0.48486  1.0000
  C   C802      1.0  0.73219  0.99609  0.15652  1.0000
  C   C803      1.0  0.66319  0.12948  0.38377  1.0000
  H   H1420     1.0  0.74716  0.47893  0.46811  1.0000
  C   C804      1.0  0.71898  0.43268  0.02045  1.0000
  H   H1421     1.0  0.97436  0.33789  0.32202  1.0000
  H   H1422     1.0  0.67148  0.04724  0.08711  1.0000
  H   H1423     1.0  0.66111  0.31296  0.47234  1.0000
  Fe  Fe93      1.0  0.78390  0.39486  0.49155  1.0000
  H   H1424     1.0  0.82339  0.28658  0.01861  1.0000
  H   H1425     1.0  0.66288  0.01666  0.18457  1.0000
  S   S182      1.0  0.78903  0.32774  0.00060  1.0000
  H   H1426     1.0  0.67618  0.98865  0.29213  1.0000
  S   S183      1.0  0.74918  0.30600  0.48711  1.0000
  H   H1427     1.0  0.83684  0.25696  0.01370  1.0000
  H   H1428     1.0  0.66921  0.03221  0.29998  1.0000
  H   H1429     1.0  0.65620  0.03585  0.15591  1.0000
  C   C805      1.0  0.67347  0.99522  0.31326  1.0000
  H   H1430     1.0  0.68988  0.24202  0.48729  1.0000
  H   H1431     1.0  0.65356  0.19514  0.13123  1.0000
  H   H1432     1.0  0.72181  0.45210  0.02407  1.0000
  H   H1433     1.0  0.78201  0.27303  0.00681  1.0000
  H   H1434     1.0  0.66324  0.16541  0.16771  1.0000
  H   H1435     1.0  0.96879  0.38508  0.35449  1.0000
  S   S184      1.0  0.76765  0.43259  0.48240  1.0000
  C   C806      1.0  0.71939  0.29537  0.48374  1.0000
  H   H1436     1.0  0.97861  0.32665  0.27269  1.0000
  H   H1437     1.0  0.98291  0.32391  0.16111  1.0000
  H   H1438     1.0  0.98375  0.30721  0.19264  1.0000
  H   H1439     1.0  0.85281  0.47711  0.09431  1.0000
  C   C807      1.0  0.65807  0.15930  0.14757  1.0000
  C   C808      1.0  0.83095  0.27378  0.00324  1.0000
  H   H1440     1.0  0.65641  0.02631  0.33305  1.0000
  H   H1441     1.0  0.69315  0.47061  0.00118  1.0000
  H   H1442     1.0  0.75704  0.22214  0.00012  1.0000
  Fe  Fe94      1.0  0.69478  0.08427  0.75514  1.0000
  H   H1443     1.0  0.78219  0.23055  0.59169  1.0000
  S   S185      1.0  0.71156  0.04597  0.75876  1.0000
  Fe  Fe95      1.0  0.70836  0.13790  0.75004  1.0000
  S   S186      1.0  0.66953  0.14877  0.74392  1.0000
  S   S187      1.0  0.72950  0.17278  0.75023  1.0000
  C   C809      1.0  0.65464  0.12635  0.86104  1.0000
  C   C810      1.0  0.69711  0.29255  0.96188  1.0000
  H   H1444     1.0  0.75267  0.20391  0.95039  1.0000
  H   H1445     1.0  0.80720  0.25059  0.59324  1.0000
  S   S188      1.0  0.70072  0.11421  0.78619  1.0000
  S   S189      1.0  0.70587  0.10755  0.71944  1.0000
  C   C811      1.0  0.67130  0.05676  0.63156  1.0000
  N   N44       1.0  0.67263  0.02618  0.67210  1.0000
  C   C812      1.0  0.83407  0.19255  0.67567  1.0000
  H   H1446     1.0  0.91019  0.36400  0.79919  1.0000
  C   C813      1.0  0.71725  0.03826  0.67480  1.0000
  H   H1447     1.0  0.94222  0.31039  0.71466  1.0000
  H   H1448     1.0  0.74515  0.25017  0.83412  1.0000
  H   H1449     1.0  0.73374  0.06195  0.70457  1.0000
  Fe  Fe96      1.0  0.80706  0.36067  0.53378  1.0000
  S   S190      1.0  0.81761  0.36110  0.57924  1.0000
  Fe  Fe97      1.0  0.80367  0.34884  0.96535  1.0000
  S   S191      1.0  0.81989  0.32415  0.93220  1.0000
  S   S192      1.0  0.76846  0.37034  0.52374  1.0000
  S   S193      1.0  0.77261  0.37561  0.96564  1.0000
  Fe  Fe98      1.0  0.89372  0.27787  0.75642  1.0000
  S   S194      1.0  0.86996  0.30851  0.74142  1.0000
  S   S195      1.0  0.93242  0.28776  0.76879  1.0000
  Fe  Fe99      1.0  0.84973  0.24399  0.75881  1.0000
  S   S196      1.0  0.82395  0.27290  0.74482  1.0000
  S   S197      1.0  0.83793  0.20544  0.76620  1.0000
  Fe  Fe100     1.0  0.85227  0.28160  0.71376  1.0000
  S   S198      1.0  0.84371  0.28013  0.66787  1.0000
  Fe  Fe101     1.0  0.84389  0.29687  0.77397  1.0000
  S   S199      1.0  0.82527  0.32476  0.80154  1.0000
  S   S200      1.0  0.87768  0.25154  0.72683  1.0000
  S   S201      1.0  0.86803  0.26740  0.78992  1.0000
  H   H1450     1.0  0.79432  0.23828  0.94140  1.0000
  C   C814      1.0  0.96236  0.28231  0.75631  1.0000
  H   H1451     1.0  0.76977  0.30550  0.89911  1.0000
  C   C815      1.0  0.71656  0.46144  0.96565  1.0000
  H   H1452     1.0  0.95295  0.25758  0.72438  1.0000
  C   C816      1.0  0.82537  0.33828  0.60336  1.0000
  C   C817      1.0  0.82899  0.31421  0.59583  1.0000
  C   C818      1.0  0.83481  0.29677  0.61584  1.0000
  C   C819      1.0  0.83718  0.30313  0.64358  1.0000
  C   C820      1.0  0.83393  0.32724  0.65108  1.0000
  C   C821      1.0  0.82807  0.34467  0.63107  1.0000
  H   H1453     1.0  0.82754  0.30912  0.57456  1.0000
  H   H1454     1.0  0.83771  0.27826  0.60975  1.0000
  H   H1455     1.0  0.83567  0.33244  0.67229  1.0000
  H   H1456     1.0  0.82544  0.36326  0.63712  1.0000
  C   C822      1.0  0.82053  0.32478  0.89585  1.0000
  C   C823      1.0  0.81273  0.34478  0.88072  1.0000
  C   C824      1.0  0.81425  0.34446  0.85190  1.0000
  C   C825      1.0  0.82343  0.32415  0.83787  1.0000
  C   C826      1.0  0.83098  0.30408  0.85302  1.0000
  C   C827      1.0  0.82969  0.30448  0.88180  1.0000
  H   H1457     1.0  0.80571  0.36055  0.89121  1.0000
  H   H1458     1.0  0.80829  0.36007  0.84040  1.0000
  H   H1459     1.0  0.83761  0.28816  0.84253  1.0000
  H   H1460     1.0  0.83573  0.28888  0.89327  1.0000
  H   H1461     1.0  0.76604  0.27986  0.61145  1.0000
  H   H1462     1.0  0.75302  0.17558  0.64894  1.0000
  H   H1463     1.0  0.87269  0.18715  0.67987  1.0000
  C   C828      1.0  0.74968  0.28343  0.55975  1.0000
  H   H1464     1.0  0.66445  0.11243  0.85001  1.0000
  C   C829      1.0  0.75565  0.17432  0.67137  1.0000
  H   H1465     1.0  0.86289  0.21823  0.67972  1.0000
  Fe  Fe102     1.0  0.79464  0.39741  0.99572  1.0000
  H   H1466     1.0  0.94176  0.28877  0.64544  1.0000
  H   H1467     1.0  0.78277  0.27389  0.51671  1.0000
  H   H1468     1.0  0.69975  0.28700  0.94089  1.0000
  C   C830      1.0  0.85845  0.19996  0.68697  1.0000
  H   H1469     1.0  0.76238  0.21531  0.70396  1.0000
  H   H1470     1.0  0.70499  0.17141  0.90703  1.0000
  H   H1471     1.0  0.78779  0.24830  0.63783  1.0000
  C   C831      1.0  0.75973  0.18082  0.75640  1.0000
  C   C832      1.0  0.76500  0.20538  0.75738  1.0000
  C   C833      1.0  0.78873  0.21309  0.76093  1.0000
  C   C834      1.0  0.80762  0.19629  0.76339  1.0000
  C   C835      1.0  0.80234  0.17164  0.76298  1.0000
  C   C836      1.0  0.77848  0.16389  0.75955  1.0000
  H   H1472     1.0  0.75059  0.21861  0.75521  1.0000
  H   H1473     1.0  0.79241  0.23206  0.76180  1.0000
  H   H1474     1.0  0.81683  0.15847  0.76501  1.0000
  H   H1475     1.0  0.77469  0.14491  0.75893  1.0000
  N   N45       1.0  0.90879  0.33177  0.84840  1.0000
  Fe  Fe103     1.0  0.66656  0.11724  0.71580  1.0000
  C   C837      1.0  0.68888  0.18973  0.87150  1.0000
  C   C838      1.0  0.76249  0.42207  0.90893  1.0000
  H   H1476     1.0  0.67178  0.04734  0.58824  1.0000
  H   H1477     1.0  0.93973  0.33477  0.80505  1.0000
  C   C839      1.0  0.96077  0.32735  0.66470  1.0000
  C   C840      1.0  0.68039  0.28046  0.97811  1.0000
  C   C841      1.0  0.68993  0.42598  0.96766  1.0000
  H   H1478     1.0  0.71392  0.36590  0.53486  1.0000
  C   C842      1.0  0.69982  0.01619  0.75620  1.0000
  C   C843      1.0  0.67512  0.01184  0.75577  1.0000
  C   C844      1.0  0.66869  0.03051  0.64188  1.0000
  H   H1479     1.0  0.92479  0.29996  0.82959  1.0000
  H   H1480     1.0  0.75544  0.22686  0.67129  1.0000
  H   H1481     1.0  0.68063  0.43207  0.94860  1.0000
  H   H1482     1.0  0.68171  0.24532  0.58175  1.0000
  H   H1483     1.0  0.69091  0.04101  0.70701  1.0000
  H   H1484     1.0  0.80905  0.28183  0.53599  1.0000
  H   H1485     1.0  0.71667  0.27045  0.59545  1.0000
  H   H1486     1.0  0.79037  0.25765  0.68061  1.0000
  C   C845      1.0  0.79036  0.27534  0.53764  1.0000
  H   H1487     1.0  0.73136  0.14438  0.67418  1.0000
  C   C846      1.0  0.75394  0.29365  0.62069  1.0000
  H   H1488     1.0  0.67550  0.17516  0.87128  1.0000
  C   C847      1.0  0.68648  0.39843  0.97044  1.0000
  C   C848      1.0  0.93388  0.29308  0.66581  1.0000
  H   H1489     1.0  0.74830  0.25613  0.72135  1.0000
  H   H1490     1.0  0.78377  0.17748  0.70189  1.0000
  H   H1491     1.0  0.81027  0.45262  0.50991  1.0000
  H   H1492     1.0  0.70574  0.26468  0.54557  1.0000
  N   N46       1.0  0.93583  0.31953  0.67223  1.0000
  H   H1493     1.0  0.67927  0.22224  0.82195  1.0000
  H   H1494     1.0  0.67829  0.20682  0.86939  1.0000
  H   H1495     1.0  0.77646  0.29392  0.65710  1.0000
  C   C849      1.0  0.78058  0.23092  0.95528  1.0000
  H   H1496     1.0  0.75779  0.24074  0.80194  1.0000
  H   H1497     1.0  0.72680  0.07599  0.67195  1.0000
  C   C850      1.0  0.78960  0.20916  0.64248  1.0000
  H   H1498     1.0  0.82113  0.25578  0.96636  1.0000
  C   C851      1.0  0.89542  0.33752  0.87455  1.0000
  C   C852      1.0  0.91613  0.30544  0.84922  1.0000
  C   C853      1.0  0.89281  0.33628  0.82375  1.0000
  C   C854      1.0  0.89338  0.36187  0.81099  1.0000
  C   C855      1.0  0.89569  0.28747  0.85411  1.0000
  C   C856      1.0  0.87595  0.36763  0.90707  1.0000
  C   C857      1.0  0.87231  0.36639  0.79150  1.0000
  C   C858      1.0  0.90443  0.26157  0.84927  1.0000
  H   H1499     1.0  0.87886  0.32674  0.87602  1.0000
  H   H1500     1.0  0.89741  0.32355  0.80681  1.0000
  H   H1501     1.0  0.87381  0.33228  0.82883  1.0000
  H   H1502     1.0  0.89272  0.37631  0.82652  1.0000
  H   H1503     1.0  0.88040  0.29137  0.84022  1.0000
  H   H1504     1.0  0.88923  0.28854  0.87554  1.0000
  H   H1505     1.0  0.87164  0.36787  0.86368  1.0000
  H   H1506     1.0  0.89002  0.36463  0.92292  1.0000
  H   H1507     1.0  0.87445  0.38385  0.78094  1.0000
  H   H1508     1.0  0.87142  0.35198  0.77587  1.0000
  H   H1509     1.0  0.85515  0.36719  0.80306  1.0000
  H   H1510     1.0  0.91910  0.25668  0.86381  1.0000
  H   H1511     1.0  0.88931  0.24914  0.85237  1.0000
  H   H1512     1.0  0.91114  0.25920  0.82803  1.0000
  S   S202      1.0  0.80839  0.32994  0.50415  1.0000
  C   C859      1.0  0.88636  0.36379  0.87845  1.0000
  H   H1513     1.0  0.76497  0.31643  0.93333  1.0000
  N   N47       1.0  0.70613  0.18663  0.84785  1.0000
  C   C860      1.0  0.69136  0.18409  0.82209  1.0000
  C   C861      1.0  0.72023  0.16349  0.85248  1.0000
  H   H1514     1.0  0.67862  0.21986  0.91705  1.0000
  C   C862      1.0  0.72252  0.20800  0.84725  1.0000
  C   C863      1.0  0.73251  0.21562  0.81904  1.0000
  H   H1515     1.0  0.71678  0.20089  0.90104  1.0000
  H   H1516     1.0  0.67943  0.43439  0.98449  1.0000
  C   C864      1.0  0.73928  0.15659  0.83064  1.0000
  C   C865      1.0  0.75026  0.13165  0.83620  1.0000
  C   C866      1.0  0.75203  0.23439  0.82234  1.0000
  H   H1517     1.0  0.91714  0.25152  0.64124  1.0000
  H   H1518     1.0  0.95291  0.35559  0.70872  1.0000
  H   H1519     1.0  0.68167  0.16675  0.82224  1.0000
  H   H1520     1.0  0.70294  0.18280  0.80372  1.0000
  H   H1521     1.0  0.73032  0.16413  0.87208  1.0000
  H   H1522     1.0  0.70759  0.14824  0.85439  1.0000
  C   C867      1.0  0.98164  0.29416  0.76888  1.0000
  C   C868      1.0  0.67213  0.20425  0.81716  1.0000
  H   H1523     1.0  0.71318  0.22435  0.85559  1.0000
  H   H1524     1.0  0.73817  0.20477  0.86109  1.0000
  H   H1525     1.0  0.71801  0.22370  0.80620  1.0000
  H   H1526     1.0  0.74030  0.20025  0.80757  1.0000
  H   H1527     1.0  0.68617  0.06191  0.68084  1.0000
  S   S203      1.0  0.80180  0.43814  0.98934  1.0000
  H   H1528     1.0  0.81799  0.48327  0.96780  1.0000
  H   H1529     1.0  0.67829  0.20677  0.77319  1.0000
  H   H1530     1.0  0.73148  0.15619  0.80981  1.0000
  H   H1531     1.0  0.75425  0.16944  0.83120  1.0000
  H   H1532     1.0  0.76373  0.12713  0.82015  1.0000
  H   H1533     1.0  0.75942  0.13122  0.85640  1.0000
  H   H1534     1.0  0.73617  0.11779  0.83575  1.0000
  H   H1535     1.0  0.76801  0.22645  0.83292  1.0000
  H   H1536     1.0  0.71560  0.46727  0.94387  1.0000
  C   C869      1.0  0.77532  0.29299  0.55486  1.0000
  H   H1537     1.0  0.65630  0.20129  0.83048  1.0000
  C   C870      1.0  0.72510  0.32018  0.55473  1.0000
  H   H1538     1.0  0.92993  0.30213  0.86544  1.0000
  H   H1539     1.0  0.78269  0.21595  0.89964  1.0000
  H   H1540     1.0  0.74209  0.18623  0.68146  1.0000
  H   H1541     1.0  0.79375  0.16761  0.66913  1.0000
  C   C871      1.0  0.80043  0.23307  0.60041  1.0000
  H   H1542     1.0  0.81278  0.21860  0.59282  1.0000
  H   H1543     1.0  0.76585  0.28183  0.71256  1.0000
  H   H1544     1.0  0.73159  0.40538  0.99163  1.0000
  H   H1545     1.0  0.81817  0.23610  0.63899  1.0000
  C   C872      1.0  0.71076  0.28625  0.58303  1.0000
  C   C873      1.0  0.77071  0.22350  0.68566  1.0000
  H   H1546     1.0  0.82002  0.22840  0.68263  1.0000
  C   C874      1.0  0.79962  0.23304  0.63161  1.0000
  H   H1547     1.0  0.83544  0.19256  0.65308  1.0000
  H   H1548     1.0  0.71869  0.31258  0.53515  1.0000
  H   H1549     1.0  0.85829  0.19983  0.70967  1.0000
  H   H1550     1.0  0.79126  0.24522  0.71419  1.0000
  H   H1551     1.0  0.79055  0.21720  0.96775  1.0000
  H   H1552     1.0  0.81260  0.20775  0.70832  1.0000
  C   C875      1.0  0.81368  0.20982  0.68574  1.0000
  H   H1553     1.0  0.68995  0.34610  0.52503  1.0000
  H   H1554     1.0  0.83099  0.17394  0.68277  1.0000
  C   C876      1.0  0.66315  0.20431  0.78764  1.0000
  H   H1555     1.0  0.86095  0.35520  0.91078  1.0000
  H   H1556     1.0  0.79987  0.19403  0.63280  1.0000
  H   H1557     1.0  0.86880  0.38634  0.90908  1.0000
  C   C877      1.0  0.77967  0.24812  0.69602  1.0000
  H   H1558     1.0  0.74665  0.26854  0.68715  1.0000
  C   C878      1.0  0.69094  0.04273  0.68441  1.0000
  C   C879      1.0  0.69494  0.27634  0.55948  1.0000
  H   H1559     1.0  0.75654  0.31977  0.65389  1.0000
  C   C880      1.0  0.73334  0.05924  0.68207  1.0000
  N   N48       1.0  0.78915  0.20633  0.67313  1.0000
  H   H1560     1.0  0.92789  0.36547  0.84624  1.0000
  H   H1561     1.0  0.90677  0.33243  0.89253  1.0000
  C   C881      1.0  0.93480  0.34889  0.71358  1.0000
  H   H1562     1.0  0.90094  0.37684  0.87590  1.0000
  C   C882      1.0  0.93167  0.34589  0.84764  1.0000
  C   C883      1.0  0.71032  0.31187  0.97246  1.0000
  H   H1563     1.0  0.89954  0.28608  0.68656  1.0000
  C   C884      1.0  0.75874  0.26460  0.70475  1.0000
  C   C885      1.0  0.78174  0.18096  0.67954  1.0000
  H   H1564     1.0  0.77113  0.20787  0.63393  1.0000
  H   H1565     1.0  0.69903  0.29713  0.59692  1.0000
  H   H1566     1.0  0.89653  0.29109  0.65048  1.0000
  C   C886      1.0  0.74368  0.31150  0.59909  1.0000
  H   H1567     1.0  0.76758  0.26367  0.91463  1.0000
  H   H1568     1.0  0.78109  0.42821  0.90528  1.0000
  H   H1569     1.0  0.75229  0.14628  0.70218  1.0000
  H   H1570     1.0  0.78495  0.29558  0.57444  1.0000
  H   H1571     1.0  0.84694  0.28212  0.99392  1.0000
  C   C887      1.0  0.76832  0.30692  0.64246  1.0000
  H   H1572     1.0  0.89590  0.36331  0.61674  1.0000
  H   H1573     1.0  0.75199  0.05525  0.67511  1.0000
  H   H1574     1.0  0.71276  0.34928  0.58224  1.0000
  C   C888      1.0  0.75022  0.14854  0.67973  1.0000
  H   H1575     1.0  0.75163  0.26609  0.57089  1.0000
  N   N49       1.0  0.73231  0.30033  0.57424  1.0000
  H   H1576     1.0  0.79094  0.25723  0.54706  1.0000
  N   N50       1.0  0.71564  0.43428  0.96759  1.0000
  H   H1577     1.0  0.74245  0.27850  0.53931  1.0000
  H   H1578     1.0  0.73035  0.32307  0.61014  1.0000
  H   H1579     1.0  0.89013  0.24899  0.66111  1.0000
  H   H1580     1.0  0.92110  0.36156  0.70498  1.0000
  C   C889      1.0  0.91867  0.33157  0.62477  1.0000
  C   C890      1.0  0.69817  0.35592  0.54238  1.0000
  H   H1581     1.0  0.74097  0.33088  0.54910  1.0000
  H   H1582     1.0  0.96470  0.32263  0.64302  1.0000
  C   C891      1.0  0.76113  0.30147  0.91898  1.0000
  S   S204      1.0  0.66456  0.25606  0.96343  1.0000
  C   C892      1.0  0.68290  0.20070  0.92167  1.0000
  H   H1583     1.0  0.73910  0.28429  0.63109  1.0000
  H   H1584     1.0  0.76243  0.13555  0.66912  1.0000
  H   H1585     1.0  0.72288  0.32114  0.95961  1.0000
  C   C893      1.0  0.93228  0.34954  0.74466  1.0000
  C   C894      1.0  0.75942  0.27133  0.95787  1.0000
  C   C895      1.0  0.93107  0.32313  0.70231  1.0000
  C   C896      1.0  0.66191  0.05969  0.60236  1.0000
  H   H1586     1.0  0.73502  0.99928  0.75455  1.0000
  H   H1587     1.0  0.68666  0.29114  0.54728  1.0000
  H   H1588     1.0  0.77465  0.31046  0.54410  1.0000
  C   C897      1.0  0.96744  0.26698  0.73423  1.0000
  H   H1589     1.0  0.69441  0.39159  0.98983  1.0000
  C   C898      1.0  0.70568  0.33844  0.56505  1.0000
  H   H1590     1.0  0.71810  0.03532  0.65239  1.0000
  C   C899      1.0  0.65983  0.39229  0.97070  1.0000
  H   H1591     1.0  0.91996  0.35381  0.66046  1.0000
  H   H1592     1.0  0.91225  0.31856  0.70725  1.0000
  H   H1593     1.0  0.75817  0.32393  0.59286  1.0000
  H   H1594     1.0  0.68924  0.32934  0.57192  1.0000
  H   H1595     1.0  0.78314  0.31693  0.63288  1.0000
  H   H1596     1.0  0.74140  0.30047  0.91573  1.0000
  H   H1597     1.0  0.74836  0.22957  0.92860  1.0000
  H   H1598     1.0  0.66155  0.07002  0.64447  1.0000
  H   H1599     1.0  0.66594  0.19056  0.92201  1.0000
  H   H1600     1.0  0.67417  0.15897  0.66422  1.0000
  H   H1601     1.0  0.69051  0.06178  0.63161  1.0000
  H   H1602     1.0  0.73422  0.46784  0.97337  1.0000
  C   C900      1.0  0.69631  0.47641  0.97994  1.0000
  H   H1603     1.0  0.93513  0.33997  0.61671  1.0000
  H   H1604     1.0  0.72496  0.02202  0.68507  1.0000
  H   H1605     1.0  0.91459  0.34253  0.75099  1.0000
  H   H1606     1.0  0.67747  0.18463  0.62291  1.0000
  H   H1607     1.0  0.66458  0.07848  0.59551  1.0000
  H   H1608     1.0  0.74020  0.26821  0.95289  1.0000
  C   C901      1.0  0.66427  0.15457  0.64586  1.0000
  Fe  Fe104     1.0  0.66185  0.12408  0.77899  1.0000
  C   C902      1.0  0.90878  0.25572  0.66132  1.0000
  H   H1609     1.0  0.91881  0.31249  0.61825  1.0000
  H   H1610     1.0  0.94685  0.33851  0.75430  1.0000
  H   H1611     1.0  0.74814  0.43191  0.99198  1.0000
  C   C903      1.0  0.75315  0.43275  0.93580  1.0000
  C   C904      1.0  0.90817  0.28282  0.66648  1.0000
  H   H1612     1.0  0.97791  0.36242  0.83758  1.0000
  H   H1613     1.0  0.94486  0.28224  0.68053  1.0000
  H   H1614     1.0  0.73511  0.23386  0.97683  1.0000
  C   C905      1.0  0.76214  0.21718  0.93755  1.0000
  C   C906      1.0  0.70031  0.19006  0.90051  1.0000
  C   C907      1.0  0.94939  0.33870  0.82435  1.0000
  C   C908      1.0  0.81245  0.26848  0.98094  1.0000
  H   H1615     1.0  0.66248  0.02677  0.75783  1.0000
  H   H1616     1.0  0.76587  0.42711  0.95201  1.0000
  H   H1617     1.0  0.93373  0.36831  0.75212  1.0000
  H   H1618     1.0  0.91899  0.24625  0.67778  1.0000
  C   C909      1.0  0.78918  0.25840  0.99339  1.0000
  H   H1619     1.0  0.69117  0.19975  0.94233  1.0000
  C   C910      1.0  0.79241  0.46878  0.99604  1.0000
  H   H1620     1.0  0.68160  0.01947  0.62950  1.0000
  H   H1621     1.0  0.95814  0.37496  0.81148  1.0000
  C   C911      1.0  0.72750  0.42383  0.94230  1.0000
  H   H1622     1.0  0.89839  0.34241  0.58864  1.0000
  C   C912      1.0  0.91762  0.33434  0.65632  1.0000
  H   H1623     1.0  0.72922  0.40393  0.94379  1.0000
  H   H1624     1.0  0.71609  0.42758  0.92395  1.0000
  S   S205      1.0  0.82241  0.38661  0.50309  1.0000
  H   H1625     1.0  0.79098  0.27917  0.93173  1.0000
  H   H1626     1.0  0.94171  0.34371  0.86727  1.0000
  H   H1627     1.0  0.68470  0.36916  0.55036  1.0000
  S   S206      1.0  0.65526  0.09286  0.75030  1.0000
  H   H1628     1.0  0.68777  0.99795  0.69787  1.0000
  H   H1629     1.0  0.65421  0.18713  0.78295  1.0000
  H   H1630     1.0  0.75373  0.45259  0.93397  1.0000
  H   H1631     1.0  0.76127  0.19230  0.90328  1.0000
  C   C913      1.0  0.67449  0.26123  0.57047  1.0000
  H   H1632     1.0  0.89902  0.33055  0.66335  1.0000
  C   C914      1.0  0.89693  0.34394  0.61121  1.0000
  H   H1633     1.0  0.80838  0.28568  0.97049  1.0000
  C   C915      1.0  0.77456  0.20331  0.91436  1.0000
  H   H1634     1.0  0.88005  0.33524  0.61758  1.0000
  H   H1635     1.0  0.95969  0.32215  0.83023  1.0000
  C   C916      1.0  0.77126  0.27769  0.93014  1.0000
  C   C917      1.0  0.66608  0.16912  0.62239  1.0000
  C   C918      1.0  0.72943  0.42531  0.99227  1.0000
  H   H1636     1.0  0.98209  0.29628  0.67994  1.0000
  C   C919      1.0  0.71587  0.99630  0.75409  1.0000
  N   N51       1.0  0.77005  0.25026  0.97362  1.0000
  C   C920      1.0  0.96750  0.35834  0.81878  1.0000
  C   C921      1.0  0.66668  0.98812  0.75274  1.0000
  H   H1637     1.0  0.75096  0.42806  0.89156  1.0000
  H   H1638     1.0  0.69818  0.99710  0.66360  1.0000
  H   H1639     1.0  0.69481  0.38840  0.95318  1.0000
  H   H1640     1.0  0.76294  0.40211  0.90979  1.0000
  H   H1641     1.0  0.97811  0.30606  0.78594  1.0000
  H   H1642     1.0  0.96205  0.34727  0.66556  1.0000
  C   C922      1.0  0.68188  0.00066  0.67625  1.0000
  H   H1643     1.0  0.75917  0.28781  0.97087  1.0000
  S   S207      1.0  0.65649  0.18299  0.56943  1.0000
  H   H1644     1.0  0.66645  0.11396  0.90081  1.0000
  H   H1645     1.0  0.67917  0.47456  0.96844  1.0000
  H   H1646     1.0  0.78884  0.19104  0.92259  1.0000
  C   C923      1.0  0.65571  0.12725  0.88987  1.0000
  S   S208      1.0  0.82658  0.37143  0.99285  1.0000
  S   S209      1.0  0.65825  0.19332  0.99634  1.0000
  H   H1647     1.0  0.98027  0.35215  0.80269  1.0000
  H   H1648     1.0  0.66345  0.25465  0.55311  1.0000
  C   C924      1.0  0.79921  0.46742  0.50239  1.0000
  H   H1649     1.0  0.66266  0.27213  0.58417  1.0000
  C   C925      1.0  0.75034  0.23908  0.99030  1.0000
  C   C926      1.0  0.70654  0.31978  0.99929  1.0000
  H   H1650     1.0  0.65800  0.37253  0.97282  1.0000
  H   H1651     1.0  0.97977  0.32074  0.70398  1.0000
  C   C927      1.0  0.98162  0.31613  0.68200  1.0000
  Fe  Fe105     1.0  0.72354  0.84283  0.25156  1.0000
  S   S210      1.0  0.68725  0.82829  0.26214  1.0000
  S   S211      1.0  0.74945  0.81093  0.25999  1.0000
  Fe  Fe106     1.0  0.70106  0.89419  0.24159  1.0000
  H   H1652     1.0  0.76265  0.59833  0.36149  1.0000
  S   S212      1.0  0.69956  0.93435  0.22808  1.0000
  Fe  Fe107     1.0  0.68115  0.86168  0.28684  1.0000
  H   H1653     1.0  0.76447  0.79625  0.18477  1.0000
  Fe  Fe108     1.0  0.67349  0.84868  0.22545  1.0000
  H   H1654     1.0  0.75461  0.56733  0.07846  1.0000
  S   S213      1.0  0.71806  0.87576  0.27830  1.0000
  S   S214      1.0  0.70979  0.86213  0.21361  1.0000
  H   H1655     1.0  0.77519  0.71324  0.47355  1.0000
  H   H1656     1.0  0.78256  0.70839  0.23383  1.0000
  H   H1657     1.0  0.87112  0.74011  0.12389  1.0000
  H   H1658     1.0  0.79391  0.69823  0.06058  1.0000
  H   H1659     1.0  0.79081  0.67866  0.22117  1.0000
  H   H1660     1.0  0.75963  0.68711  0.22566  1.0000
  H   H1661     1.0  0.74624  0.70966  0.45763  1.0000
  Fe  Fe109     1.0  0.81341  0.62480  0.03172  1.0000
  S   S215      1.0  0.84402  0.63288  0.06143  1.0000
  Fe  Fe110     1.0  0.81733  0.62445  0.46782  1.0000
  S   S216      1.0  0.84706  0.63136  0.43653  1.0000
  S   S217      1.0  0.77774  0.61052  0.04397  1.0000
  S   S218      1.0  0.78675  0.60046  0.45720  1.0000
  Fe  Fe111     1.0  0.90697  0.69214  0.24606  1.0000
  S   S219      1.0  0.88185  0.66145  0.25544  1.0000
  S   S220      1.0  0.94754  0.68143  0.24890  1.0000
  Fe  Fe112     1.0  0.86377  0.72686  0.23591  1.0000
  S   S221      1.0  0.83723  0.69859  0.24493  1.0000
  S   S222      1.0  0.84985  0.76370  0.22151  1.0000
  Fe  Fe113     1.0  0.86072  0.68831  0.28074  1.0000
  S   S223      1.0  0.83888  0.68354  0.32019  1.0000
  Fe  Fe114     1.0  0.86028  0.67422  0.21888  1.0000
  S   S224      1.0  0.83796  0.65063  0.19038  1.0000
  S   S225      1.0  0.88645  0.71843  0.27323  1.0000
  S   S226      1.0  0.88628  0.70303  0.20794  1.0000
  C   C928      1.0  0.65823  0.74759  0.10389  1.0000
  C   C929      1.0  0.97704  0.69393  0.24833  1.0000
  H   H1662     1.0  0.74028  0.97208  0.19075  1.0000
  C   C930      1.0  0.80421  0.56421  0.35346  1.0000
  H   H1663     1.0  0.96583  0.73062  0.24130  1.0000
  C   C931      1.0  0.84478  0.64707  0.40490  1.0000
  C   C932      1.0  0.82376  0.65944  0.39687  1.0000
  C   C933      1.0  0.82248  0.67076  0.37109  1.0000
  C   C934      1.0  0.84212  0.66991  0.35297  1.0000
  C   C935      1.0  0.86322  0.65780  0.36116  1.0000
  C   C936      1.0  0.86454  0.64649  0.38694  1.0000
  H   H1664     1.0  0.80847  0.66021  0.41049  1.0000
  H   H1665     1.0  0.80605  0.68010  0.36505  1.0000
  H   H1666     1.0  0.87839  0.65698  0.34758  1.0000
  H   H1667     1.0  0.88088  0.63700  0.39293  1.0000
  C   C937      1.0  0.83944  0.64742  0.15423  1.0000
  C   C938      1.0  0.82016  0.63677  0.14037  1.0000
  C   C939      1.0  0.82088  0.63301  0.11185  1.0000
  C   C940      1.0  0.84114  0.63948  0.09688  1.0000
  C   C941      1.0  0.86030  0.65038  0.11070  1.0000
  C   C942      1.0  0.85943  0.65445  0.13917  1.0000
  H   H1668     1.0  0.80463  0.63123  0.15182  1.0000
  H   H1669     1.0  0.80601  0.62459  0.10154  1.0000
  H   H1670     1.0  0.87610  0.65538  0.09936  1.0000
  H   H1671     1.0  0.87447  0.66252  0.14954  1.0000
  H   H1672     1.0  0.88609  0.71504  0.14050  1.0000
  C   C943      1.0  0.84700  0.61194  0.30199  1.0000
  H   H1673     1.0  0.72474  0.77535  0.07401  1.0000
  H   H1674     1.0  0.78549  0.75358  0.13073  1.0000
  N   N52       1.0  0.81441  0.58671  0.36602  1.0000
  C   C944      1.0  0.79635  0.59881  0.38487  1.0000
  Fe  Fe115     1.0  0.76125  0.64002  0.01802  1.0000
  H   H1675     1.0  0.90336  0.76015  0.33055  1.0000
  C   C945      1.0  0.84469  0.59664  0.32772  1.0000
  H   H1676     1.0  0.83116  0.60971  0.28840  1.0000
  H   H1677     1.0  0.80412  0.57046  0.30907  1.0000
  C   C946      1.0  0.66246  0.94113  0.29801  1.0000
  H   H1678     1.0  0.78388  0.52266  0.09692  1.0000
  H   H1679     1.0  0.66138  0.78366  0.28977  1.0000
  H   H1680     1.0  0.75172  0.61133  0.40810  1.0000
  C   C947      1.0  0.77700  0.79818  0.24753  1.0000
  C   C948      1.0  0.79309  0.81094  0.23141  1.0000
  C   C949      1.0  0.81528  0.80017  0.22351  1.0000
  C   C950      1.0  0.82169  0.77663  0.23173  1.0000
  C   C951      1.0  0.80540  0.76380  0.24741  1.0000
  C   C952      1.0  0.78323  0.77447  0.25508  1.0000
  H   H1681     1.0  0.78864  0.82920  0.22541  1.0000
  H   H1682     1.0  0.82770  0.81025  0.21128  1.0000
  H   H1683     1.0  0.80992  0.74568  0.25381  1.0000
  H   H1684     1.0  0.77081  0.76421  0.26697  1.0000
  H   H1685     1.0  0.86138  0.59886  0.33997  1.0000
  S   S227      1.0  0.76813  0.54864  0.01042  1.0000
  H   H1686     1.0  0.98405  0.69086  0.18296  1.0000
  H   H1687     1.0  0.66164  0.75142  0.28633  1.0000
  C   C953      1.0  0.70542  0.70761  0.02550  1.0000
  H   H1688     1.0  0.79171  0.55559  0.36806  1.0000
  C   C954      1.0  0.70300  0.96432  0.24114  1.0000
  H   H1689     1.0  0.71286  0.68729  0.09291  1.0000
  H   H1690     1.0  0.66509  0.94099  0.36865  1.0000
  H   H1691     1.0  0.84461  0.52128  0.00625  1.0000
  H   H1692     1.0  0.66367  0.86629  0.38954  1.0000
  C   C955      1.0  0.73557  0.97094  0.16869  1.0000
  C   C956      1.0  0.68528  0.77289  0.07826  1.0000
  C   C957      1.0  0.70197  0.73652  0.09921  1.0000
  Fe  Fe116     1.0  0.78027  0.58810  0.00520  1.0000
  H   H1693     1.0  0.77803  0.69789  0.13465  1.0000
  C   C958      1.0  0.70871  0.78744  0.07548  1.0000
  H   H1694     1.0  0.67066  0.97772  0.22156  1.0000
  H   H1695     1.0  0.69278  0.81604  0.05044  1.0000
  H   H1696     1.0  0.71088  0.79104  0.44073  1.0000
  H   H1697     1.0  0.68248  0.79038  0.12528  1.0000
  H   H1698     1.0  0.80930  0.50275  0.06753  1.0000
  H   H1699     1.0  0.70877  0.77251  0.13138  1.0000
  S   S228      1.0  0.79710  0.65514  0.00781  1.0000
  H   H1700     1.0  0.68357  0.76244  0.05902  1.0000
  H   H1701     1.0  0.69998  0.72810  0.07872  1.0000
  H   H1702     1.0  0.72046  0.74369  0.09937  1.0000
  H   H1703     1.0  0.67914  0.74415  0.15921  1.0000
  S   S229      1.0  0.66835  0.86652  0.33111  1.0000
  H   H1704     1.0  0.65770  0.76827  0.15492  1.0000
  H   H1705     1.0  0.83932  0.50220  0.05473  1.0000
  H   H1706     1.0  0.72496  0.81294  0.04793  1.0000
  H   H1707     1.0  0.71112  0.79976  0.09310  1.0000
  C   C959      1.0  0.68813  0.77680  0.17985  1.0000
  H   H1708     1.0  0.94546  0.71252  0.30327  1.0000
  C   C960      1.0  0.68156  0.69726  0.47600  1.0000
  C   C961      1.0  0.82844  0.50246  0.07371  1.0000
  H   H1709     1.0  0.92980  0.67407  0.30028  1.0000
  H   H1710     1.0  0.81870  0.55041  0.34996  1.0000
  C   C962      1.0  0.70884  0.66206  0.47661  1.0000
  C   C963      1.0  0.65720  0.84927  0.38215  1.0000
  N   N53       1.0  0.94856  0.68669  0.33611  1.0000
  C   C964      1.0  0.95530  0.69965  0.41427  1.0000
  H   H1711     1.0  0.82628  0.74645  0.13072  1.0000
  H   H1712     1.0  0.76371  0.54021  0.33324  1.0000
  C   C965      1.0  0.69625  0.94969  0.32902  1.0000
  H   H1713     1.0  0.95568  0.68093  0.42215  1.0000
  H   H1714     1.0  0.77768  0.58192  0.32553  1.0000
  H   H1715     1.0  0.82733  0.52145  0.11261  1.0000
  C   C966      1.0  0.70838  0.92435  0.32859  1.0000
  H   H1716     1.0  0.75661  0.55612  0.11319  1.0000
  H   H1717     1.0  0.84501  0.70466  0.12679  1.0000
  H   H1718     1.0  0.80773  0.60960  0.33072  1.0000
  C   C967      1.0  0.73548  0.92580  0.32389  1.0000
  H   H1719     1.0  0.75275  0.50366  0.03286  1.0000
  H   H1720     1.0  0.84877  0.70383  0.16329  1.0000
  C   C968      1.0  0.65761  0.84432  0.35391  1.0000
  C   C969      1.0  0.69890  0.68225  0.46308  1.0000
  H   H1721     1.0  0.70183  0.95860  0.34840  1.0000
  H   H1722     1.0  0.70464  0.96004  0.31222  1.0000
  H   H1723     1.0  0.80120  0.77195  0.17427  1.0000
  H   H1724     1.0  0.74324  0.63372  0.38323  1.0000
  S   S230      1.0  0.73719  0.67023  0.03559  1.0000
  H   H1725     1.0  0.75209  0.73662  0.47684  1.0000
  C   C970      1.0  0.70803  0.80284  0.04965  1.0000
  H   H1726     1.0  0.67489  0.85280  0.15545  1.0000
  H   H1727     1.0  0.70058  0.91315  0.31224  1.0000
  H   H1728     1.0  0.70574  0.91516  0.34847  1.0000
  H   H1729     1.0  0.66997  0.78600  0.07820  1.0000
  H   H1730     1.0  0.69214  0.80271  0.32027  1.0000
  H   H1731     1.0  0.80772  0.72526  0.19677  1.0000
  H   H1732     1.0  0.89575  0.63742  0.30987  1.0000
  H   H1733     1.0  0.71887  0.96046  0.16649  1.0000
  H   H1734     1.0  0.67226  0.85148  0.10474  1.0000
  C   C971      1.0  0.94502  0.71222  0.32610  1.0000
  C   C972      1.0  0.94565  0.68470  0.36663  1.0000
  H   H1735     1.0  0.73917  0.93354  0.30347  1.0000
  H   H1736     1.0  0.74396  0.93701  0.33991  1.0000
  H   H1737     1.0  0.74380  0.90751  0.32458  1.0000
  H   H1738     1.0  0.66589  0.91599  0.34602  1.0000
  H   H1739     1.0  0.67723  0.77354  0.19842  1.0000
  H   H1740     1.0  0.77676  0.68290  0.08607  1.0000
  H   H1741     1.0  0.76933  0.63807  0.40435  1.0000
  C   C973      1.0  0.77791  0.54398  0.31799  1.0000
  H   H1742     1.0  0.77949  0.75553  0.19346  1.0000
  C   C974      1.0  0.67318  0.76731  0.28898  1.0000
  H   H1743     1.0  0.95994  0.72381  0.33258  1.0000
  C   C975      1.0  0.76701  0.49932  0.01859  1.0000
  C   C976      1.0  0.79101  0.56694  0.32558  1.0000
  C   C977      1.0  0.83105  0.56366  0.40843  1.0000
  S   S231      1.0  0.66395  0.88110  0.25133  1.0000
  H   H1744     1.0  0.74321  0.53822  0.08660  1.0000
  C   C978      1.0  0.75769  0.55107  0.09125  1.0000
  H   H1745     1.0  0.86482  0.57116  0.42915  1.0000
  C   C979      1.0  0.70084  0.79109  0.42108  1.0000
  H   H1746     1.0  0.78340  0.72651  0.09707  1.0000
  C   C980      1.0  0.93042  0.64438  0.32911  1.0000
  H   H1747     1.0  0.84369  0.57750  0.32150  1.0000
  C   C981      1.0  0.70981  0.68273  0.02278  1.0000
  H   H1748     1.0  0.81379  0.69690  0.18192  1.0000
  H   H1749     1.0  0.86459  0.53494  0.04826  1.0000
  C   C982      1.0  0.82251  0.60456  0.34496  1.0000
  H   H1750     1.0  0.80854  0.68878  0.13473  1.0000
  H   H1751     1.0  0.68529  0.76848  0.27102  1.0000
  C   C983      1.0  0.67725  0.76366  0.15543  1.0000
  H   H1752     1.0  0.73767  0.70225  0.10917  1.0000
  C   C984      1.0  0.92933  0.67178  0.32282  1.0000
  H   H1753     1.0  0.71969  0.68166  0.12836  1.0000
  H   H1754     1.0  0.77970  0.62547  0.35669  1.0000
  C   C985      1.0  0.92175  0.72563  0.33569  1.0000
  N   N54       1.0  0.68364  0.75664  0.10287  1.0000
  S   S232      1.0  0.65979  0.77550  0.48934  1.0000
  H   H1755     1.0  0.92164  0.75118  0.30181  1.0000
  C   C986      1.0  0.66874  0.67858  0.00644  1.0000
  C   C987      1.0  0.92062  0.75127  0.32448  1.0000
  C   C988      1.0  0.91455  0.63037  0.30941  1.0000
  Fe  Fe117     1.0  0.79405  0.58155  0.49708  1.0000
  H   H1756     1.0  0.83105  0.74592  0.16643  1.0000
  H   H1757     1.0  0.86179  0.56576  0.03768  1.0000
  H   H1758     1.0  0.96805  0.71039  0.42655  1.0000
  C   C989      1.0  0.68284  0.71794  0.01864  1.0000
  H   H1759     1.0  0.91107  0.67812  0.32896  1.0000
  H   H1760     1.0  0.92668  0.68888  0.37258  1.0000
  C   C990      1.0  0.66086  0.97614  0.33100  1.0000
  H   H1761     1.0  0.91457  0.61111  0.31530  1.0000
  C   C991      1.0  0.66206  0.84126  0.14558  1.0000
  H   H1762     1.0  0.90537  0.71646  0.32871  1.0000
  H   H1763     1.0  0.92115  0.72701  0.35829  1.0000
  H   H1764     1.0  0.69838  0.74770  0.31395  1.0000
  C   C992      1.0  0.77749  0.69378  0.21953  1.0000
  S   S233      1.0  0.73112  0.64395  0.46012  1.0000
  H   H1765     1.0  0.76466  0.73649  0.14923  1.0000
  C   C993      1.0  0.68899  0.77143  0.12814  1.0000
  H   H1766     1.0  0.77071  0.68791  0.17709  1.0000
  C   C994      1.0  0.85123  0.53994  0.00744  1.0000
  H   H1767     1.0  0.72990  0.77272  0.40083  1.0000
  H   H1768     1.0  0.78193  0.53455  0.06287  1.0000
  H   H1769     1.0  0.84847  0.63123  0.30746  1.0000
  H   H1770     1.0  0.69447  0.64911  0.01096  1.0000
  H   H1771     1.0  0.70874  0.72326  0.14062  1.0000
  C   C995      1.0  0.66052  0.84046  0.11680  1.0000
  H   H1772     1.0  0.79074  0.52843  0.31698  1.0000
  H   H1773     1.0  0.70489  0.68649  0.44268  1.0000
  H   H1774     1.0  0.92390  0.64110  0.35019  1.0000
  N   N55       1.0  0.82757  0.54905  0.08153  1.0000
  C   C996      1.0  0.82766  0.55062  0.05072  1.0000
  C   C997      1.0  0.80290  0.55639  0.09179  1.0000
  C   C998      1.0  0.84509  0.56731  0.09219  1.0000
  C   C999      1.0  0.83500  0.52438  0.09191  1.0000
  C   C1000     1.0  0.71915  0.69568  0.11224  1.0000
  C   C1001     1.0  0.85286  0.54806  0.03722  1.0000
  C   C1002     1.0  0.84582  0.57087  0.12368  1.0000
  C   C1003     1.0  0.78212  0.53940  0.08469  1.0000
  H   H1775     1.0  0.82063  0.57389  0.42398  1.0000
  H   H1776     1.0  0.86556  0.54420  0.40818  1.0000
  H   H1777     1.0  0.74638  0.77538  0.16611  1.0000
  C   C1004     1.0  0.86851  0.58378  0.13268  1.0000
  H   H1778     1.0  0.81983  0.56824  0.04396  1.0000
  H   H1779     1.0  0.81568  0.53721  0.04136  1.0000
  H   H1780     1.0  0.80265  0.55757  0.11444  1.0000
  H   H1781     1.0  0.79809  0.57480  0.08432  1.0000
  H   H1782     1.0  0.84114  0.58526  0.08297  1.0000
  H   H1783     1.0  0.86375  0.56246  0.08576  1.0000
  H   H1784     1.0  0.85486  0.52307  0.09486  1.0000
  H   H1785     1.0  0.67969  0.73706  0.02071  1.0000
  H   H1786     1.0  0.66184  0.71749  0.07449  1.0000
  H   H1787     1.0  0.69025  0.80816  0.41973  1.0000
  N   N56       1.0  0.66915  0.95047  0.32609  1.0000
  H   H1788     1.0  0.85017  0.54443  0.44058  1.0000
  H   H1789     1.0  0.84533  0.55346  0.13464  1.0000
  H   H1790     1.0  0.83018  0.58217  0.13033  1.0000
  H   H1791     1.0  0.87479  0.73994  0.16070  1.0000
  H   H1792     1.0  0.76871  0.79277  0.14849  1.0000
  Fe  Fe118     1.0  0.76389  0.62698  0.48132  1.0000
  H   H1793     1.0  0.84525  0.59603  0.39082  1.0000
  S   S234      1.0  0.79429  0.65187  0.48990  1.0000
  C   C1005     1.0  0.79410  0.69179  0.08206  1.0000
  H   H1794     1.0  0.80904  0.67839  0.08420  1.0000
  H   H1795     1.0  0.84967  0.56968  0.37073  1.0000
  H   H1796     1.0  0.68829  0.79650  0.17625  1.0000
  H   H1797     1.0  0.81537  0.72081  0.09671  1.0000
  H   H1798     1.0  0.88472  0.57223  0.12910  1.0000
  H   H1799     1.0  0.87039  0.60084  0.12125  1.0000
  H   H1800     1.0  0.86742  0.58814  0.15482  1.0000
  H   H1801     1.0  0.82086  0.54750  0.40255  1.0000
  C   C1006     1.0  0.77428  0.61161  0.37157  1.0000
  H   H1802     1.0  0.78881  0.58553  0.39930  1.0000
  H   H1803     1.0  0.86340  0.60634  0.29053  1.0000
  H   H1804     1.0  0.75036  0.96112  0.15794  1.0000
  C   C1007     1.0  0.85442  0.55538  0.42231  1.0000
  H   H1805     1.0  0.72998  0.80499  0.39785  1.0000
  H   H1806     1.0  0.68831  0.77578  0.42115  1.0000
  C   C1008     1.0  0.75880  0.62441  0.39317  1.0000
  C   C1009     1.0  0.83608  0.57968  0.38323  1.0000
  H   H1807     1.0  0.71950  0.71890  0.03324  1.0000
  H   H1808     1.0  0.80550  0.61239  0.39781  1.0000
  N   N57       1.0  0.72043  0.78587  0.34432  1.0000
  C   C1010     1.0  0.73707  0.80691  0.34294  1.0000
  C   C1011     1.0  0.73544  0.76297  0.34524  1.0000
  C   C1012     1.0  0.70431  0.78663  0.31946  1.0000
  C   C1013     1.0  0.70490  0.78704  0.36957  1.0000
  H   H1809     1.0  0.67426  0.71290  0.46554  1.0000
  C   C1014     1.0  0.72490  0.83216  0.34544  1.0000
  C   C1015     1.0  0.68781  0.76477  0.31535  1.0000
  C   C1016     1.0  0.75040  0.75714  0.31926  1.0000
  C   C1017     1.0  0.76445  0.73337  0.32237  1.0000
  C   C1018     1.0  0.87126  0.72862  0.14242  1.0000
  C   C1019     1.0  0.74352  0.85191  0.34464  1.0000
  H   H1810     1.0  0.74677  0.80689  0.32306  1.0000
  H   H1811     1.0  0.75145  0.80531  0.35873  1.0000
  H   H1812     1.0  0.74862  0.76369  0.36234  1.0000
  H   H1813     1.0  0.72404  0.74728  0.34985  1.0000
  H   H1814     1.0  0.71506  0.78902  0.30052  1.0000
  H   H1815     1.0  0.68405  0.70862  0.12347  1.0000
  H   H1816     1.0  0.69168  0.80224  0.36823  1.0000
  H   H1817     1.0  0.69376  0.77073  0.37106  1.0000
  H   H1818     1.0  0.76212  0.71734  0.18950  1.0000
  C   C1020     1.0  0.70211  0.71629  0.12078  1.0000
  H   H1819     1.0  0.71233  0.83543  0.32817  1.0000
  H   H1820     1.0  0.71482  0.83427  0.36485  1.0000
  H   H1821     1.0  0.73643  0.95754  0.26211  1.0000
  C   C1021     1.0  0.75559  0.71692  0.47588  1.0000
  H   H1822     1.0  0.73875  0.75555  0.30095  1.0000
  H   H1823     1.0  0.76367  0.77135  0.31549  1.0000
  H   H1824     1.0  0.75199  0.71827  0.32541  1.0000
  H   H1825     1.0  0.77515  0.72973  0.30361  1.0000
  H   H1826     1.0  0.77709  0.73421  0.33996  1.0000
  H   H1827     1.0  0.82717  0.62170  0.35514  1.0000
  C   C1022     1.0  0.71846  0.78898  0.39722  1.0000
  H   H1828     1.0  0.93565  0.76195  0.33278  1.0000
  H   H1829     1.0  0.75341  0.85137  0.32492  1.0000
  H   H1830     1.0  0.73421  0.86967  0.34657  1.0000
  H   H1831     1.0  0.75651  0.84984  0.36180  1.0000
  N   N58       1.0  0.80168  0.72385  0.15294  1.0000
  C   C1023     1.0  0.82624  0.73429  0.14875  1.0000
  C   C1024     1.0  0.78309  0.74386  0.15036  1.0000
  C   C1025     1.0  0.80108  0.71254  0.18093  1.0000
  C   C1026     1.0  0.79645  0.70480  0.13185  1.0000
  C   C1027     1.0  0.79775  0.71293  0.10156  1.0000
  C   C1028     1.0  0.84734  0.71587  0.14534  1.0000
  C   C1029     1.0  0.77632  0.70309  0.19021  1.0000
  C   C1030     1.0  0.78344  0.76331  0.17316  1.0000
  C   C1031     1.0  0.76456  0.78308  0.16767  1.0000
  C   C1032     1.0  0.72299  0.97101  0.25666  1.0000
  H   H1832     1.0  0.67485  0.76337  0.33244  1.0000
  H   H1833     1.0  0.92154  0.63172  0.28822  1.0000
  H   H1834     1.0  0.70677  0.77019  0.18377  1.0000
  H   H1835     1.0  0.70610  0.79141  0.03115  1.0000
  H   H1836     1.0  0.76922  0.54618  0.29765  1.0000
  C   C1033     1.0  0.77829  0.51813  0.00458  1.0000
  C   C1034     1.0  0.77094  0.50631  0.48311  1.0000
  C   C1035     1.0  0.66413  0.70335  0.00991  1.0000
  C   C1036     1.0  0.69151  0.66832  0.01265  1.0000
  H   H1837     1.0  0.94887  0.63666  0.32732  1.0000
  H   H1838     1.0  0.67713  0.94420  0.28310  1.0000
  C   C1037     1.0  0.98101  0.71845  0.24445  1.0000
  H   H1839     1.0  0.93694  0.70756  0.41694  1.0000
  H   H1840     1.0  0.94886  0.66581  0.37334  1.0000
  C   C1038     1.0  0.65898  0.93476  0.34816  1.0000
  H   H1841     1.0  0.75984  0.52108  0.47565  1.0000
  H   H1842     1.0  0.96241  0.71915  0.37760  1.0000
  H   H1843     1.0  0.98126  0.69269  0.38290  1.0000
  H   H1844     1.0  0.66400  0.98125  0.35275  1.0000
  H   H1845     1.0  0.66085  0.92119  0.29847  1.0000
  C   C1039     1.0  0.96262  0.70011  0.38419  1.0000
  H   H1846     1.0  0.78315  0.71934  0.01011  1.0000
  H   H1847     1.0  0.74900  0.68505  0.49871  1.0000
  H   H1848     1.0  0.65543  0.73602  0.12195  1.0000
  C   C1040     1.0  0.79233  0.51109  0.49709  1.0000
  H   H1849     1.0  0.97158  0.66859  0.30624  1.0000
  C   C1041     1.0  0.68622  0.98250  0.23356  1.0000
  C   C1042     1.0  0.97283  0.67653  0.32717  1.0000
  H   H1850     1.0  0.97854  0.66138  0.34070  1.0000
  Fe  Fe119     1.0  0.71864  0.85607  0.74921  1.0000
  S   S235      1.0  0.69025  0.82830  0.74639  1.0000
  S   S236      1.0  0.75871  0.84620  0.75291  1.0000
  Fe  Fe120     1.0  0.68234  0.89840  0.74640  1.0000
  H   H1851     1.0  0.76016  0.66978  0.54667  1.0000
  S   S237      1.0  0.67068  0.93874  0.74587  1.0000
  Fe  Fe121     1.0  0.66963  0.85118  0.77668  1.0000
  C   C1043     1.0  0.76526  0.71122  0.57728  1.0000
  Fe  Fe122     1.0  0.67372  0.85142  0.71322  1.0000
  C   C1044     1.0  0.96978  0.67268  0.65769  1.0000
  S   S238      1.0  0.69923  0.87791  0.78181  1.0000
  S   S239      1.0  0.70368  0.87815  0.71392  1.0000
  S   S240      1.0  0.65596  0.83010  0.67846  1.0000
  C   C1045     1.0  0.93862  0.62622  0.72247  1.0000
  H   H1852     1.0  0.75847  0.74823  0.59073  1.0000
  H   H1853     1.0  0.93927  0.63978  0.63971  1.0000
  H   H1854     1.0  0.71171  0.64176  0.56311  1.0000
  H   H1855     1.0  0.80969  0.51030  0.59558  1.0000
  H   H1856     1.0  0.72010  0.95758  0.74972  1.0000
  Fe  Fe123     1.0  0.80040  0.62984  0.52812  1.0000
  S   S241      1.0  0.80132  0.64977  0.56945  1.0000
  Fe  Fe124     1.0  0.79751  0.63097  0.97089  1.0000
  S   S242      1.0  0.80465  0.65381  0.93260  1.0000
  S   S243      1.0  0.76846  0.60616  0.52062  1.0000
  S   S244      1.0  0.76052  0.61688  0.98013  1.0000
  Fe  Fe125     1.0  0.89534  0.70812  0.75461  1.0000
  S   S245      1.0  0.89011  0.66848  0.75051  1.0000
  S   S246      1.0  0.93329  0.72462  0.75722  1.0000
  Fe  Fe126     1.0  0.84012  0.71862  0.75109  1.0000
  S   S247      1.0  0.83256  0.67902  0.74640  1.0000
  S   S248      1.0  0.80397  0.73962  0.75022  1.0000
  Fe  Fe127     1.0  0.85941  0.67350  0.78045  1.0000
  S   S249      1.0  0.85386  0.64536  0.81411  1.0000
  Fe  Fe128     1.0  0.86347  0.67774  0.71694  1.0000
  S   S250      1.0  0.86764  0.65682  0.67649  1.0000
  S   S251      1.0  0.86590  0.71295  0.78656  1.0000
  S   S252      1.0  0.86983  0.71748  0.71961  1.0000
  H   H1857     1.0  0.69429  0.77553  0.71938  1.0000
  C   C1046     1.0  0.96342  0.71247  0.75494  1.0000
  H   H1858     1.0  0.78387  0.73763  0.97971  1.0000
  H   H1859     1.0  0.95426  0.67552  0.76035  1.0000
  H   H1860     1.0  0.91336  0.69785  0.65418  1.0000
  C   C1047     1.0  0.81911  0.65087  0.90009  1.0000
  C   C1048     1.0  0.82207  0.67163  0.88406  1.0000
  C   C1049     1.0  0.83245  0.67030  0.85776  1.0000
  C   C1050     1.0  0.84035  0.64814  0.84713  1.0000
  C   C1051     1.0  0.83768  0.62741  0.86328  1.0000
  C   C1052     1.0  0.82710  0.62872  0.88953  1.0000
  H   H1861     1.0  0.81647  0.68895  0.89210  1.0000
  H   H1862     1.0  0.83454  0.68642  0.84578  1.0000
  H   H1863     1.0  0.84377  0.61018  0.85536  1.0000
  H   H1864     1.0  0.82504  0.61258  0.90148  1.0000
  C   C1053     1.0  0.84880  0.65524  0.64701  1.0000
  C   C1054     1.0  0.85639  0.64090  0.62475  1.0000
  C   C1055     1.0  0.84241  0.63932  0.60070  1.0000
  C   C1056     1.0  0.82030  0.65166  0.59880  1.0000
  C   C1057     1.0  0.81267  0.66598  0.62107  1.0000
  C   C1058     1.0  0.82682  0.66783  0.64499  1.0000
  H   H1865     1.0  0.87329  0.63100  0.62611  1.0000
  H   H1866     1.0  0.84886  0.62878  0.58358  1.0000
  H   H1867     1.0  0.79562  0.67562  0.61994  1.0000
  H   H1868     1.0  0.82068  0.67888  0.66193  1.0000
  H   H1869     1.0  0.74382  0.71943  0.98653  1.0000
  H   H1870     1.0  0.72187  0.62355  0.93378  1.0000
  S   S253      1.0  0.66030  0.82574  0.54789  1.0000
  C   C1059     1.0  0.74856  0.52081  0.55131  1.0000
  H   H1871     1.0  0.91689  0.66166  0.69238  1.0000
  H   H1872     1.0  0.72153  0.74520  0.52487  1.0000
  C   C1060     1.0  0.95571  0.69374  0.83572  1.0000
  H   H1873     1.0  0.71885  0.50611  0.99275  1.0000
  H   H1874     1.0  0.68163  0.74590  0.54635  1.0000
  C   C1061     1.0  0.93338  0.66819  0.61093  1.0000
  H   H1875     1.0  0.75077  0.66749  0.59576  1.0000
  C   C1062     1.0  0.73561  0.66818  0.58096  1.0000
  H   H1876     1.0  0.72037  0.67854  0.59010  1.0000
  C   C1063     1.0  0.77332  0.73744  0.58135  1.0000
  H   H1877     1.0  0.85576  0.56469  0.53888  1.0000
  C   C1064     1.0  0.77123  0.81654  0.75259  1.0000
  C   C1065     1.0  0.75667  0.79639  0.75250  1.0000
  C   C1066     1.0  0.76711  0.77309  0.75200  1.0000
  C   C1067     1.0  0.79225  0.76956  0.75164  1.0000
  C   C1068     1.0  0.80687  0.78973  0.75183  1.0000
  C   C1069     1.0  0.79638  0.81309  0.75233  1.0000
  H   H1878     1.0  0.73733  0.79875  0.75273  1.0000
  H   H1879     1.0  0.75563  0.75762  0.75184  1.0000
  H   H1880     1.0  0.82622  0.78733  0.75154  1.0000
  H   H1881     1.0  0.80784  0.82856  0.75246  1.0000
  H   H1882     1.0  0.95112  0.69962  0.81461  1.0000
  H   H1883     1.0  0.69010  0.95486  0.65197  1.0000
  H   H1884     1.0  0.83521  0.52624  0.60728  1.0000
  S   S254      1.0  0.82621  0.60439  0.50686  1.0000
  H   H1885     1.0  0.92678  0.68708  0.60943  1.0000
  C   C1070     1.0  0.93174  0.71333  0.68775  1.0000
  C   C1071     1.0  0.68271  0.96821  0.75058  1.0000
  C   C1072     1.0  0.70744  0.97253  0.75136  1.0000
  H   H1886     1.0  0.69808  0.73013  0.90751  1.0000
  H   H1887     1.0  0.80554  0.52604  0.97506  1.0000
  C   C1073     1.0  0.93679  0.66165  0.68983  1.0000
  H   H1888     1.0  0.70491  0.51006  0.95958  1.0000
  C   C1074     1.0  0.94643  0.63562  0.69461  1.0000
  H   H1889     1.0  0.68464  0.70249  0.91762  1.0000
  N   N59       1.0  0.73393  0.69768  0.93476  1.0000
  C   C1075     1.0  0.73606  0.69875  0.90398  1.0000
  C   C1076     1.0  0.71411  0.71465  0.94478  1.0000
  C   C1077     1.0  0.75749  0.70596  0.94660  1.0000
  C   C1078     1.0  0.72984  0.67243  0.94466  1.0000
  C   C1079     1.0  0.70707  0.66015  0.93363  1.0000
  C   C1080     1.0  0.75628  0.68288  0.89095  1.0000
  H   H1890     1.0  0.70076  0.77808  0.77898  1.0000
  C   C1081     1.0  0.69235  0.71938  0.92536  1.0000
  C   C1082     1.0  0.80085  0.54507  0.61632  1.0000
  C   C1083     1.0  0.70639  0.63388  0.94254  1.0000
  C   C1084     1.0  0.75545  0.68409  0.85975  1.0000
  C   C1085     1.0  0.68301  0.67124  0.51546  1.0000
  H   H1891     1.0  0.73914  0.71764  0.89755  1.0000
  H   H1892     1.0  0.71911  0.69360  0.89381  1.0000
  H   H1893     1.0  0.70698  0.70839  0.96475  1.0000
  H   H1894     1.0  0.72131  0.73284  0.94902  1.0000
  H   H1895     1.0  0.76224  0.72369  0.93777  1.0000
  H   H1896     1.0  0.77242  0.69331  0.94110  1.0000
  H   H1897     1.0  0.74584  0.66064  0.94045  1.0000
  H   H1898     1.0  0.72805  0.67218  0.96728  1.0000
  H   H1899     1.0  0.70630  0.66033  0.91102  1.0000
  H   H1900     1.0  0.97897  0.74733  0.74978  1.0000
  H   H1901     1.0  0.77418  0.68924  0.89722  1.0000
  H   H1902     1.0  0.75473  0.66374  0.89681  1.0000
  H   H1903     1.0  0.69076  0.66928  0.94204  1.0000
  H   H1904     1.0  0.94928  0.71350  0.69832  1.0000
  H   H1905     1.0  0.68951  0.62571  0.93515  1.0000
  H   H1906     1.0  0.68725  0.51352  0.99024  1.0000
  H   H1907     1.0  0.93735  0.74823  0.66884  1.0000
  H   H1908     1.0  0.97664  0.65387  0.65519  1.0000
  H   H1909     1.0  0.75789  0.69003  0.98752  1.0000
  C   C1086     1.0  0.78238  0.71898  0.98742  1.0000
  H   H1910     1.0  0.70693  0.63248  0.96517  1.0000
  C   C1087     1.0  0.70226  0.50312  0.98061  1.0000
  H   H1911     1.0  0.73825  0.67698  0.85188  1.0000
  H   H1912     1.0  0.75757  0.70286  0.85264  1.0000
  H   H1913     1.0  0.77048  0.67294  0.85119  1.0000
  H   H1914     1.0  0.75745  0.70615  0.59728  1.0000
  H   H1915     1.0  0.69219  0.75406  0.69158  1.0000
  H   H1916     1.0  0.69490  0.77503  0.54791  1.0000
  N   N60       1.0  0.74009  0.80894  0.84310  1.0000
  C   C1088     1.0  0.76577  0.80084  0.84817  1.0000
  C   C1089     1.0  0.72710  0.81029  0.87012  1.0000
  C   C1090     1.0  0.72854  0.79119  0.82405  1.0000
  C   C1091     1.0  0.73880  0.83350  0.83003  1.0000
  C   C1092     1.0  0.75404  0.85323  0.84385  1.0000
  C   C1093     1.0  0.78233  0.80016  0.82269  1.0000
  C   C1094     1.0  0.70112  0.79474  0.81941  1.0000
  C   C1095     1.0  0.72473  0.78616  0.88566  1.0000
  C   C1096     1.0  0.70927  0.78944  0.91121  1.0000
  C   C1097     1.0  0.75031  0.87745  0.82966  1.0000
  C   C1098     1.0  0.80834  0.79407  0.83060  1.0000
  C   C1099     1.0  0.69165  0.77633  0.79903  1.0000
  H   H1917     1.0  0.76639  0.78225  0.85647  1.0000
  H   H1918     1.0  0.77419  0.81214  0.86423  1.0000
  H   H1919     1.0  0.73644  0.82260  0.88435  1.0000
  H   H1920     1.0  0.70881  0.81848  0.86751  1.0000
  H   H1921     1.0  0.73208  0.77239  0.83090  1.0000
  H   H1922     1.0  0.73692  0.79213  0.80353  1.0000
  H   H1923     1.0  0.74410  0.83247  0.80813  1.0000
  H   H1924     1.0  0.71988  0.84049  0.82971  1.0000
  H   H1925     1.0  0.77351  0.84865  0.84282  1.0000
  H   H1926     1.0  0.74901  0.85570  0.86559  1.0000
  H   H1927     1.0  0.77646  0.78607  0.80824  1.0000
  H   H1928     1.0  0.78223  0.81761  0.81182  1.0000
  H   H1929     1.0  0.69704  0.81284  0.81098  1.0000
  H   H1930     1.0  0.69095  0.79263  0.83870  1.0000
  H   H1931     1.0  0.71623  0.77224  0.87284  1.0000
  H   H1932     1.0  0.74266  0.77932  0.89241  1.0000
  H   H1933     1.0  0.71581  0.80439  0.92415  1.0000
  H   H1934     1.0  0.69028  0.79325  0.90537  1.0000
  H   H1935     1.0  0.70990  0.77274  0.92352  1.0000
  H   H1936     1.0  0.75497  0.87602  0.80762  1.0000
  H   H1937     1.0  0.73135  0.88383  0.83172  1.0000
  H   H1938     1.0  0.76208  0.89101  0.83921  1.0000
  H   H1939     1.0  0.81556  0.80802  0.84446  1.0000
  H   H1940     1.0  0.80960  0.77623  0.84073  1.0000
  H   H1941     1.0  0.81964  0.79332  0.81191  1.0000
  H   H1942     1.0  0.73199  0.52497  0.56316  1.0000
  H   H1943     1.0  0.66345  0.94152  0.66573  1.0000
  C   C1100     1.0  0.66042  0.82604  0.58429  1.0000
  H   H1944     1.0  0.71957  0.71975  0.58103  1.0000
  C   C1101     1.0  0.75870  0.70809  0.97820  1.0000
  C   C1102     1.0  0.69645  0.75627  0.55556  1.0000
  H   H1945     1.0  0.94221  0.70883  0.64542  1.0000
  H   H1946     1.0  0.77808  0.70507  0.52650  1.0000
  C   C1103     1.0  0.98546  0.68536  0.67930  1.0000
  H   H1947     1.0  0.98412  0.66942  0.82373  1.0000
  H   H1948     1.0  0.90603  0.74018  0.67223  1.0000
  H   H1949     1.0  0.72980  0.67540  0.53837  1.0000
  H   H1950     1.0  0.81067  0.55601  0.63168  1.0000
  C   C1104     1.0  0.65937  0.82867  0.64232  1.0000
  H   H1951     1.0  0.66415  0.72248  0.95590  1.0000
  H   H1952     1.0  0.98298  0.70514  0.67762  1.0000
  C   C1105     1.0  0.75952  0.71306  0.52757  1.0000
  H   H1953     1.0  0.86286  0.54131  0.56341  1.0000
  C   C1106     1.0  0.72085  0.74520  0.54753  1.0000
  H   H1954     1.0  0.98108  0.67965  0.70026  1.0000
  C   C1107     1.0  0.74373  0.67968  0.55370  1.0000
  H   H1955     1.0  0.94582  0.60765  0.72546  1.0000
  H   H1956     1.0  0.73505  0.75713  0.55509  1.0000
  H   H1957     1.0  0.92397  0.63412  0.59173  1.0000
  H   H1958     1.0  0.67378  0.85608  0.85055  1.0000
  C   C1108     1.0  0.93252  0.69826  0.66107  1.0000
  H   H1959     1.0  0.74255  0.63129  0.56769  1.0000
  H   H1960     1.0  0.74834  0.50163  0.54491  1.0000
  C   C1109     1.0  0.66871  0.84755  0.62711  1.0000
  C   C1110     1.0  0.67222  0.73361  0.93972  1.0000
  H   H1961     1.0  0.87650  0.57034  0.56646  1.0000
  H   H1962     1.0  0.67499  0.86342  0.63750  1.0000
  H   H1963     1.0  0.96638  0.63493  0.69410  1.0000
  C   C1111     1.0  0.93135  0.65825  0.64051  1.0000
  H   H1964     1.0  0.95233  0.66727  0.60390  1.0000
  S   S255      1.0  0.81727  0.60126  0.99408  1.0000
  H   H1965     1.0  0.69452  0.75779  0.80689  1.0000
  C   C1112     1.0  0.79681  0.51200  0.98635  1.0000
  C   C1113     1.0  0.72769  0.64231  0.57672  1.0000
  H   H1966     1.0  0.91867  0.62583  0.72371  1.0000
  N   N61       1.0  0.94302  0.67295  0.66275  1.0000
  C   C1114     1.0  0.79492  0.73830  0.60075  1.0000
  H   H1967     1.0  0.72283  0.63435  0.59670  1.0000
  C   C1115     1.0  0.72387  0.71923  0.55883  1.0000
  H   H1968     1.0  0.82288  0.49475  0.51760  1.0000
  C   C1116     1.0  0.67356  0.69182  0.50232  1.0000
  H   H1969     1.0  0.94379  0.67874  0.84122  1.0000
  H   H1970     1.0  0.81093  0.72950  0.59115  1.0000
  C   C1117     1.0  0.66404  0.98041  0.66952  1.0000
  H   H1971     1.0  0.69420  0.75648  0.57810  1.0000
  H   H1972     1.0  0.93939  0.62300  0.67914  1.0000
  H   H1973     1.0  0.75585  0.87054  0.69760  1.0000
  H   H1974     1.0  0.70758  0.64060  0.51293  1.0000
  H   H1975     1.0  0.98592  0.67941  0.85867  1.0000
  H   H1976     1.0  0.95218  0.70889  0.85007  1.0000
  H   H1977     1.0  0.79789  0.70792  0.97989  1.0000
  H   H1978     1.0  0.94340  0.67239  0.70730  1.0000
  C   C1118     1.0  0.81709  0.50665  0.63834  1.0000
  C   C1119     1.0  0.81639  0.52176  0.61230  1.0000
  N   N62       1.0  0.79513  0.55980  0.59109  1.0000
  C   C1120     1.0  0.81492  0.55863  0.57009  1.0000
  C   C1121     1.0  0.77205  0.55188  0.57777  1.0000
  C   C1122     1.0  0.79171  0.58590  0.59929  1.0000
  C   C1123     1.0  0.92403  0.73938  0.68213  1.0000
  H   H1979     1.0  0.94557  0.63768  0.73918  1.0000
  C   C1124     1.0  0.83904  0.56986  0.57880  1.0000
  C   C1125     1.0  0.77047  0.59164  0.61897  1.0000
  C   C1126     1.0  0.77100  0.52526  0.56856  1.0000
  C   C1127     1.0  0.85978  0.56096  0.56074  1.0000
  C   C1128     1.0  0.77231  0.61683  0.63121  1.0000
  H   H1980     1.0  0.80905  0.56832  0.55126  1.0000
  H   H1981     1.0  0.81864  0.53992  0.56324  1.0000
  H   H1982     1.0  0.75659  0.55426  0.59189  1.0000
  H   H1983     1.0  0.76793  0.56343  0.55968  1.0000
  H   H1984     1.0  0.78914  0.59742  0.58082  1.0000
  H   H1985     1.0  0.80821  0.59255  0.60952  1.0000
  C   C1129     1.0  0.70057  0.65647  0.50270  1.0000
  C   C1130     1.0  0.98271  0.72822  0.75136  1.0000
  H   H1986     1.0  0.78386  0.54002  0.62665  1.0000
  H   H1987     1.0  0.83758  0.58966  0.57650  1.0000
  H   H1988     1.0  0.84360  0.56592  0.60043  1.0000
  H   H1989     1.0  0.76998  0.57866  0.63611  1.0000
  H   H1990     1.0  0.75310  0.59110  0.60773  1.0000
  H   H1991     1.0  0.78670  0.51974  0.55606  1.0000
  H   H1992     1.0  0.77010  0.51339  0.58672  1.0000
  H   H1993     1.0  0.92139  0.66001  0.56974  1.0000
  H   H1994     1.0  0.91845  0.70571  0.70201  1.0000
  H   H1995     1.0  0.77881  0.74604  0.56206  1.0000
  H   H1996     1.0  0.79925  0.75727  0.60539  1.0000
  H   H1997     1.0  0.89910  0.65542  0.59564  1.0000
  H   H1998     1.0  0.75686  0.62047  0.64505  1.0000
  H   H1999     1.0  0.78921  0.61852  0.64318  1.0000
  H   H2000     1.0  0.77192  0.63053  0.61478  1.0000
  N   N63       1.0  0.75016  0.79812  0.66885  1.0000
  C   C1131     1.0  0.74707  0.82357  0.67926  1.0000
  C   C1132     1.0  0.73229  0.78228  0.68293  1.0000
  C   C1133     1.0  0.77509  0.78930  0.67705  1.0000
  C   C1134     1.0  0.74771  0.79623  0.63810  1.0000
  C   C1135     1.0  0.73056  0.81475  0.62380  1.0000
  C   C1136     1.0  0.76751  0.84084  0.67143  1.0000
  C   C1137     1.0  0.78035  0.76200  0.67337  1.0000
  C   C1138     1.0  0.70541  0.78922  0.67969  1.0000
  C   C1139     1.0  0.68975  0.77326  0.69741  1.0000
  C   C1140     1.0  0.72647  0.80807  0.59388  1.0000
  C   C1141     1.0  0.76004  0.86715  0.67573  1.0000
  C   C1142     1.0  0.80730  0.75614  0.67500  1.0000
  H   H2001     1.0  0.74587  0.82364  0.70195  1.0000
  H   H2002     1.0  0.72972  0.83183  0.67257  1.0000
  H   H2003     1.0  0.73395  0.76343  0.67544  1.0000
  H   H2004     1.0  0.73629  0.78155  0.70518  1.0000
  H   H2005     1.0  0.77866  0.79359  0.69891  1.0000
  H   H2006     1.0  0.78905  0.79895  0.66538  1.0000
  H   H2007     1.0  0.76548  0.79824  0.62797  1.0000
  H   H2008     1.0  0.74189  0.77788  0.63224  1.0000
  H   H2009     1.0  0.73841  0.83291  0.62419  1.0000
  H   H2010     1.0  0.71278  0.81615  0.63377  1.0000
  H   H2011     1.0  0.78354  0.83718  0.68453  1.0000
  H   H2012     1.0  0.77293  0.83838  0.64979  1.0000
  H   H2013     1.0  0.77349  0.75557  0.65345  1.0000
  H   H2014     1.0  0.77152  0.75181  0.68995  1.0000
  H   H2015     1.0  0.70183  0.80801  0.68614  1.0000
  H   H2016     1.0  0.69955  0.78668  0.65823  1.0000
  H   H2017     1.0  0.78171  0.69959  0.57462  1.0000
  H   H2018     1.0  0.79876  0.50063  0.64363  1.0000
  H   H2019     1.0  0.79106  0.72886  0.62018  1.0000
  H   H2020     1.0  0.71521  0.82221  0.58379  1.0000
  H   H2021     1.0  0.74382  0.80642  0.58278  1.0000
  H   H2022     1.0  0.71683  0.79088  0.59254  1.0000
  H   H2023     1.0  0.77504  0.87891  0.66984  1.0000
  H   H2024     1.0  0.74407  0.87195  0.66304  1.0000
  H   H2025     1.0  0.81490  0.76272  0.69460  1.0000
  H   H2026     1.0  0.81033  0.73635  0.67406  1.0000
  H   H2027     1.0  0.81697  0.76448  0.65774  1.0000
  C   C1143     1.0  0.96873  0.68784  0.75706  1.0000
  H   H2028     1.0  0.74869  0.53202  0.53254  1.0000
  C   C1144     1.0  0.91855  0.65344  0.59088  1.0000
  C   C1145     1.0  0.66303  0.84000  0.88883  1.0000
  H   H2029     1.0  0.70896  0.70895  0.54933  1.0000
  H   H2030     1.0  0.67593  0.86117  0.58667  1.0000
  H   H2031     1.0  0.67205  0.77955  0.79588  1.0000
  C   C1146     1.0  0.67683  0.95581  0.66888  1.0000
  H   H2032     1.0  0.91186  0.65611  0.64505  1.0000
  N   N64       1.0  0.74784  0.70646  0.55427  1.0000
  H   H2033     1.0  0.68625  0.95228  0.68857  1.0000
  H   H2034     1.0  0.67667  0.66669  0.53564  1.0000
  H   H2035     1.0  0.92293  0.74943  0.70176  1.0000
  H   H2036     1.0  0.97383  0.68165  0.63801  1.0000
  C   C1147     1.0  0.80633  0.49143  0.50672  1.0000
  H   H2037     1.0  0.82451  0.51714  0.65567  1.0000
  C   C1148     1.0  0.66290  0.84260  0.86013  1.0000
  C   C1149     1.0  0.66914  0.84625  0.59826  1.0000
  C   C1150     1.0  0.98201  0.68529  0.83743  1.0000
  S   S256      1.0  0.80227  0.54104  0.50384  1.0000
  H   H2038     1.0  0.67421  0.85149  0.90114  1.0000
  H   H2039     1.0  0.76188  0.73271  0.52591  1.0000
  H   H2040     1.0  0.67902  0.75038  0.94905  1.0000
  C   C1151     1.0  0.80377  0.48760  0.98216  1.0000
  H   H2041     1.0  0.65786  0.73853  0.92481  1.0000
  H   H2042     1.0  0.67052  0.77847  0.69451  1.0000
  H   H2043     1.0  0.82878  0.49046  0.63511  1.0000
  H   H2044     1.0  0.86932  0.54031  0.99792  1.0000
  H   H2045     1.0  0.72658  0.70852  0.50309  1.0000
  H   H2046     1.0  0.83894  0.55203  0.99568  1.0000
  C   C1152     1.0  0.74616  0.70471  0.50151  1.0000
  H   H2047     1.0  0.65524  0.98346  0.64941  1.0000
  H   H2048     1.0  0.65441  0.66714  0.99960  1.0000
