data_image0
_chemical_formula_structural       CH3SFeH2FeSHSFeHFeC2HS2H2CHCH3C2HFeHNH3CH3CSC2H3CH2C2H2CHC3H3CHC2HC2HCHC6H3SH8FeH5CH2CH2C3H3CH7CH2CHFeCHCHCNH2CH5CS2CHCHCSHCHSHCH3CHCHCHC2H2C2SH2CH3CH7CH2CHC2HCNHCHCH5SC3NHCH4C2SFeSHFeS2FeSFeS3FeS2FeSCFeSFeHSCH11SH2C6H5C4H6C2H5C3H2CHC2H2C2SH2CH6NC12H10CHCH2CSHC2HCNH3C2NH6CHCH3SCH7CHCH5CH2CH2NHC3H2C2H5C2H2CH2NHC2HCHCH3CHCHC2H2CH6C3FeSCFeSHFeSFeSFeS2FeS2FeSFeCS2HC2H2SCH2C6H4C2H2CHC4HSHC5HC2H13SH2SCH4C2H3CHNC4HC7H24CH4CH6CHCHC2H4CHCHCH3CH2CH3CHC2H6CHCH4CNC4SNHC2HCH5CH2CH3C4SH2FeHSFeSHSFeCFeH3C4HCH3CHC2HCH2CHC2H4CH3CHCNHC3H3CH2S2H8NHCHSCH2CSH2SFeHCH3SCH2SC2H4CH8CH3SH3C2HCFeH3C2NC9HC2H8CH19CH3CSHCSHFeC2H3CHC2FeH4C2H5CHC3HCH4CHC2HC3H3FeCHFeCSHCH3FeHSHFeS2FeCFeS3Fe2S2FeS2C4H4CHCH17NSH5CH3C2H3CH2SC2H4SH2CH2NCHC3HCH3CHCSHCHCH2CH2CH2SH2C2SHC3HFeH5CH2SHCH2C4HNCH3CH3CSH3CH2C3H3C2HCH6CH5CH4CHNC8HC3H11C4SH2C2SCHCH2C3H4CSH2CHCHC2FeCH2FeCFeH2FeS2FeHFeCS2FeS2FeHFeSFeHS2C3H6CHCH4C2HC6H9C2H2C2H4CH2CH2CH2C3H3CH6CHC3H3CH3NHCHCH3SH4SCH5CH2CH2C2HCHSNCH2C2H5C2HCH2C2H2CH2CH2C2NSHC2H2CHNC6HC4H14CH13CHCH2C2H2C2H2CH2CH3C4HC2H6CH7C2HCSHFeSH2SHFeHFeS2FeHSFeS2FeHFeS3FeH6C2H5C2H2CHC6H7C5H4CH5CH3C2H2CHCHSH3CH2C2HSH3C2H3CHSHCH2CHCHC2HCH2NH3CHC2H3CH2C2H3CHCH3C2H2NHC2HCHCHCHC2H3SH9CH3CH6NC5H2CNCH3CHCHC2HCH5SH2CHCH3C4H7CSH3CHC2HCH4FeHSFe2SH2CFeHFeH2FeS2FeCSCH2FeC3H2CHSH3CSH3CNHSH3SH2CH3CH5CHC2H3CH2CH3CH2C2NC2HC3HC4SH3CHCH12CH8CHCSHNHCHC2HC2H6CH2C3H3C3SNC4HC2HCHCH4CHCSH2CSH2C2H11C2H3CHC3H3CH5C3H2SCSHCHS2NHFeS2H3SCSHCHFeHCSFeHCHSHCH4CH3CH5C6H2CHCH3CH2C2H7CH5C4HCHCFeHSH3CH2C7H2CHCH6C2HSHCH2CH5C2H2C3HCH2CSH4NHNH2C2H2CH10CH2SH12C2H3C3HCH2C3HC2H2CHFeH2SH4SC3SNHCHNHSC2H2CNCH5CHC2HCH2SH2C2H2FeSCFeS2FeSFeHS2FeSCFeSHFeSFeS2HC9H7C5HCHC2HC3HCHC2HCSH10CH2C2H2NH2SCH7CH3CHSH3CH6NC4HC4HC2H8CH7CH2C2H8CHCHC2H6CNHCH3CH2C2H2CH2CH2SH2CH7SCHCHCHC2FeSHFeSHFeSFeCSHFeSHFeSCFeSFeS2HC6H4CHCHCH3CNHCH7CHSH2CH3C2SHC3HCHC2HC2H18C2HNC5HCH5CH3CH6CHC2HC2HCH2CHCHSHC3H2C3H6SH4C3NH8C2H4CHC2HCHCSH2C2H8CHC3H6C4H4CHFeSHFeHSHCS2C3HFeSH4C4HCH2SC2H3C3NFeH4C2HFeCH4SC2H4CHCH2NC4HC3H3FeH8SHFeH5NH4CSHCFeCH3SCHCH3C3H4SCNH12CH2CSCH3CHSH3CHCH2C2H4CHCHCH2C2HNH4CH7CHCHCHCH6C2H2SH2SHC2SHC2SCHCHC4H3CH
_chemical_formula_sum              "C864 H1536 S192 Fe96 N48"
_cell_length_a       69.8099
_cell_length_b       37.2039
_cell_length_c       40.1166
_cell_angle_alpha    89.5253
_cell_angle_beta     88.4907
_cell_angle_gamma    90.7396

_space_group_name_H-M_alt    "P 1"
_space_group_IT_number       1

loop_
  _space_group_symop_operation_xyz
  'x, y, z'

loop_
  _atom_site_type_symbol
  _atom_site_label
  _atom_site_symmetry_multiplicity
  _atom_site_fract_x
  _atom_site_fract_y
  _atom_site_fract_z
  _atom_site_occupancy
  C   C1        1.0  0.01070  0.32230  0.24894  1.0000
  H   H1        1.0  0.12355  0.02802  0.32599  1.0000
  H   H2        1.0  0.23501  0.34421  0.35919  1.0000
  H   H3        1.0  0.16649  0.06146  0.44758  1.0000
  S   S1        1.0  0.28733  0.43742  0.31541  1.0000
  Fe  Fe1       1.0  0.00971  0.04258  0.10663  1.0000
  H   H4        1.0  0.13664  0.45027  0.21073  1.0000
  H   H5        1.0  0.27532  0.25425  0.32776  1.0000
  Fe  Fe2       1.0  0.02565  0.05190  0.17795  1.0000
  S   S2        1.0  0.05286  0.05171  0.21009  1.0000
  H   H6        1.0  0.29265  0.45531  0.45716  1.0000
  S   S3        1.0  0.02604  0.08752  0.13185  1.0000
  Fe  Fe3       1.0  0.02672  0.45998  0.17005  1.0000
  H   H7        1.0  0.03322  0.33856  0.21301  1.0000
  Fe  Fe4       1.0  0.00980  0.38707  0.14637  1.0000
  C   C2        1.0  0.26779  0.03608  0.31648  1.0000
  C   C3        1.0  0.11700  0.02761  0.38010  1.0000
  H   H8        1.0  0.01677  0.44639  0.01093  1.0000
  S   S4        1.0  0.02857  0.43024  0.12112  1.0000
  S   S5        1.0  0.00973  0.41559  0.19602  1.0000
  H   H9        1.0  0.24295  0.36993  0.32271  1.0000
  H   H10       1.0  0.24685  0.43377  0.33042  1.0000
  C   C4        1.0  0.27738  0.00576  0.30456  1.0000
  H   H11       1.0  0.08617  0.06522  0.24913  1.0000
  C   C5        1.0  0.99452  0.31850  0.22355  1.0000
  H   H12       1.0  0.09984  0.01335  0.17442  1.0000
  H   H13       1.0  0.30232  0.28632  0.40171  1.0000
  H   H14       1.0  0.04169  0.31913  0.25101  1.0000
  C   C6        1.0  0.24983  0.46007  0.31979  1.0000
  C   C7        1.0  0.07678  0.46407  0.23093  1.0000
  H   H15       1.0  0.27126  0.44945  0.43362  1.0000
  Fe  Fe5       1.0  0.99749  0.10799  0.15020  1.0000
  H   H16       1.0  0.17641  0.41473  0.30060  1.0000
  N   N1        1.0  0.08177  0.02092  0.10980  1.0000
  H   H17       1.0  0.05431  0.05010  0.30720  1.0000
  H   H18       1.0  0.31801  0.33529  0.24598  1.0000
  H   H19       1.0  0.30329  0.37366  0.23788  1.0000
  C   C8        1.0  0.07508  0.02382  0.33805  1.0000
  H   H20       1.0  0.10350  0.07827  0.19086  1.0000
  H   H21       1.0  0.22543  0.33438  0.31889  1.0000
  H   H22       1.0  0.06932  0.43914  0.22580  1.0000
  C   C9        1.0  0.01484  0.21772  0.15171  1.0000
  S   S6        1.0  0.01950  0.32772  0.14456  1.0000
  C   C10       1.0  0.29819  0.20131  0.35011  1.0000
  C   C11       1.0  0.16045  0.03658  0.45758  1.0000
  H   H23       1.0  0.29355  0.32896  0.23286  1.0000
  H   H24       1.0  0.19604  0.42396  0.11382  1.0000
  H   H25       1.0  0.28183  0.35833  0.28518  1.0000
  C   C12       1.0  0.16561  0.28376  0.44666  1.0000
  H   H26       1.0  0.13252  0.45076  0.46896  1.0000
  H   H27       1.0  0.24037  0.05936  0.32915  1.0000
  C   C13       1.0  0.28631  0.26543  0.34455  1.0000
  C   C14       1.0  0.32357  0.32661  0.41064  1.0000
  H   H28       1.0  0.03995  0.00853  0.99179  1.0000
  H   H29       1.0  0.06187  0.11847  0.04140  1.0000
  C   C15       1.0  0.09820  0.01365  0.44565  1.0000
  H   H30       1.0  0.11742  0.04660  0.08240  1.0000
  C   C16       1.0  0.09069  0.04792  0.13289  1.0000
  C   C17       1.0  0.28714  0.45038  0.43192  1.0000
  C   C18       1.0  0.09248  0.99519  0.47868  1.0000
  H   H31       1.0  0.06357  0.07802  0.33969  1.0000
  H   H32       1.0  0.32171  0.32494  0.43819  1.0000
  H   H33       1.0  0.22373  0.07109  0.46505  1.0000
  C   C19       1.0  0.06735  0.03894  0.08779  1.0000
  H   H34       1.0  0.08685  0.03185  0.32055  1.0000
  C   C20       1.0  0.12125  0.04729  0.34656  1.0000
  C   C21       1.0  0.13923  0.07108  0.34853  1.0000
  H   H35       1.0  0.04622  0.04259  0.34979  1.0000
  C   C22       1.0  0.08579  0.03663  0.24441  1.0000
  C   C23       1.0  0.10076  0.01486  0.25602  1.0000
  H   H36       1.0  0.04306  0.09063  0.05954  1.0000
  C   C24       1.0  0.03037  0.31725  0.23214  1.0000
  H   H37       1.0  0.05314  0.04018  0.10093  1.0000
  C   C25       1.0  0.08157  0.02232  0.37488  1.0000
  C   C26       1.0  0.07060  0.02205  0.22610  1.0000
  C   C27       1.0  0.22755  0.99818  0.47247  1.0000
  C   C28       1.0  0.21009  0.99347  0.44975  1.0000
  C   C29       1.0  0.16709  0.46167  0.24884  1.0000
  C   C30       1.0  0.11486  0.06365  0.17682  1.0000
  H   H38       1.0  0.16163  0.31245  0.44398  1.0000
  H   H39       1.0  0.29330  0.33135  0.40447  1.0000
  H   H40       1.0  0.30970  0.41182  0.42182  1.0000
  S   S7        1.0  0.01095  0.00611  0.15190  1.0000
  H   H41       1.0  0.12491  0.05224  0.19502  1.0000
  H   H42       1.0  0.28932  0.47224  0.38161  1.0000
  H   H43       1.0  0.10935  0.06545  0.34057  1.0000
  H   H44       1.0  0.14252  0.08354  0.32374  1.0000
  H   H45       1.0  0.13697  0.09284  0.36696  1.0000
  H   H46       1.0  0.15180  0.05516  0.35591  1.0000
  H   H47       1.0  0.07926  0.06058  0.14866  1.0000
  H   H48       1.0  0.16313  0.00857  0.41066  1.0000
  Fe  Fe6       1.0  0.00096  0.45708  0.10777  1.0000
  H   H49       1.0  0.24904  0.28893  0.33314  1.0000
  H   H50       1.0  0.27588  0.06024  0.32183  1.0000
  H   H51       1.0  0.27985  0.26241  0.37009  1.0000
  H   H52       1.0  0.08797  0.03563  0.44107  1.0000
  H   H53       1.0  0.01069  0.34975  0.25952  1.0000
  C   C31       1.0  0.05879  0.05030  0.33361  1.0000
  H   H54       1.0  0.28775  0.39249  0.43882  1.0000
  H   H55       1.0  0.28903  0.40693  0.39572  1.0000
  C   C32       1.0  0.29383  0.41315  0.42128  1.0000
  H   H56       1.0  0.30605  0.36362  0.29838  1.0000
  H   H57       1.0  0.99702  0.29378  0.20883  1.0000
  C   C33       1.0  0.29445  0.47967  0.40672  1.0000
  C   C34       1.0  0.23852  0.34281  0.33206  1.0000
  C   C35       1.0  0.30320  0.34578  0.24805  1.0000
  H   H58       1.0  0.25709  0.47916  0.38892  1.0000
  H   H59       1.0  0.32043  0.30703  0.34711  1.0000
  H   H60       1.0  0.10296  0.03724  0.04658  1.0000
  C   C36       1.0  0.24761  0.03549  0.32061  1.0000
  H   H61       1.0  0.06476  0.02246  0.06522  1.0000
  H   H62       1.0  0.19929  0.39974  0.15231  1.0000
  H   H63       1.0  0.15568  0.44040  0.31370  1.0000
  H   H64       1.0  0.13010  0.01277  0.38702  1.0000
  H   H65       1.0  0.08648  0.08199  0.06636  1.0000
  H   H66       1.0  0.11249  0.02685  0.26920  1.0000
  H   H67       1.0  0.03125  0.29052  0.22007  1.0000
  C   C37       1.0  0.26883  0.46966  0.31044  1.0000
  H   H68       1.0  0.16383  0.41868  0.18876  1.0000
  H   H69       1.0  0.22493  0.01060  0.40345  1.0000
  C   C38       1.0  0.01174  0.01001  0.01493  1.0000
  H   H70       1.0  0.09764  0.07052  0.11886  1.0000
  Fe  Fe7       1.0  0.32022  0.44205  0.31064  1.0000
  C   C39       1.0  0.29558  0.30746  0.29947  1.0000
  H   H71       1.0  0.14071  0.42951  0.25982  1.0000
  C   C40       1.0  0.00978  0.28277  0.14430  1.0000
  H   H72       1.0  0.31102  0.18405  0.34743  1.0000
  C   C41       1.0  0.23460  0.48424  0.31561  1.0000
  N   N2        1.0  0.29030  0.30449  0.33616  1.0000
  H   H73       1.0  0.30882  0.34849  0.35080  1.0000
  H   H74       1.0  0.18119  0.28096  0.44107  1.0000
  C   C42       1.0  0.99546  0.21032  0.14622  1.0000
  H   H75       1.0  0.06980  0.99708  0.33005  1.0000
  H   H76       1.0  0.03689  0.25883  0.15530  1.0000
  H   H77       1.0  0.30974  0.24043  0.31557  1.0000
  H   H78       1.0  0.15758  0.26788  0.42817  1.0000
  H   H79       1.0  0.20518  0.48470  0.21285  1.0000
  C   C43       1.0  0.02189  0.25362  0.15083  1.0000
  S   S8        1.0  0.30272  0.00570  0.29659  1.0000
  S   S9        1.0  0.02079  0.02336  0.05467  1.0000
  C   C44       1.0  0.27270  0.32595  0.34471  1.0000
  H   H80       1.0  0.25730  0.31562  0.29795  1.0000
  C   C45       1.0  0.15647  0.42677  0.26099  1.0000
  H   H81       1.0  0.12290  0.08291  0.16024  1.0000
  C   C46       1.0  0.09276  0.46418  0.25201  1.0000
  S   S10       1.0  0.21112  0.00626  0.31743  1.0000
  H   H82       1.0  0.16432  0.24106  0.48261  1.0000
  C   C47       1.0  0.25449  0.31594  0.32526  1.0000
  H   H83       1.0  0.26867  0.32248  0.37155  1.0000
  S   S11       1.0  0.32253  0.09570  0.34382  1.0000
  H   H84       1.0  0.11532  0.04950  0.39857  1.0000
  C   C48       1.0  0.05805  0.09065  0.04957  1.0000
  H   H85       1.0  0.14488  0.27281  0.48572  1.0000
  H   H86       1.0  0.11273  0.02550  0.44884  1.0000
  H   H87       1.0  0.27575  0.35531  0.34150  1.0000
  C   C49       1.0  0.07170  0.07833  0.07642  1.0000
  H   H88       1.0  0.28571  0.29094  0.28431  1.0000
  C   C50       1.0  0.16079  0.41833  0.29736  1.0000
  H   H89       1.0  0.16083  0.40335  0.24578  1.0000
  C   C51       1.0  0.29623  0.34603  0.28448  1.0000
  H   H90       1.0  0.02440  0.19581  0.15679  1.0000
  C   C52       1.0  0.30678  0.31920  0.35571  1.0000
  C   C53       1.0  0.30379  0.24018  0.34146  1.0000
  H   H91       1.0  0.15318  0.39318  0.30532  1.0000
  H   H92       1.0  0.29263  0.19910  0.37625  1.0000
  C   C54       1.0  0.15852  0.00667  0.43658  1.0000
  C   C55       1.0  0.07114  0.99338  0.13147  1.0000
  S   S12       1.0  0.99768  0.07500  0.19789  1.0000
  H   H93       1.0  0.30998  0.29586  0.29455  1.0000
  H   H94       1.0  0.31529  0.24829  0.35850  1.0000
  C   C56       1.0  0.14136  0.47350  0.47576  1.0000
  H   H95       1.0  0.08269  0.05040  0.38414  1.0000
  H   H96       1.0  0.18637  0.42752  0.20638  1.0000
  H   H97       1.0  0.09736  0.43916  0.26291  1.0000
  C   C57       1.0  0.30507  0.31467  0.39417  1.0000
  H   H98       1.0  0.99688  0.34082  0.20535  1.0000
  H   H99       1.0  0.31030  0.47700  0.40488  1.0000
  H   H100      1.0  0.06983  0.09667  0.09799  1.0000
  H   H101      1.0  0.07288  0.46678  0.10918  1.0000
  H   H102      1.0  0.28718  0.19113  0.33292  1.0000
  H   H103      1.0  0.00922  0.30208  0.26928  1.0000
  H   H104      1.0  0.05891  0.07277  0.02754  1.0000
  C   C58       1.0  0.23668  0.00450  0.31344  1.0000
  H   H105      1.0  0.10970  0.47000  0.17478  1.0000
  H   H106      1.0  0.23780  0.01734  0.45982  1.0000
  C   C59       1.0  0.16055  0.26994  0.48185  1.0000
  H   H107      1.0  0.20094  0.01753  0.44974  1.0000
  C   C60       1.0  0.17472  0.44041  0.19222  1.0000
  C   C61       1.0  0.09662  0.00143  0.08905  1.0000
  H   H108      1.0  0.06922  0.01022  0.38935  1.0000
  C   C62       1.0  0.11065  0.02509  0.06765  1.0000
  N   N3        1.0  0.09986  0.00239  0.38162  1.0000
  H   H109      1.0  0.18227  0.45817  0.25586  1.0000
  C   C63       1.0  0.10610  0.03330  0.15650  1.0000
  H   H110      1.0  0.14296  0.45988  0.15211  1.0000
  C   C64       1.0  0.01113  0.46937  0.99792  1.0000
  H   H111      1.0  0.17604  0.39997  0.13320  1.0000
  H   H112      1.0  0.22009  0.47630  0.32275  1.0000
  H   H113      1.0  0.13639  0.01995  0.03659  1.0000
  H   H114      1.0  0.11798  0.02048  0.14231  1.0000
  H   H115      1.0  0.06150  0.00714  0.14982  1.0000
  S   S13       1.0  0.99981  0.48884  0.15582  1.0000
  C   C65       1.0  0.18910  0.41628  0.13813  1.0000
  C   C66       1.0  0.18386  0.45012  0.15750  1.0000
  C   C67       1.0  0.14501  0.47508  0.20446  1.0000
  N   N4        1.0  0.16594  0.47068  0.21208  1.0000
  H   H116      1.0  0.16168  0.48442  0.26418  1.0000
  C   C68       1.0  0.14014  0.48370  0.16789  1.0000
  H   H117      1.0  0.19725  0.46607  0.16038  1.0000
  H   H118      1.0  0.17426  0.46619  0.14197  1.0000
  H   H119      1.0  0.21226  0.13195  0.47998  1.0000
  H   H120      1.0  0.19275  0.10003  0.47741  1.0000
  C   C69       1.0  0.12678  0.00257  0.05249  1.0000
  C   C70       1.0  0.99219  0.00435  0.00941  1.0000
  S   S14       1.0  0.99521  0.49075  0.05990  1.0000
  Fe  Fe8       1.0  0.18483  0.03118  0.62612  1.0000
  S   S15       1.0  0.18859  0.08065  0.59425  1.0000
  H   H121      1.0  0.23293  0.08685  0.50405  1.0000
  Fe  Fe9       1.0  0.14204  0.04796  0.64263  1.0000
  S   S16       1.0  0.14349  0.09840  0.61057  1.0000
  S   S17       1.0  0.11141  0.03952  0.66490  1.0000
  Fe  Fe10      1.0  0.16014  0.06551  0.57330  1.0000
  S   S18       1.0  0.15789  0.07221  0.51719  1.0000
  Fe  Fe11      1.0  0.17163  0.10962  0.63402  1.0000
  S   S19       1.0  0.18220  0.16485  0.65103  1.0000
  S   S20       1.0  0.15680  0.01447  0.60303  1.0000
  S   S21       1.0  0.16980  0.06093  0.66830  1.0000
  Fe  Fe12      1.0  0.18575  0.43597  0.63753  1.0000
  S   S22       1.0  0.17388  0.39650  0.60063  1.0000
  S   S23       1.0  0.21863  0.43884  0.63474  1.0000
  Fe  Fe13      1.0  0.14536  0.45455  0.66459  1.0000
  S   S24       1.0  0.13136  0.41625  0.62971  1.0000
  C   C71       1.0  0.01465  0.47377  0.96313  1.0000
  Fe  Fe14      1.0  0.15434  0.37676  0.64226  1.0000
  S   S25       1.0  0.14262  0.31881  0.64584  1.0000
  Fe  Fe15      1.0  0.15189  0.43822  0.59041  1.0000
  H   H122      1.0  0.14456  0.03026  0.73169  1.0000
  S   S26       1.0  0.16728  0.41366  0.68046  1.0000
  C   C72       1.0  0.31636  0.41263  0.74525  1.0000
  H   H123      1.0  0.16739  0.20904  0.76490  1.0000
  H   H124      1.0  0.14037  0.21077  0.70589  1.0000
  H   H125      1.0  0.07403  0.11339  0.80459  1.0000
  H   H126      1.0  0.13550  0.27654  0.53778  1.0000
  H   H127      1.0  0.32210  0.40704  0.71979  1.0000
  H   H128      1.0  0.07683  0.13198  0.64776  1.0000
  H   H129      1.0  0.10155  0.12951  0.63426  1.0000
  H   H130      1.0  0.08600  0.14654  0.70478  1.0000
  H   H131      1.0  0.09495  0.44731  0.69361  1.0000
  H   H132      1.0  0.22612  0.31642  0.59078  1.0000
  H   H133      1.0  0.13859  0.09492  0.77826  1.0000
  S   S27       1.0  0.00784  0.99996  0.81342  1.0000
  H   H134      1.0  0.17493  0.20631  0.72152  1.0000
  H   H135      1.0  0.16308  0.24591  0.73664  1.0000
  C   C73       1.0  0.17114  0.20747  0.64769  1.0000
  C   C74       1.0  0.15186  0.21098  0.63970  1.0000
  C   C75       1.0  0.14339  0.24523  0.63951  1.0000
  C   C76       1.0  0.15415  0.27643  0.64646  1.0000
  C   C77       1.0  0.17353  0.27298  0.65370  1.0000
  C   C78       1.0  0.18191  0.23867  0.65452  1.0000
  H   H136      1.0  0.14341  0.18730  0.63423  1.0000
  H   H137      1.0  0.12839  0.24758  0.63384  1.0000
  H   H138      1.0  0.18198  0.29665  0.65928  1.0000
  H   H139      1.0  0.19682  0.23626  0.66083  1.0000
  H   H140      1.0  0.07803  0.44368  0.94663  1.0000
  C   C79       1.0  0.14560  0.29375  0.55154  1.0000
  C   C80       1.0  0.14732  0.47680  0.50881  1.0000
  C   C81       1.0  0.07163  0.47620  0.71755  1.0000
  C   C82       1.0  0.09169  0.45562  0.83661  1.0000
  H   H141      1.0  0.23984  0.03113  0.54862  1.0000
  H   H142      1.0  0.17095  0.17257  0.53332  1.0000
  H   H143      1.0  0.09247  0.14407  0.81785  1.0000
  H   H144      1.0  0.10298  0.47193  0.84846  1.0000
  H   H145      1.0  0.13342  0.20943  0.74932  1.0000
  H   H146      1.0  0.14664  0.21984  0.52439  1.0000
  C   C83       1.0  0.26253  0.02426  0.64281  1.0000
  C   C84       1.0  0.24249  0.02317  0.63871  1.0000
  H   H147      1.0  0.26931  0.04897  0.65071  1.0000
  H   H148      1.0  0.23405  0.04684  0.64355  1.0000
  H   H149      1.0  0.09631  0.10485  0.69114  1.0000
  H   H150      1.0  0.07621  0.15734  0.78557  1.0000
  H   H151      1.0  0.08926  0.10920  0.74893  1.0000
  C   C85       1.0  0.09669  0.45337  0.79872  1.0000
  C   C86       1.0  0.11924  0.34021  0.55378  1.0000
  C   C87       1.0  0.02480  0.00432  0.98807  1.0000
  H   H152      1.0  0.17886  0.33591  0.55517  1.0000
  H   H153      1.0  0.12604  0.03442  0.76394  1.0000
  C   C88       1.0  0.16010  0.17892  0.55307  1.0000
  H   H154      1.0  0.15784  0.09034  0.74793  1.0000
  C   C89       1.0  0.26027  0.46930  0.72352  1.0000
  C   C90       1.0  0.17866  0.30794  0.56519  1.0000
  H   H155      1.0  0.09165  0.17213  0.64736  1.0000
  H   H156      1.0  0.12579  0.47526  0.80007  1.0000
  C   C91       1.0  0.27822  0.45160  0.73832  1.0000
  C   C92       1.0  0.27385  0.99372  0.63716  1.0000
  S   S28       1.0  0.16490  0.47916  0.62421  1.0000
  H   H157      1.0  0.08971  0.42922  0.78799  1.0000
  H   H158      1.0  0.06070  0.41764  0.82978  1.0000
  C   C93       1.0  0.08081  0.48347  0.90639  1.0000
  H   H159      1.0  0.06791  0.43425  0.88805  1.0000
  H   H160      1.0  0.05106  0.01372  0.72797  1.0000
  H   H161      1.0  0.07044  0.45624  0.63827  1.0000
  H   H162      1.0  0.06870  0.41995  0.60913  1.0000
  H   H163      1.0  0.16650  0.17486  0.57786  1.0000
  H   H164      1.0  0.18284  0.23513  0.54155  1.0000
  N   N5        1.0  0.12582  0.13847  0.72764  1.0000
  C   C94       1.0  0.12988  0.09877  0.72569  1.0000
  C   C95       1.0  0.11699  0.15022  0.69543  1.0000
  C   C96       1.0  0.14485  0.15813  0.72999  1.0000
  C   C97       1.0  0.11322  0.14791  0.75747  1.0000
  C   C98       1.0  0.09804  0.11933  0.76947  1.0000
  C   C99       1.0  0.14254  0.08351  0.75360  1.0000
  C   C100      1.0  0.14410  0.19985  0.73059  1.0000
  C   C101      1.0  0.09697  0.13436  0.68797  1.0000
  C   C102      1.0  0.09147  0.14267  0.65212  1.0000
  C   C103      1.0  0.08440  0.13464  0.79600  1.0000
  C   C104      1.0  0.14085  0.04262  0.75611  1.0000
  C   C105      1.0  0.16359  0.21616  0.73899  1.0000
  H   H165      1.0  0.13720  0.09254  0.70149  1.0000
  H   H166      1.0  0.11647  0.08256  0.72539  1.0000
  H   H167      1.0  0.11504  0.17977  0.69474  1.0000
  H   H168      1.0  0.12690  0.14398  0.67401  1.0000
  H   H169      1.0  0.15468  0.15038  0.70890  1.0000
  H   H170      1.0  0.15216  0.15019  0.75316  1.0000
  H   H171      1.0  0.12211  0.15347  0.77957  1.0000
  H   H172      1.0  0.10562  0.17348  0.75250  1.0000
  H   H173      1.0  0.10513  0.09582  0.78077  1.0000
  H   H174      1.0  0.11577  0.36864  0.54804  1.0000
  C   C106      1.0  0.03630  0.45236  0.83542  1.0000
  H   H175      1.0  0.10946  0.32242  0.53980  1.0000
  C   C107      1.0  0.07780  0.02446  0.70063  1.0000
  H   H176      1.0  0.17257  0.30972  0.59104  1.0000
  H   H177      1.0  0.09613  0.47724  0.90178  1.0000
  C   C108      1.0  0.21103  0.32495  0.58832  1.0000
  S   S29       1.0  0.13952  0.44421  0.53881  1.0000
  H   H178      1.0  0.14200  0.28840  0.57835  1.0000
  C   C109      1.0  0.24285  0.44397  0.72497  1.0000
  C   C110      1.0  0.15311  0.21750  0.54912  1.0000
  H   H179      1.0  0.20451  0.32755  0.61375  1.0000
  C   C111      1.0  0.29466  0.43161  0.67373  1.0000
  N   N6        1.0  0.16621  0.28390  0.54424  1.0000
  H   H180      1.0  0.20130  0.27093  0.58127  1.0000
  H   H181      1.0  0.03283  0.48135  0.83522  1.0000
  H   H182      1.0  0.03270  0.44102  0.86054  1.0000
  C   C112      1.0  0.01851  0.99350  0.95630  1.0000
  C   C113      1.0  0.30206  0.46590  0.69155  1.0000
  N   N7        1.0  0.07193  0.46942  0.84516  1.0000
  H   H183      1.0  0.07156  0.04406  0.68422  1.0000
  H   H184      1.0  0.25071  0.03848  0.50837  1.0000
  H   H185      1.0  0.27911  0.43381  0.66919  1.0000
  H   H186      1.0  0.29795  0.40395  0.62656  1.0000
  H   H187      1.0  0.23966  0.43485  0.75098  1.0000
  H   H188      1.0  0.08923  0.42357  0.63499  1.0000
  C   C114      1.0  0.08903  0.46176  0.59337  1.0000
  H   H189      1.0  0.27789  0.42276  0.73175  1.0000
  C   C115      1.0  0.30488  0.42640  0.64001  1.0000
  H   H190      1.0  0.14891  0.35254  0.55793  1.0000
  H   H191      1.0  0.02521  0.44497  0.78561  1.0000
  H   H192      1.0  0.27616  0.45181  0.76597  1.0000
  S   S30       1.0  0.29899  0.99671  0.64415  1.0000
  C   C116      1.0  0.14013  0.33323  0.54382  1.0000
  H   H193      1.0  0.20876  0.05048  0.53624  1.0000
  H   H194      1.0  0.14270  0.99996  0.53011  1.0000
  H   H195      1.0  0.18573  0.00053  0.54340  1.0000
  H   H196      1.0  0.12405  0.42679  0.80524  1.0000
  H   H197      1.0  0.18722  0.28351  0.50367  1.0000
  H   H198      1.0  0.31787  0.46796  0.68731  1.0000
  H   H199      1.0  0.30316  0.39639  0.75020  1.0000
  C   C117      1.0  0.02338  0.43300  0.81099  1.0000
  H   H200      1.0  0.29662  0.40679  0.68850  1.0000
  C   C118      1.0  0.05776  0.44680  0.82626  1.0000
  H   H201      1.0  0.09151  0.47717  0.78510  1.0000
  H   H202      1.0  0.07821  0.47434  0.57743  1.0000
  H   H203      1.0  0.21105  0.35166  0.57571  1.0000
  H   H204      1.0  0.17134  0.31989  0.50219  1.0000
  H   H205      1.0  0.14150  0.22170  0.56815  1.0000
  C   C119      1.0  0.10352  0.48978  0.60725  1.0000
  H   H206      1.0  0.08489  0.48818  0.95969  1.0000
  H   H207      1.0  0.05936  0.45222  0.79894  1.0000
  C   C120      1.0  0.20000  0.29716  0.56819  1.0000
  H   H208      1.0  0.24537  0.42028  0.70882  1.0000
  H   H209      1.0  0.02673  0.40393  0.81001  1.0000
  N   N8        1.0  0.29716  0.46922  0.72836  1.0000
  H   H210      1.0  0.20721  0.29523  0.54336  1.0000
  C   C121      1.0  0.21146  0.04316  0.50968  1.0000
  C   C122      1.0  0.25352  0.47284  0.62383  1.0000
  C   C123      1.0  0.23338  0.99123  0.62941  1.0000
  H   H211      1.0  0.00819  0.43583  0.81934  1.0000
  H   H212      1.0  0.17233  0.24342  0.58147  1.0000
  C   C124      1.0  0.16961  0.24521  0.55427  1.0000
  C   C125      1.0  0.11826  0.45046  0.79201  1.0000
  H   H213      1.0  0.12113  0.44722  0.76482  1.0000
  H   H214      1.0  0.14787  0.15974  0.55090  1.0000
  H   H215      1.0  0.02301  0.45395  0.94985  1.0000
  H   H216      1.0  0.30415  0.45103  0.62433  1.0000
  H   H217      1.0  0.11685  0.33564  0.58101  1.0000
  C   C126      1.0  0.09742  0.01644  0.69669  1.0000
  C   C127      1.0  0.07875  0.43924  0.62071  1.0000
  H   H218      1.0  0.15087  0.03242  0.77493  1.0000
  H   H219      1.0  0.25726  0.44894  0.61007  1.0000
  C   C128      1.0  0.09083  0.47160  0.70640  1.0000
  H   H220      1.0  0.11710  0.48621  0.59281  1.0000
  H   H221      1.0  0.09340  0.42806  0.84716  1.0000
  N   N9        1.0  0.22345  0.00969  0.50798  1.0000
  H   H222      1.0  0.06111  0.45533  0.71295  1.0000
  C   C129      1.0  0.06769  0.46354  0.88195  1.0000
  C   C130      1.0  0.17197  0.29065  0.50820  1.0000
  H   H223      1.0  0.20098  0.11409  0.51771  1.0000
  C   C131      1.0  0.24238  0.01844  0.52377  1.0000
  H   H224      1.0  0.29632  0.48903  0.67727  1.0000
  C   C132      1.0  0.06609  0.00728  0.72549  1.0000
  H   H225      1.0  0.14198  0.33934  0.51680  1.0000
  H   H226      1.0  0.05301  0.47283  0.88878  1.0000
  H   H227      1.0  0.23015  0.45821  0.71561  1.0000
  C   C133      1.0  0.07570  0.47285  0.94249  1.0000
  H   H228      1.0  0.32010  0.41960  0.64366  1.0000
  C   C134      1.0  0.27491  0.99899  0.54376  1.0000
  H   H229      1.0  0.09343  0.01483  0.49930  1.0000
  C   C135      1.0  0.23486  0.47599  0.63760  1.0000
  C   C136      1.0  0.31277  0.45337  0.74906  1.0000
  H   H230      1.0  0.19702  0.03842  0.49961  1.0000
  H   H231      1.0  0.30988  0.45895  0.77599  1.0000
  C   C137      1.0  0.14712  0.00199  0.50411  1.0000
  H   H232      1.0  0.27231  0.01380  0.56735  1.0000
  H   H233      1.0  0.06048  0.47906  0.94857  1.0000
  H   H234      1.0  0.09704  0.44276  0.57702  1.0000
  H   H235      1.0  0.26296  0.47744  0.69725  1.0000
  H   H236      1.0  0.28289  0.01684  0.52575  1.0000
  H   H237      1.0  0.10728  0.48174  0.63310  1.0000
  C   C138      1.0  0.15494  0.03426  0.49148  1.0000
  C   C139      1.0  0.20558  0.10758  0.49174  1.0000
  C   C140      1.0  0.21995  0.07693  0.49147  1.0000
  Fe  Fe16      1.0  0.14604  0.94281  0.29654  1.0000
  S   S31       1.0  0.14400  0.89711  0.33418  1.0000
  C   C141      1.0  0.26648  0.97467  0.29762  1.0000
  Fe  Fe17      1.0  0.18761  0.96225  0.31813  1.0000
  S   S32       1.0  0.18762  0.91806  0.35659  1.0000
  H   H238      1.0  0.11077  0.96824  0.42066  1.0000
  Fe  Fe18      1.0  0.17394  0.88308  0.31785  1.0000
  S   S33       1.0  0.18643  0.82659  0.31201  1.0000
  Fe  Fe19      1.0  0.15780  0.93544  0.36970  1.0000
  S   S34       1.0  0.17570  0.92653  0.27789  1.0000
  Fe  Fe20      1.0  0.15735  0.61396  0.31694  1.0000
  S   S35       1.0  0.16432  0.57255  0.27771  1.0000
  S   S36       1.0  0.14625  0.67095  0.30838  1.0000
  Fe  Fe21      1.0  0.16176  0.55935  0.37423  1.0000
  S   S37       1.0  0.16892  0.51402  0.33924  1.0000
  S   S38       1.0  0.16420  0.56360  0.43066  1.0000
  Fe  Fe22      1.0  0.18791  0.55437  0.31175  1.0000
  S   S39       1.0  0.21941  0.54942  0.29391  1.0000
  Fe  Fe23      1.0  0.14467  0.53510  0.30770  1.0000
  C   C142      1.0  0.03568  0.56144  0.04829  1.0000
  S   S40       1.0  0.18201  0.59858  0.34833  1.0000
  S   S41       1.0  0.13647  0.57733  0.34512  1.0000
  H   H239      1.0  0.02992  0.53346  0.04781  1.0000
  C   C143      1.0  0.08538  0.96316  0.23203  1.0000
  C   C144      1.0  0.10073  0.97786  0.24989  1.0000
  H   H240      1.0  0.20986  0.66071  0.35482  1.0000
  H   H241      1.0  0.14844  0.50715  0.15789  1.0000
  S   S42       1.0  0.12296  0.49440  0.28606  1.0000
  C   C145      1.0  0.09648  0.52834  0.24492  1.0000
  H   H242      1.0  0.18811  0.66355  0.45739  1.0000
  H   H243      1.0  0.10388  0.55331  0.25016  1.0000
  C   C146      1.0  0.17489  0.78372  0.30998  1.0000
  C   C147      1.0  0.18623  0.75272  0.30794  1.0000
  C   C148      1.0  0.17778  0.71806  0.30705  1.0000
  C   C149      1.0  0.15782  0.71395  0.30821  1.0000
  C   C150      1.0  0.14648  0.74496  0.30998  1.0000
  C   C151      1.0  0.15493  0.77962  0.31098  1.0000
  H   H244      1.0  0.20168  0.75558  0.30703  1.0000
  H   H245      1.0  0.18672  0.69457  0.30540  1.0000
  H   H246      1.0  0.13103  0.74216  0.31073  1.0000
  H   H247      1.0  0.14602  0.80315  0.31246  1.0000
  C   C152      1.0  0.00018  0.49445  0.01571  1.0000
  C   C153      1.0  0.07049  0.49615  0.21660  1.0000
  H   H248      1.0  0.23002  0.53977  0.41088  1.0000
  H   H249      1.0  0.06700  0.95063  0.09405  1.0000
  C   C154      1.0  0.05324  0.56392  0.02382  1.0000
  H   H250      1.0  0.02430  0.57791  0.03705  1.0000
  C   C155      1.0  0.19681  0.50901  0.21905  1.0000
  C   C156      1.0  0.29450  0.54140  0.38516  1.0000
  C   C157      1.0  0.00304  0.58458  0.09632  1.0000
  C   C158      1.0  0.15786  0.52929  0.45998  1.0000
  H   H251      1.0  0.01782  0.53461  0.10199  1.0000
  S   S43       1.0  0.15805  0.98171  0.33362  1.0000
  H   H252      1.0  0.10232  0.97271  0.48393  1.0000
  C   C159      1.0  0.23813  0.51838  0.30170  1.0000
  C   C160      1.0  0.25716  0.52805  0.29254  1.0000
  C   C161      1.0  0.26804  0.52133  0.42240  1.0000
  C   C162      1.0  0.08058  0.52819  0.22368  1.0000
  C   C163      1.0  0.14487  0.97230  0.48299  1.0000
  H   H253      1.0  0.26008  0.55429  0.28159  1.0000
  C   C164      1.0  0.23353  0.51125  0.40580  1.0000
  C   C165      1.0  0.08798  0.91773  0.32935  1.0000
  H   H254      1.0  0.08507  0.93460  0.22718  1.0000
  H   H255      1.0  0.21112  0.64212  0.39665  1.0000
  H   H256      1.0  0.19980  0.56694  0.21169  1.0000
  H   H257      1.0  0.10511  0.98336  0.10510  1.0000
  H   H258      1.0  0.04906  0.68298  0.14038  1.0000
  H   H259      1.0  0.31287  0.55716  0.32407  1.0000
  H   H260      1.0  0.20297  0.70327  0.41957  1.0000
  H   H261      1.0  0.25673  0.52390  0.37166  1.0000
  H   H262      1.0  0.13543  0.99041  0.07244  1.0000
  H   H263      1.0  0.07793  0.50638  0.13302  1.0000
  H   H264      1.0  0.28805  0.53027  0.36226  1.0000
  H   H265      1.0  0.05264  0.50224  0.07150  1.0000
  H   H266      1.0  0.08960  0.98321  0.07114  1.0000
  S   S44       1.0  0.11940  0.94877  0.26343  1.0000
  H   H267      1.0  0.31559  0.52361  0.44202  1.0000
  H   H268      1.0  0.28275  0.57358  0.46512  1.0000
  S   S45       1.0  0.14684  0.93681  0.42345  1.0000
  C   C166      1.0  0.05855  0.96553  0.11301  1.0000
  H   H269      1.0  0.05879  0.97301  0.20688  1.0000
  H   H270      1.0  0.30109  0.58786  0.43531  1.0000
  H   H271      1.0  0.05690  0.61903  0.07006  1.0000
  H   H272      1.0  0.22526  0.96259  0.41137  1.0000
  C   C167      1.0  0.17271  0.66737  0.46379  1.0000
  C   C168      1.0  0.09854  0.98648  0.41647  1.0000
  H   H273      1.0  0.22772  0.67699  0.38271  1.0000
  H   H274      1.0  0.19634  0.51176  0.24658  1.0000
  H   H275      1.0  0.08309  0.93424  0.30807  1.0000
  C   C169      1.0  0.05602  0.55410  0.09805  1.0000
  H   H276      1.0  0.17622  0.72435  0.45774  1.0000
  N   N10       1.0  0.16359  0.70599  0.41184  1.0000
  C   C170      1.0  0.17778  0.68301  0.39291  1.0000
  C   C171      1.0  0.14354  0.69532  0.40226  1.0000
  C   C172      1.0  0.16691  0.74456  0.40059  1.0000
  C   C173      1.0  0.16577  0.70370  0.44923  1.0000
  H   H277      1.0  0.17651  0.51388  0.17935  1.0000
  C   C174      1.0  0.19900  0.69585  0.39391  1.0000
  C   C175      1.0  0.15197  0.77228  0.41300  1.0000
  C   C176      1.0  0.13725  0.65586  0.40915  1.0000
  C   C177      1.0  0.11749  0.64823  0.39502  1.0000
  C   C178      1.0  0.29766  0.56885  0.45610  1.0000
  C   C179      1.0  0.21271  0.66702  0.38127  1.0000
  C   C180      1.0  0.15879  0.81081  0.40540  1.0000
  H   H278      1.0  0.17396  0.68157  0.36622  1.0000
  H   H279      1.0  0.17702  0.65464  0.40151  1.0000
  H   H280      1.0  0.13274  0.71181  0.41578  1.0000
  H   H281      1.0  0.14162  0.70098  0.37522  1.0000
  H   H282      1.0  0.16743  0.74630  0.37289  1.0000
  H   H283      1.0  0.18112  0.75462  0.40868  1.0000
  H   H284      1.0  0.05836  0.59214  0.02089  1.0000
  H   H285      1.0  0.31407  0.59674  0.35001  1.0000
  H   H286      1.0  0.13878  0.49664  0.22037  1.0000
  H   H287      1.0  0.07754  0.98463  0.47799  1.0000
  H   H288      1.0  0.20126  0.71985  0.37749  1.0000
  H   H289      1.0  0.30170  0.92399  0.32392  1.0000
  H   H290      1.0  0.14924  0.76964  0.44029  1.0000
  H   H291      1.0  0.13825  0.76836  0.40000  1.0000
  H   H292      1.0  0.14734  0.63655  0.39761  1.0000
  H   H293      1.0  0.13599  0.65074  0.43638  1.0000
  H   H294      1.0  0.11788  0.65198  0.36748  1.0000
  H   H295      1.0  0.07389  0.94987  0.36654  1.0000
  H   H296      1.0  0.10660  0.66632  0.40622  1.0000
  H   H297      1.0  0.06130  0.92207  0.14939  1.0000
  H   H298      1.0  0.07596  0.55324  0.21285  1.0000
  H   H299      1.0  0.05736  0.56077  0.12491  1.0000
  H   H300      1.0  0.09259  0.92210  0.38187  1.0000
  H   H301      1.0  0.05701  0.61953  0.13199  1.0000
  C   C181      1.0  0.05534  0.51248  0.09682  1.0000
  H   H302      1.0  0.16142  0.81476  0.37816  1.0000
  H   H303      1.0  0.14766  0.83010  0.41372  1.0000
  H   H304      1.0  0.17220  0.81709  0.41859  1.0000
  H   H305      1.0  0.11315  0.61997  0.40072  1.0000
  C   C182      1.0  0.99306  0.52415  0.99797  1.0000
  H   H306      1.0  0.02424  0.56673  0.13170  1.0000
  H   H307      1.0  0.22205  0.54351  0.21528  1.0000
  H   H308      1.0  0.23030  0.49477  0.42853  1.0000
  H   H309      1.0  0.32282  0.51946  0.37215  1.0000
  H   H310      1.0  0.08546  0.96925  0.41961  1.0000
  H   H311      1.0  0.15199  0.71053  0.46216  1.0000
  C   C183      1.0  0.04469  0.63049  0.11843  1.0000
  H   H312      1.0  0.16484  0.64392  0.45402  1.0000
  C   C184      1.0  0.04782  0.67112  0.11518  1.0000
  H   H313      1.0  0.11773  0.96002  0.36186  1.0000
  C   C185      1.0  0.31625  0.54590  0.37705  1.0000
  C   C186      1.0  0.04985  0.93767  0.13742  1.0000
  H   H314      1.0  0.28823  0.56862  0.38785  1.0000
  H   H315      1.0  0.06123  0.67735  0.10064  1.0000
  H   H316      1.0  0.10406  0.98119  0.33151  1.0000
  H   H317      1.0  0.32384  0.55883  0.39784  1.0000
  C   C187      1.0  0.14675  0.49942  0.45134  1.0000
  H   H318      1.0  0.22418  0.50169  0.38562  1.0000
  C   C188      1.0  0.30003  0.52913  0.44535  1.0000
  H   H319      1.0  0.30935  0.89996  0.36035  1.0000
  C   C189      1.0  0.17609  0.50635  0.20613  1.0000
  H   H320      1.0  0.11542  0.51728  0.17889  1.0000
  H   H321      1.0  0.03552  0.68374  0.10275  1.0000
  H   H322      1.0  0.16786  0.52828  0.21838  1.0000
  C   C190      1.0  0.07425  0.49655  0.10788  1.0000
  H   H323      1.0  0.06523  0.54732  0.03252  1.0000
  H   H324      1.0  0.03152  0.62591  0.13401  1.0000
  C   C191      1.0  0.08858  0.94016  0.36102  1.0000
  H   H325      1.0  0.27364  0.95107  0.28826  1.0000
  H   H326      1.0  0.28689  0.51186  0.28958  1.0000
  H   H327      1.0  0.29536  0.51262  0.46740  1.0000
  C   C192      1.0  0.21650  0.98721  0.41352  1.0000
  H   H328      1.0  0.20145  0.96959  0.45773  1.0000
  C   C193      1.0  0.31979  0.56935  0.34599  1.0000
  C   C194      1.0  0.20750  0.54200  0.20475  1.0000
  H   H329      1.0  0.06965  0.56382  0.08588  1.0000
  H   H330      1.0  0.04106  0.95091  0.15711  1.0000
  H   H331      1.0  0.04046  0.91876  0.12385  1.0000
  H   H332      1.0  0.08603  0.50386  0.08987  1.0000
  H   H333      1.0  0.10236  0.90695  0.32307  1.0000
  H   H334      1.0  0.26434  0.55000  0.42637  1.0000
  C   C195      1.0  0.10333  0.97174  0.35783  1.0000
  H   H335      1.0  0.07784  0.89474  0.33310  1.0000
  C   C196      1.0  0.27243  0.50402  0.29707  1.0000
  H   H336      1.0  0.00513  0.61388  0.09973  1.0000
  H   H337      1.0  0.20899  0.54036  0.17719  1.0000
  H   H338      1.0  0.23818  0.94991  0.29649  1.0000
  H   H339      1.0  0.03209  0.62751  0.06937  1.0000
  C   C197      1.0  0.07042  0.98495  0.22038  1.0000
  N   N11       1.0  0.03908  0.57302  0.08366  1.0000
  C   C198      1.0  0.15057  0.97447  0.44919  1.0000
  C   C199      1.0  0.02144  0.56358  0.10466  1.0000
  C   C200      1.0  0.04312  0.61293  0.08359  1.0000
  C   C201      1.0  0.24631  0.97390  0.30228  1.0000
  S   S46       1.0  0.05051  0.49800  0.18929  1.0000
  N   N12       1.0  0.28923  0.51790  0.41494  1.0000
  H   H340      1.0  0.04381  0.50220  0.11399  1.0000
  C   C202      1.0  0.31090  0.57811  0.48462  1.0000
  C   C203      1.0  0.25457  0.50777  0.39487  1.0000
  H   H341      1.0  0.11556  0.49700  0.13830  1.0000
  C   C204      1.0  0.11891  0.49247  0.16489  1.0000
  H   H342      1.0  0.99886  0.57975  0.07023  1.0000
  H   H343      1.0  0.12086  0.98086  0.03675  1.0000
  H   H344      1.0  0.08130  0.97760  0.14647  1.0000
  H   H345      1.0  0.26395  0.50747  0.44631  1.0000
  H   H346      1.0  0.04655  0.97888  0.10040  1.0000
  C   C205      1.0  0.10270  0.49629  0.25940  1.0000
  H   H347      1.0  0.20370  0.98374  0.39788  1.0000
  H   H348      1.0  0.31702  0.94593  0.35338  1.0000
  C   C206      1.0  0.31382  0.92002  0.34093  1.0000
  H   H349      1.0  0.23499  0.97195  0.47206  1.0000
  H   H350      1.0  0.14207  0.49659  0.42600  1.0000
  H   H351      1.0  0.04369  0.52158  0.99072  1.0000
  C   C207      1.0  0.18415  0.94307  0.54562  1.0000
  C   C208      1.0  0.25477  0.84315  0.61520  1.0000
  C   C209      1.0  0.10600  0.52666  0.54288  1.0000
  C   C210      1.0  0.14667  0.57303  0.62742  1.0000
  S   S47       1.0  0.28092  0.56311  0.65681  1.0000
  H   H352      1.0  0.03853  0.88883  0.90598  1.0000
  H   H353      1.0  0.26881  0.73967  0.64924  1.0000
  Fe  Fe24      1.0  0.02798  0.95642  0.79554  1.0000
  H   H354      1.0  0.17877  0.68860  0.51301  1.0000
  S   S48       1.0  0.02138  0.92079  0.84070  1.0000
  Fe  Fe25      1.0  0.00633  0.54446  0.85596  1.0000
  S   S49       1.0  0.03112  0.57413  0.83056  1.0000
  H   H355      1.0  0.30873  0.55896  0.50585  1.0000
  S   S50       1.0  0.00335  0.59242  0.76769  1.0000
  Fe  Fe26      1.0  0.02294  0.54730  0.78288  1.0000
  C   C211      1.0  0.07089  0.56832  0.63415  1.0000
  Fe  Fe27      1.0  0.00995  0.61758  0.81744  1.0000
  H   H356      1.0  0.10160  0.49851  0.53776  1.0000
  H   H357      1.0  0.10950  0.55021  0.73402  1.0000
  H   H358      1.0  0.13793  0.52810  0.59850  1.0000
  C   C212      1.0  0.09896  0.52940  0.72933  1.0000
  C   C213      1.0  0.02138  0.74999  0.83329  1.0000
  C   C214      1.0  0.28457  0.73894  0.64544  1.0000
  C   C215      1.0  0.99349  0.72670  0.80606  1.0000
  H   H359      1.0  0.07998  0.58331  0.65174  1.0000
  C   C216      1.0  0.08752  0.53336  0.83661  1.0000
  H   H360      1.0  0.03477  0.74545  0.84554  1.0000
  H   H361      1.0  0.09548  0.58991  0.83333  1.0000
  H   H362      1.0  0.07566  0.55823  0.75335  1.0000
  C   C217      1.0  0.29703  0.81629  0.56030  1.0000
  H   H363      1.0  0.31268  0.82678  0.60501  1.0000
  C   C218      1.0  0.06595  0.50729  0.73486  1.0000
  C   C219      1.0  0.15861  0.50647  0.51739  1.0000
  H   H364      1.0  0.07428  0.57827  0.81101  1.0000
  C   C220      1.0  0.06944  0.50853  0.83574  1.0000
  H   H365      1.0  0.07834  0.53697  0.56516  1.0000
  H   H366      1.0  0.02264  0.80773  0.83980  1.0000
  C   C221      1.0  0.31450  0.53134  0.73317  1.0000
  H   H367      1.0  0.09737  0.52753  0.81522  1.0000
  C   C222      1.0  0.26310  0.53051  0.64688  1.0000
  C   C223      1.0  0.24435  0.53403  0.66016  1.0000
  H   H368      1.0  0.09565  0.52980  0.85965  1.0000
  H   H369      1.0  0.24079  0.55741  0.67480  1.0000
  H   H370      1.0  0.07003  0.58395  0.61057  1.0000
  H   H371      1.0  0.23784  0.93588  0.61613  1.0000
  C   C224      1.0  0.07977  0.53399  0.74050  1.0000
  H   H372      1.0  0.28510  0.52207  0.72106  1.0000
  H   H373      1.0  0.15515  0.66827  0.50952  1.0000
  H   H374      1.0  0.27326  0.93826  0.62246  1.0000
  C   C225      1.0  0.23458  0.84149  0.60135  1.0000
  H   H375      1.0  0.30302  0.87005  0.53992  1.0000
  C   C226      1.0  0.01089  0.72023  0.82151  1.0000
  N   N13       1.0  0.28539  0.80451  0.62163  1.0000
  H   H376      1.0  0.08870  0.54836  0.50308  1.0000
  C   C227      1.0  0.28894  0.81609  0.65707  1.0000
  C   C228      1.0  0.29172  0.76593  0.61788  1.0000
  C   C229      1.0  0.26435  0.80584  0.61396  1.0000
  H   H377      1.0  0.99721  0.85331  0.96054  1.0000
  H   H378      1.0  0.30324  0.78924  0.55663  1.0000
  H   H379      1.0  0.03018  0.88506  0.94880  1.0000
  C   C230      1.0  0.29230  0.85692  0.66322  1.0000
  H   H380      1.0  0.06740  0.51444  0.61625  1.0000
  H   H381      1.0  0.05806  0.52056  0.85192  1.0000
  S   S51       1.0  0.04151  0.51100  0.74883  1.0000
  S   S52       1.0  0.32328  0.91098  0.59896  1.0000
  H   H382      1.0  0.25943  0.97252  0.50549  1.0000
  H   H383      1.0  0.29332  0.85580  0.59864  1.0000
  H   H384      1.0  0.27704  0.80643  0.67403  1.0000
  H   H385      1.0  0.30219  0.80326  0.66628  1.0000
  H   H386      1.0  0.23512  0.83396  0.57460  1.0000
  H   H387      1.0  0.16823  0.94315  0.54662  1.0000
  H   H388      1.0  0.00582  0.87156  0.88669  1.0000
  H   H389      1.0  0.25587  0.78870  0.63186  1.0000
  N   N14       1.0  0.09726  0.52847  0.60663  1.0000
  H   H390      1.0  0.25322  0.85200  0.64148  1.0000
  C   C231      1.0  0.23024  0.50713  0.65529  1.0000
  H   H391      1.0  0.16322  0.50940  0.54276  1.0000
  S   S53       1.0  0.05990  0.95877  0.77881  1.0000
  C   C232      1.0  0.07905  0.53032  0.62778  1.0000
  H   H392      1.0  0.30640  0.86549  0.65237  1.0000
  H   H393      1.0  0.28141  0.87407  0.65190  1.0000
  C   C233      1.0  0.01463  0.78550  0.82979  1.0000
  S   S54       1.0  0.01253  0.50726  0.90123  1.0000
  H   H394      1.0  0.06062  0.55308  0.97190  1.0000
  H   H395      1.0  0.07869  0.51290  0.90428  1.0000
  S   S55       1.0  0.32029  0.58675  0.58613  1.0000
  Fe  Fe28      1.0  0.31202  0.56568  0.63719  1.0000
  H   H396      1.0  0.30104  0.58183  0.71955  1.0000
  C   C234      1.0  0.99279  0.83609  0.71907  1.0000
  H   H397      1.0  0.30554  0.69786  0.63241  1.0000
  H   H398      1.0  0.04551  0.59335  0.65564  1.0000
  H   H399      1.0  0.05114  0.55073  0.67435  1.0000
  S   S56       1.0  0.00589  0.92882  0.76443  1.0000
  C   C235      1.0  0.04804  0.55037  0.98929  1.0000
  H   H400      1.0  0.04065  0.55238  0.63356  1.0000
  H   H401      1.0  0.21937  0.95305  0.52005  1.0000
  S   S57       1.0  0.12922  0.49386  0.69919  1.0000
  C   C236      1.0  0.26481  0.96196  0.62694  1.0000
  C   C237      1.0  0.11223  0.55135  0.62319  1.0000
  H   H402      1.0  0.30883  0.83381  0.51211  1.0000
  H   H403      1.0  0.26172  0.79385  0.58916  1.0000
  H   H404      1.0  0.17599  0.64036  0.51135  1.0000
  H   H405      1.0  0.30765  0.76457  0.61711  1.0000
  C   C238      1.0  0.30898  0.84254  0.53851  1.0000
  H   H406      1.0  0.11430  0.54151  0.64916  1.0000
  H   H407      1.0  0.09506  0.57215  0.57107  1.0000
  H   H408      1.0  0.28703  0.75485  0.59367  1.0000
  H   H409      1.0  0.02062  0.91912  0.92169  1.0000
  H   H410      1.0  0.03608  0.56610  0.97904  1.0000
  H   H411      1.0  0.07330  0.58095  0.85606  1.0000
  H   H412      1.0  0.24944  0.96631  0.54701  1.0000
  H   H413      1.0  0.28259  0.69199  0.61325  1.0000
  C   C239      1.0  0.09349  0.54231  0.57187  1.0000
  H   H414      1.0  0.32411  0.84332  0.54651  1.0000
  H   H415      1.0  0.28517  0.68171  0.65684  1.0000
  H   H416      1.0  0.26293  0.86376  0.60045  1.0000
  S   S58       1.0  0.99886  0.51583  0.80850  1.0000
  H   H417      1.0  0.28221  0.81628  0.55104  1.0000
  H   H418      1.0  0.30414  0.84981  0.71253  1.0000
  H   H419      1.0  0.27858  0.85827  0.71269  1.0000
  C   C240      1.0  0.29262  0.86515  0.70044  1.0000
  C   C241      1.0  0.28981  0.70037  0.63633  1.0000
  H   H420      1.0  0.32436  0.58662  0.73734  1.0000
  C   C242      1.0  0.29575  0.50863  0.73702  1.0000
  Fe  Fe29      1.0  0.32426  0.96026  0.63089  1.0000
  H   H421      1.0  0.29129  0.74501  0.66957  1.0000
  H   H422      1.0  0.16073  0.57527  0.61387  1.0000
  H   H423      1.0  0.06400  0.51123  0.81001  1.0000
  C   C243      1.0  0.05083  0.56591  0.65037  1.0000
  C   C244      1.0  0.24471  0.96072  0.62334  1.0000
  N   N15       1.0  0.04716  0.83484  0.74109  1.0000
  C   C245      1.0  0.05394  0.80588  0.71755  1.0000
  C   C246      1.0  0.05486  0.87142  0.72983  1.0000
  C   C247      1.0  0.05523  0.82655  0.77488  1.0000
  C   C248      1.0  0.02561  0.83511  0.74482  1.0000
  C   C249      1.0  0.01436  0.84079  0.71253  1.0000
  C   C250      1.0  0.04735  0.76681  0.72644  1.0000
  C   C251      1.0  0.05179  0.85520  0.80224  1.0000
  C   C252      1.0  0.05764  0.87822  0.69173  1.0000
  C   C253      1.0  0.06252  0.91767  0.68419  1.0000
  H   H424      1.0  0.13102  0.57110  0.58223  1.0000
  C   C254      1.0  0.05420  0.74047  0.69978  1.0000
  C   C255      1.0  0.06223  0.84564  0.83408  1.0000
  H   H425      1.0  0.06992  0.80626  0.71584  1.0000
  H   H426      1.0  0.04925  0.81109  0.69180  1.0000
  H   H427      1.0  0.04563  0.89314  0.74016  1.0000
  H   H428      1.0  0.06930  0.87670  0.74019  1.0000
  H   H429      1.0  0.07100  0.82236  0.77245  1.0000
  H   H430      1.0  0.04894  0.80113  0.78538  1.0000
  H   H431      1.0  0.02023  0.81003  0.75731  1.0000
  H   H432      1.0  0.02102  0.85686  0.76186  1.0000
  C   C256      1.0  0.08225  0.57300  0.83409  1.0000
  H   H433      1.0  0.01672  0.86862  0.70306  1.0000
  H   H434      1.0  0.05332  0.75771  0.75038  1.0000
  H   H435      1.0  0.03149  0.76451  0.72824  1.0000
  H   H436      1.0  0.03632  0.85685  0.80875  1.0000
  H   H437      1.0  0.05696  0.88222  0.79415  1.0000
  H   H438      1.0  0.06975  0.86199  0.68185  1.0000
  H   H439      1.0  0.04475  0.87098  0.67772  1.0000
  H   H440      1.0  0.06416  0.92198  0.65683  1.0000
  H   H441      1.0  0.05096  0.93540  0.69380  1.0000
  H   H442      1.0  0.07622  0.92543  0.69578  1.0000
  H   H443      1.0  0.10744  0.57957  0.62550  1.0000
  H   H444      1.0  0.01855  0.82134  0.69300  1.0000
  H   H445      1.0  0.14865  0.55702  0.65058  1.0000
  H   H446      1.0  0.04947  0.71277  0.70695  1.0000
  H   H447      1.0  0.04802  0.74720  0.67530  1.0000
  H   H448      1.0  0.07010  0.74101  0.69737  1.0000
  H   H449      1.0  0.07797  0.84569  0.82925  1.0000
  H   H450      1.0  0.05898  0.86596  0.85348  1.0000
  H   H451      1.0  0.05754  0.81878  0.84372  1.0000
  C   C257      1.0  0.13209  0.55456  0.60527  1.0000
  H   H452      1.0  0.14189  0.60045  0.63418  1.0000
  H   H453      1.0  0.29554  0.89430  0.70391  1.0000
  H   H454      1.0  0.12138  0.52637  0.54851  1.0000
  C   C258      1.0  0.10389  0.54821  0.51063  1.0000
  S   S59       1.0  0.20796  0.98758  0.62610  1.0000
  H   H455      1.0  0.30789  0.60564  0.49369  1.0000
  C   C259      1.0  0.02578  0.89105  0.92295  1.0000
  S   S60       1.0  0.02030  0.67598  0.82683  1.0000
  H   H456      1.0  0.10912  0.57626  0.51376  1.0000
  Fe  Fe30      1.0  0.99817  0.89575  0.81042  1.0000
  C   C260      1.0  0.09350  0.97391  0.74314  1.0000
  C   C261      1.0  0.29742  0.82719  0.59752  1.0000
  H   H457      1.0  0.18580  0.97899  0.50363  1.0000
  H   H458      1.0  0.09972  0.95424  0.75950  1.0000
  H   H459      1.0  0.01654  0.83755  0.91203  1.0000
  C   C262      1.0  0.07387  0.98186  0.74704  1.0000
  H   H460      1.0  0.22549  0.82170  0.61562  1.0000
  C   C263      1.0  0.10466  0.49821  0.71220  1.0000
  C   C264      1.0  0.26746  0.50016  0.62796  1.0000
  Fe  Fe31      1.0  0.99974  0.96220  0.85656  1.0000
  H   H461      1.0  0.18891  0.91927  0.53125  1.0000
  H   H462      1.0  0.17225  0.55583  0.50002  1.0000
  H   H463      1.0  0.18928  0.94105  0.57155  1.0000
  H   H464      1.0  0.25652  0.49385  0.73776  1.0000
  C   C265      1.0  0.01014  0.86473  0.91229  1.0000
  C   C266      1.0  0.99737  0.79197  0.81399  1.0000
  H   H465      1.0  0.21601  0.50988  0.66622  1.0000
  H   H466      1.0  0.22785  0.86832  0.60349  1.0000
  H   H467      1.0  0.08122  0.51784  0.65273  1.0000
  H   H468      1.0  0.32112  0.52827  0.70792  1.0000
  H   H469      1.0  0.21757  0.98188  0.55500  1.0000
  C   C267      1.0  0.17050  0.66628  0.50178  1.0000
  H   H470      1.0  0.28168  0.49741  0.61712  1.0000
  C   C268      1.0  0.99896  0.98781  0.95078  1.0000
  C   C269      1.0  0.19164  0.97769  0.52888  1.0000
  C   C270      1.0  0.00743  0.50336  0.94536  1.0000
  H   H471      1.0  0.12009  0.98388  0.71521  1.0000
  C   C271      1.0  0.31063  0.57120  0.73886  1.0000
  H   H472      1.0  0.30392  0.57541  0.76391  1.0000
  H   H473      1.0  0.13871  0.94750  0.49292  1.0000
  H   H474      1.0  0.29033  0.51175  0.76323  1.0000
  H   H475      1.0  0.02881  0.98957  0.93609  1.0000
  C   C272      1.0  0.99662  0.52861  0.96320  1.0000
  H   H476      1.0  0.32504  0.52332  0.75200  1.0000
  C   C273      1.0  0.25597  0.98627  0.52926  1.0000
  C   C274      1.0  0.21386  0.97961  0.52822  1.0000
  H   H477      1.0  0.28399  0.97547  0.54927  1.0000
  C   C275      1.0  0.99255  0.86539  0.93659  1.0000
  C   C276      1.0  0.16368  0.53276  0.49313  1.0000
  C   C277      1.0  0.10515  0.99081  0.71806  1.0000
  H   H478      1.0  0.11263  0.53574  0.49036  1.0000
  H   H479      1.0  0.58576  0.15213  0.10625  1.0000
  H   H480      1.0  0.50400  0.07764  0.13031  1.0000
  Fe  Fe32      1.0  0.65528  0.13232  0.30761  1.0000
  C   C278      1.0  0.63198  0.40861  0.18905  1.0000
  H   H481      1.0  0.37229  0.07944  0.16706  1.0000
  Fe  Fe33      1.0  0.64484  0.05319  0.29336  1.0000
  C   C279      1.0  0.34362  0.47335  0.48068  1.0000
  S   S61       1.0  0.63364  0.09320  0.33069  1.0000
  H   H482      1.0  0.60962  0.35954  0.32859  1.0000
  C   C280      1.0  0.60438  0.34129  0.20328  1.0000
  H   H483      1.0  0.43850  0.46636  0.35045  1.0000
  H   H484      1.0  0.39038  0.44686  0.09761  1.0000
  H   H485      1.0  0.41832  0.23460  0.18458  1.0000
  Fe  Fe34      1.0  0.63894  0.46429  0.29069  1.0000
  H   H486      1.0  0.49538  0.44931  0.09378  1.0000
  S   S62       1.0  0.64054  0.41655  0.32599  1.0000
  H   H487      1.0  0.40922  0.20505  0.33045  1.0000
  Fe  Fe35      1.0  0.37018  0.05425  0.30682  1.0000
  S   S63       1.0  0.36978  0.10334  0.33952  1.0000
  S   S64       1.0  0.40046  0.03584  0.29061  1.0000
  Fe  Fe36      1.0  0.34499  0.12180  0.30958  1.0000
  C   C281      1.0  0.36513  0.08826  0.19061  1.0000
  Fe  Fe37      1.0  0.34768  0.07369  0.37139  1.0000
  S   S65       1.0  0.34790  0.07519  0.42797  1.0000
  S   S66       1.0  0.34635  0.07398  0.27514  1.0000
  S   S67       1.0  0.34989  0.02333  0.34159  1.0000
  Fe  Fe38      1.0  0.35445  0.46768  0.35145  1.0000
  Fe  Fe39      1.0  0.35342  0.39056  0.32396  1.0000
  S   S68       1.0  0.33924  0.40822  0.27690  1.0000
  S   S69       1.0  0.36030  0.33387  0.34255  1.0000
  Fe  Fe40      1.0  0.36057  0.45498  0.27667  1.0000
  S   S70       1.0  0.65675  0.07951  0.42029  1.0000
  S   S71       1.0  0.37575  0.43521  0.32181  1.0000
  C   C282      1.0  0.34878  0.22039  0.30068  1.0000
  C   C283      1.0  0.35446  0.22509  0.33356  1.0000
  C   C284      1.0  0.35819  0.25993  0.34567  1.0000
  C   C285      1.0  0.35605  0.29057  0.32533  1.0000
  H   H488      1.0  0.65673  0.28405  0.17330  1.0000
  H   H489      1.0  0.35602  0.20187  0.34964  1.0000
  H   H490      1.0  0.36262  0.26318  0.37113  1.0000
  H   H491      1.0  0.41411  0.44933  0.35089  1.0000
  C   C286      1.0  0.60929  0.04278  0.45911  1.0000
  H   H492      1.0  0.60288  0.13281  0.13383  1.0000
  C   C287      1.0  0.34840  0.03481  0.45152  1.0000
  H   H493      1.0  0.58333  0.08055  0.06210  1.0000
  H   H494      1.0  0.57031  0.02961  0.04050  1.0000
  H   H495      1.0  0.55518  0.09158  0.02128  1.0000
  H   H496      1.0  0.48070  0.40925  0.09897  1.0000
  H   H497      1.0  0.58522  0.34959  0.26666  1.0000
  H   H498      1.0  0.41124  0.44418  0.24961  1.0000
  H   H499      1.0  0.64536  0.16193  0.42355  1.0000
  H   H500      1.0  0.39363  0.24808  0.18791  1.0000
  H   H501      1.0  0.38984  0.17277  0.32869  1.0000
  H   H502      1.0  0.52627  0.04943  0.08925  1.0000
  H   H503      1.0  0.62893  0.35144  0.27641  1.0000
  H   H504      1.0  0.61441  0.31437  0.26409  1.0000
  H   H505      1.0  0.56547  0.11196  0.07270  1.0000
  H   H506      1.0  0.34475  0.45265  0.43043  1.0000
  H   H507      1.0  0.56331  0.03854  0.13263  1.0000
  H   H508      1.0  0.35042  0.09719  0.18502  1.0000
  H   H509      1.0  0.45991  0.44141  0.99971  1.0000
  N   N16       1.0  0.55691  0.05665  0.08254  1.0000
  S   S72       1.0  0.34013  0.48998  0.30638  1.0000
  H   H510      1.0  0.39646  0.45730  0.13990  1.0000
  H   H511      1.0  0.41377  0.47021  0.05003  1.0000
  H   H512      1.0  0.65099  0.34703  0.22901  1.0000
  H   H513      1.0  0.62537  0.39469  0.16780  1.0000
  H   H514      1.0  0.64236  0.34249  0.18791  1.0000
  C   C288      1.0  0.64520  0.26347  0.31384  1.0000
  H   H515      1.0  0.64539  0.32123  0.32019  1.0000
  H   H516      1.0  0.63158  0.25958  0.32695  1.0000
  H   H517      1.0  0.42157  0.18597  0.27499  1.0000
  C   C289      1.0  0.59229  0.04203  0.24079  1.0000
  C   C290      1.0  0.57462  0.03988  0.22424  1.0000
  H   H518      1.0  0.59729  0.06746  0.25039  1.0000
  H   H519      1.0  0.56622  0.06388  0.22138  1.0000
  H   H520      1.0  0.40022  0.21183  0.16058  1.0000
  C   C291      1.0  0.40079  0.48695  0.21895  1.0000
  H   H521      1.0  0.32741  0.35475  0.40356  1.0000
  H   H522      1.0  0.61762  0.20281  0.37912  1.0000
  S   S73       1.0  0.54522  0.00642  0.19061  1.0000
  C   C292      1.0  0.63878  0.33622  0.21453  1.0000
  C   C293      1.0  0.59834  0.36019  0.27830  1.0000
  H   H523      1.0  0.50984  0.12110  0.11198  1.0000
  H   H524      1.0  0.46586  0.07364  0.20042  1.0000
  H   H525      1.0  0.59259  0.07186  0.11960  1.0000
  H   H526      1.0  0.62647  0.15797  0.37234  1.0000
  S   S74       1.0  0.64390  0.19015  0.30545  1.0000
  H   H527      1.0  0.63581  0.45862  0.16119  1.0000
  H   H528      1.0  0.64769  0.40395  0.18762  1.0000
  C   C294      1.0  0.58277  0.09419  0.11386  1.0000
  H   H529      1.0  0.48599  0.43657  0.13459  1.0000
  H   H530      1.0  0.39004  0.00907  0.22417  1.0000
  N   N17       1.0  0.44375  0.48531  0.05531  1.0000
  C   C295      1.0  0.64085  0.18730  0.41149  1.0000
  H   H531      1.0  0.44537  0.45387  0.23225  1.0000
  C   C296      1.0  0.42569  0.46578  0.06749  1.0000
  C   C297      1.0  0.65293  0.29851  0.30986  1.0000
  C   C298      1.0  0.57194  0.08637  0.08122  1.0000
  H   H532      1.0  0.40879  0.42179  0.11841  1.0000
  C   C299      1.0  0.55596  0.03954  0.04852  1.0000
  H   H533      1.0  0.50337  0.47177  0.01659  1.0000
  H   H534      1.0  0.60558  0.12624  0.08949  1.0000
  H   H535      1.0  0.36404  0.06507  0.20814  1.0000
  C   C300      1.0  0.34811  0.47513  0.44627  1.0000
  H   H536      1.0  0.43117  0.07196  0.20552  1.0000
  C   C301      1.0  0.60344  0.01132  0.24489  1.0000
  S   S75       1.0  0.33356  0.42193  0.35760  1.0000
  H   H537      1.0  0.63370  0.40312  0.24251  1.0000
  C   C302      1.0  0.40235  0.44871  0.11524  1.0000
  H   H538      1.0  0.33556  0.30887  0.40295  1.0000
  C   C303      1.0  0.44380  0.48820  0.01764  1.0000
  H   H539      1.0  0.59802  0.31575  0.21354  1.0000
  H   H540      1.0  0.53325  0.09205  0.07228  1.0000
  C   C304      1.0  0.53468  0.08941  0.12524  1.0000
  H   H541      1.0  0.56880  0.46717  0.25215  1.0000
  H   H542      1.0  0.54372  0.11404  0.12630  1.0000
  C   C305      1.0  0.46137  0.46474  0.06459  1.0000
  H   H543      1.0  0.61161  0.16713  0.40852  1.0000
  H   H544      1.0  0.63928  0.28615  0.24424  1.0000
  S   S76       1.0  0.62603  0.01207  0.26542  1.0000
  H   H545      1.0  0.61336  0.45481  0.18418  1.0000
  H   H546      1.0  0.46089  0.43715  0.05422  1.0000
  C   C306      1.0  0.51395  0.10111  0.13114  1.0000
  C   C307      1.0  0.62306  0.17834  0.39159  1.0000
  S   S77       1.0  0.65563  0.44548  0.41435  1.0000
  H   H547      1.0  0.64538  0.29934  0.45601  1.0000
  C   C308      1.0  0.65488  0.23341  0.30095  1.0000
  C   C309      1.0  0.43450  0.47083  0.22190  1.0000
  C   C310      1.0  0.42613  0.45967  0.33469  1.0000
  H   H548      1.0  0.64655  0.27258  0.39942  1.0000
  Fe  Fe41      1.0  0.65731  0.07515  0.36369  1.0000
  H   H549      1.0  0.61401  0.07074  0.45289  1.0000
  H   H550      1.0  0.42859  0.47775  0.12171  1.0000
  H   H551      1.0  0.65732  0.24969  0.20525  1.0000
  H   H552      1.0  0.43046  0.43806  0.31720  1.0000
  H   H553      1.0  0.51241  0.11355  0.15612  1.0000
  C   C311      1.0  0.56127  0.02744  0.10741  1.0000
  H   H554      1.0  0.34856  0.30916  0.27654  1.0000
  H   H555      1.0  0.34232  0.24773  0.25480  1.0000
  S   S78       1.0  0.50071  0.99861  0.13929  1.0000
  H   H556      1.0  0.43895  0.11555  0.19004  1.0000
  C   C312      1.0  0.44522  0.45234  0.99828  1.0000
  H   H557      1.0  0.57296  0.09721  0.13573  1.0000
  H   H558      1.0  0.42097  0.14956  0.30455  1.0000
  C   C313      1.0  0.41749  0.47595  0.10266  1.0000
  C   C314      1.0  0.59497  0.12849  0.11049  1.0000
  C   C315      1.0  0.35507  0.00278  0.43763  1.0000
  C   C316      1.0  0.53729  0.07133  0.09084  1.0000
  H   H559      1.0  0.54872  0.00897  0.11077  1.0000
  N   N18       1.0  0.62033  0.35421  0.22523  1.0000
  C   C317      1.0  0.41511  0.46539  0.23200  1.0000
  H   H560      1.0  0.62626  0.28210  0.20634  1.0000
  H   H561      1.0  0.61956  0.02407  0.44709  1.0000
  H   H562      1.0  0.41524  0.06698  0.44918  1.0000
  C   C318      1.0  0.41363  0.01540  0.25706  1.0000
  H   H563      1.0  0.63653  0.20689  0.43081  1.0000
  H   H564      1.0  0.53826  0.07093  0.14590  1.0000
  H   H565      1.0  0.46660  0.48541  0.11483  1.0000
  C   C319      1.0  0.46480  0.45926  0.10218  1.0000
  S   S79       1.0  0.34391  0.17712  0.28396  1.0000
  H   H566      1.0  0.53308  0.06604  0.02147  1.0000
  H   H567      1.0  0.44024  0.01810  0.28307  1.0000
  H   H568      1.0  0.45284  0.44373  0.11422  1.0000
  C   C320      1.0  0.34673  0.25102  0.28026  1.0000
  H   H569      1.0  0.43480  0.43206  0.00850  1.0000
  H   H570      1.0  0.42795  0.43619  0.06716  1.0000
  C   C321      1.0  0.35023  0.28591  0.29252  1.0000
  C   C322      1.0  0.57883  0.00390  0.09838  1.0000
  C   C323      1.0  0.61634  0.34394  0.26127  1.0000
  H   H571      1.0  0.58392  0.36141  0.32687  1.0000
  H   H572      1.0  0.45904  0.07136  0.24398  1.0000
  H   H573      1.0  0.47441  0.47821  0.05340  1.0000
  C   C324      1.0  0.62367  0.39433  0.22298  1.0000
  C   C325      1.0  0.58775  0.36776  0.19702  1.0000
  H   H574      1.0  0.39290  0.08849  0.46105  1.0000
  C   C326      1.0  0.57115  0.34903  0.17977  1.0000
  H   H575      1.0  0.36773  0.12925  0.22753  1.0000
  H   H576      1.0  0.59857  0.38996  0.27695  1.0000
  H   H577      1.0  0.61036  0.40913  0.22885  1.0000
  H   H578      1.0  0.61015  0.33424  0.17804  1.0000
  H   H579      1.0  0.59278  0.39028  0.18056  1.0000
  H   H580      1.0  0.58198  0.37974  0.22028  1.0000
  C   C327      1.0  0.56767  0.00706  0.21160  1.0000
  H   H581      1.0  0.59491  0.03811  0.44863  1.0000
  H   H582      1.0  0.46736  0.11351  0.22557  1.0000
  H   H583      1.0  0.56493  0.32720  0.19590  1.0000
  H   H584      1.0  0.55974  0.36880  0.17488  1.0000
  H   H585      1.0  0.57609  0.33761  0.15557  1.0000
  C   C328      1.0  0.59693  0.34948  0.31519  1.0000
  H   H586      1.0  0.54636  0.01531  0.04956  1.0000
  H   H587      1.0  0.35955  0.00215  0.41166  1.0000
  H   H588      1.0  0.57052  0.45596  0.46441  1.0000
  H   H589      1.0  0.59594  0.31977  0.31807  1.0000
  C   C329      1.0  0.48284  0.43728  0.10757  1.0000
  H   H590      1.0  0.39130  0.20989  0.29933  1.0000
  N   N19       1.0  0.40885  0.13365  0.23378  1.0000
  C   C330      1.0  0.39929  0.14424  0.26636  1.0000
  C   C331      1.0  0.39629  0.10638  0.21685  1.0000
  C   C332      1.0  0.42738  0.11525  0.24199  1.0000
  C   C333      1.0  0.41327  0.16546  0.21096  1.0000
  C   C334      1.0  0.39956  0.19806  0.21356  1.0000
  C   C335      1.0  0.41188  0.16748  0.28948  1.0000
  C   C336      1.0  0.43835  0.09762  0.21229  1.0000
  C   C337      1.0  0.37637  0.11915  0.20608  1.0000
  H   H591      1.0  0.37792  0.14044  0.18667  1.0000
  C   C338      1.0  0.40323  0.22468  0.18482  1.0000
  C   C339      1.0  0.39977  0.19009  0.31343  1.0000
  C   C340      1.0  0.45890  0.08858  0.22123  1.0000
  H   H592      1.0  0.39486  0.11972  0.28091  1.0000
  H   H593      1.0  0.38564  0.15839  0.26231  1.0000
  H   H594      1.0  0.40338  0.09652  0.19360  1.0000
  H   H595      1.0  0.39408  0.08235  0.23333  1.0000
  H   H596      1.0  0.42471  0.09383  0.26124  1.0000
  H   H597      1.0  0.43751  0.13461  0.25339  1.0000
  H   H598      1.0  0.42787  0.17658  0.21541  1.0000
  H   H599      1.0  0.41385  0.15658  0.18449  1.0000
  H   H600      1.0  0.40184  0.21281  0.23707  1.0000
  H   H601      1.0  0.38426  0.19000  0.21347  1.0000
  H   H602      1.0  0.39265  0.04868  0.43604  1.0000
  C   C341      1.0  0.40000  0.06229  0.45680  1.0000
  C   C342      1.0  0.63901  0.29458  0.21771  1.0000
  C   C343      1.0  0.40514  0.00486  0.22740  1.0000
  C   C344      1.0  0.54895  0.06408  0.01990  1.0000
  S   S80       1.0  0.37599  0.48127  0.23081  1.0000
  H   H603      1.0  0.63529  0.46392  0.20584  1.0000
  H   H604      1.0  0.40458  0.01230  0.48180  1.0000
  C   C345      1.0  0.43345  0.01009  0.26033  1.0000
  C   C346      1.0  0.34287  0.03529  0.48544  1.0000
  S   S81       1.0  0.60852  0.47108  0.26967  1.0000
  C   C347      1.0  0.65689  0.27916  0.20064  1.0000
  H   H605      1.0  0.59094  0.02041  0.08795  1.0000
  C   C348      1.0  0.50874  0.99937  0.99925  1.0000
  H   H606      1.0  0.34004  0.01923  0.19847  1.0000
  H   H607      1.0  0.40806  0.46337  0.47696  1.0000
  C   C349      1.0  0.65722  0.20212  0.38838  1.0000
  C   C350      1.0  0.65559  0.30978  0.43643  1.0000
  C   C351      1.0  0.39904  0.44058  0.48664  1.0000
  H   H608      1.0  0.65708  0.00239  0.40856  1.0000
  H   H609      1.0  0.40874  0.48400  0.29781  1.0000
  H   H610      1.0  0.35814  0.00161  0.24855  1.0000
  H   H611      1.0  0.38666  0.43733  0.47000  1.0000
  C   C352      1.0  0.44465  0.99457  0.23444  1.0000
  S   S82       1.0  0.50478  0.00126  0.04363  1.0000
  H   H612      1.0  0.59104  0.00221  0.14780  1.0000
  H   H613      1.0  0.65126  0.22266  0.37153  1.0000
  C   C353      1.0  0.57542  0.48785  0.23645  1.0000
  H   H614      1.0  0.49496  0.05006  0.99080  1.0000
  C   C354      1.0  0.62891  0.44896  0.18490  1.0000
  H   H615      1.0  0.64892  0.33299  0.42377  1.0000
  C   C355      1.0  0.49954  0.48350  0.99297  1.0000
  C   C356      1.0  0.56838  0.47566  0.48480  1.0000
  Fe  Fe42      1.0  0.32577  0.04647  0.31204  1.0000
  C   C357      1.0  0.34642  0.99214  0.20044  1.0000
  H   H616      1.0  0.36070  0.99258  0.18753  1.0000
  H   H617      1.0  0.40748  0.41548  0.48601  1.0000
  Fe  Fe43      1.0  0.65854  0.45244  0.35800  1.0000
  C   C358      1.0  0.39838  0.03876  0.48819  1.0000
  Fe  Fe44      1.0  0.52711  0.03974  0.76270  1.0000
  H   H618      1.0  0.38230  0.03210  0.58785  1.0000
  H   H619      1.0  0.62967  0.43084  0.52531  1.0000
  Fe  Fe45      1.0  0.50960  0.10524  0.79918  1.0000
  S   S83       1.0  0.48862  0.06948  0.82832  1.0000
  S   S84       1.0  0.50756  0.16569  0.81284  1.0000
  Fe  Fe46      1.0  0.51300  0.03196  0.83662  1.0000
  H   H620      1.0  0.41383  0.09015  0.57383  1.0000
  Fe  Fe47      1.0  0.48352  0.04129  0.77951  1.0000
  C   C359      1.0  0.63594  0.04266  0.59731  1.0000
  S   S85       1.0  0.53470  0.06885  0.81005  1.0000
  S   S86       1.0  0.50338  0.07860  0.75014  1.0000
  Fe  Fe48      1.0  0.49927  0.38840  0.78358  1.0000
  S   S87       1.0  0.47311  0.41484  0.80665  1.0000
  S   S88       1.0  0.50161  0.33043  0.76298  1.0000
  Fe  Fe49      1.0  0.52220  0.46089  0.77963  1.0000
  H   H621      1.0  0.46261  0.25918  0.82088  1.0000
  Fe  Fe50      1.0  0.49403  0.44546  0.83924  1.0000
  S   S89       1.0  0.49300  0.44684  0.89736  1.0000
  Fe  Fe51      1.0  0.47812  0.45961  0.76848  1.0000
  H   H622      1.0  0.33393  0.37075  0.76611  1.0000
  S   S90       1.0  0.51972  0.41613  0.81786  1.0000
  S   S91       1.0  0.50338  0.43179  0.74393  1.0000
  C   C360      1.0  0.59476  0.32915  0.65190  1.0000
  C   C361      1.0  0.41801  0.00553  0.74015  1.0000
  C   C362      1.0  0.40836  0.45156  0.54693  1.0000
  H   H623      1.0  0.55001  0.39470  0.92243  1.0000
  H   H624      1.0  0.60543  0.03981  0.59762  1.0000
  H   H625      1.0  0.61599  0.02804  0.73573  1.0000
  H   H626      1.0  0.41852  0.17721  0.77781  1.0000
  H   H627      1.0  0.42589  0.08738  0.86391  1.0000
  H   H628      1.0  0.34879  0.10725  0.57105  1.0000
  C   C363      1.0  0.55433  0.04892  0.98564  1.0000
  H   H629      1.0  0.61616  0.05703  0.55968  1.0000
  C   C364      1.0  0.54177  0.41674  0.91101  1.0000
  H   H630      1.0  0.56057  0.45826  0.92779  1.0000
  H   H631      1.0  0.41559  0.99377  0.57930  1.0000
  H   H632      1.0  0.41299  0.11313  0.77743  1.0000
  H   H633      1.0  0.44349  0.43234  0.94772  1.0000
  C   C365      1.0  0.38440  0.04222  0.56175  1.0000
  C   C366      1.0  0.43175  0.00959  0.67446  1.0000
  H   H634      1.0  0.38756  0.48415  0.75101  1.0000
  C   C367      1.0  0.50647  0.21137  0.79819  1.0000
  C   C368      1.0  0.50467  0.23924  0.82164  1.0000
  C   C369      1.0  0.50327  0.27567  0.81152  1.0000
  C   C370      1.0  0.50356  0.28493  0.77761  1.0000
  C   C371      1.0  0.50551  0.25709  0.75412  1.0000
  C   C372      1.0  0.50697  0.22067  0.76424  1.0000
  H   H635      1.0  0.50428  0.23259  0.84796  1.0000
  H   H636      1.0  0.50182  0.29653  0.83001  1.0000
  H   H637      1.0  0.50580  0.26373  0.72781  1.0000
  H   H638      1.0  0.50848  0.19981  0.74578  1.0000
  H   H639      1.0  0.59406  0.37061  0.68852  1.0000
  H   H640      1.0  0.37345  0.45336  0.57857  1.0000
  H   H641      1.0  0.46405  0.07662  0.59946  1.0000
  H   H642      1.0  0.44076  0.19447  0.81657  1.0000
  H   H643      1.0  0.50026  0.05016  0.92919  1.0000
  C   C373      1.0  0.34399  0.00406  0.50531  1.0000
  C   C374      1.0  0.47833  0.13521  0.69425  1.0000
  H   H644      1.0  0.64847  0.04114  0.57981  1.0000
  H   H645      1.0  0.39000  0.45645  0.64898  1.0000
  C   C375      1.0  0.46231  0.13094  0.72082  1.0000
  C   C376      1.0  0.60856  0.03736  0.49697  1.0000
  H   H646      1.0  0.46263  0.18661  0.73195  1.0000
  H   H647      1.0  0.56552  0.04982  0.60431  1.0000
  H   H648      1.0  0.44866  0.13212  0.70738  1.0000
  H   H649      1.0  0.32630  0.40406  0.79583  1.0000
  C   C377      1.0  0.41829  0.48495  0.74259  1.0000
  H   H650      1.0  0.38313  0.47293  0.52141  1.0000
  H   H651      1.0  0.64703  0.44715  0.55463  1.0000
  C   C378      1.0  0.49386  0.47609  0.93288  1.0000
  H   H652      1.0  0.45225  0.28732  0.78961  1.0000
  H   H653      1.0  0.44379  0.47514  0.56689  1.0000
  C   C379      1.0  0.37933  0.46277  0.62986  1.0000
  H   H654      1.0  0.54934  0.02060  0.98365  1.0000
  H   H655      1.0  0.59336  0.45791  0.50962  1.0000
  C   C380      1.0  0.44136  0.45797  0.96127  1.0000
  C   C381      1.0  0.45166  0.23040  0.77804  1.0000
  C   C382      1.0  0.36078  0.44331  0.64079  1.0000
  H   H656      1.0  0.58400  0.03723  0.55274  1.0000
  H   H657      1.0  0.44293  0.07342  0.62616  1.0000
  H   H658      1.0  0.34515  0.41466  0.76525  1.0000
  C   C383      1.0  0.60483  0.01659  0.72072  1.0000
  H   H659      1.0  0.38885  0.42095  0.59624  1.0000
  H   H660      1.0  0.55137  0.01400  0.62314  1.0000
  H   H661      1.0  0.63752  0.02254  0.61760  1.0000
  H   H662      1.0  0.36317  0.41396  0.64317  1.0000
  H   H663      1.0  0.42177  0.43677  0.60864  1.0000
  H   H664      1.0  0.37507  0.08918  0.53298  1.0000
  C   C384      1.0  0.43874  0.05693  0.57466  1.0000
  H   H665      1.0  0.58179  0.03896  0.75110  1.0000
  C   C385      1.0  0.41808  0.12591  0.75369  1.0000
  C   C386      1.0  0.41659  0.06093  0.57649  1.0000
  C   C387      1.0  0.50530  0.02800  0.94408  1.0000
  H   H666      1.0  0.34577  0.06098  0.55951  1.0000
  H   H667      1.0  0.43727  0.01090  0.64906  1.0000
  H   H668      1.0  0.40667  0.08507  0.51748  1.0000
  C   C388      1.0  0.55821  0.02376  0.59938  1.0000
  H   H669      1.0  0.41607  0.47860  0.62741  1.0000
  H   H670      1.0  0.42112  0.46899  0.76453  1.0000
  H   H671      1.0  0.58497  0.31002  0.63944  1.0000
  N   N20       1.0  0.40532  0.03959  0.55149  1.0000
  H   H672      1.0  0.62135  0.47275  0.58985  1.0000
  C   C389      1.0  0.50232  0.02785  0.97916  1.0000
  H   H673      1.0  0.34946  0.44806  0.62240  1.0000
  C   C390      1.0  0.42836  0.16245  0.76059  1.0000
  H   H674      1.0  0.35580  0.45361  0.66541  1.0000
  H   H675      1.0  0.43685  0.26058  0.81715  1.0000
  H   H676      1.0  0.46364  0.10410  0.73269  1.0000
  S   S92       1.0  0.45182  0.02734  0.76867  1.0000
  H   H677      1.0  0.46859  0.48485  0.60894  1.0000
  H   H678      1.0  0.47623  0.15992  0.67912  1.0000
  H   H679      1.0  0.39023  0.14952  0.74451  1.0000
  H   H680      1.0  0.42057  0.46526  0.53372  1.0000
  S   S93       1.0  0.51937  0.99829  0.88405  1.0000
  C   C391      1.0  0.40584  0.99633  0.71380  1.0000
  H   H681      1.0  0.55800  0.46397  0.50349  1.0000
  H   H682      1.0  0.42743  0.07147  0.82161  1.0000
  H   H683      1.0  0.41182  0.05331  0.60244  1.0000
  H   H684      1.0  0.45146  0.47838  0.95019  1.0000
  H   H685      1.0  0.62263  0.04616  0.50648  1.0000
  C   C392      1.0  0.37548  0.08015  0.55941  1.0000
  H   H686      1.0  0.53539  0.40665  0.88776  1.0000
  H   H687      1.0  0.44544  0.10943  0.59567  1.0000
  C   C393      1.0  0.46337  0.16138  0.74680  1.0000
  H   H688      1.0  0.60641  0.31395  0.66376  1.0000
  H   H689      1.0  0.44901  0.10290  0.78192  1.0000
  C   C394      1.0  0.35491  0.07997  0.57343  1.0000
  C   C395      1.0  0.44398  0.01849  0.70084  1.0000
  H   H690      1.0  0.42427  0.13855  0.82516  1.0000
  C   C396      1.0  0.45075  0.26115  0.80305  1.0000
  H   H691      1.0  0.39329  0.10471  0.72857  1.0000
  S   S94       1.0  0.54581  0.01533  0.72008  1.0000
  N   N21       1.0  0.40331  0.47002  0.57932  1.0000
  C   C397      1.0  0.40057  0.13109  0.73219  1.0000
  H   H692      1.0  0.57275  0.36658  0.66459  1.0000
  H   H693      1.0  0.35451  0.07214  0.60024  1.0000
  C   C398      1.0  0.38610  0.45037  0.59467  1.0000
  C   C399      1.0  0.58374  0.35117  0.67785  1.0000
  H   H694      1.0  0.59729  0.05525  0.50692  1.0000
  H   H695      1.0  0.50134  0.43322  0.96642  1.0000
  H   H696      1.0  0.38194  0.42559  0.52986  1.0000
  H   H697      1.0  0.37524  0.02462  0.54654  1.0000
  H   H698      1.0  0.42749  0.10629  0.74102  1.0000
  C   C400      1.0  0.41183  0.00095  0.55326  1.0000
  C   C401      1.0  0.61651  0.99749  0.56447  1.0000
  H   H699      1.0  0.44568  0.14106  0.84863  1.0000
  C   C402      1.0  0.45175  0.19328  0.79603  1.0000
  H   H700      1.0  0.46579  0.19109  0.80854  1.0000
  H   H701      1.0  0.40494  0.14214  0.70729  1.0000
  C   C403      1.0  0.60491  0.99731  0.50620  1.0000
  C   C404      1.0  0.63201  0.43774  0.55181  1.0000
  H   H702      1.0  0.47819  0.11164  0.67742  1.0000
  H   H703      1.0  0.47793  0.16108  0.75760  1.0000
  C   C405      1.0  0.43493  0.08743  0.84072  1.0000
  H   H704      1.0  0.49257  0.13696  0.70585  1.0000
  H   H705      1.0  0.60333  0.45517  0.56329  1.0000
  C   C406      1.0  0.41264  0.99807  0.68069  1.0000
  H   H706      1.0  0.46507  0.23443  0.76292  1.0000
  H   H707      1.0  0.38357  0.10030  0.57374  1.0000
  C   C407      1.0  0.39172  0.44813  0.52208  1.0000
  C   C408      1.0  0.45111  0.12797  0.79610  1.0000
  N   N22       1.0  0.44828  0.16074  0.77450  1.0000
  S   S95       1.0  0.50662  0.00115  0.78963  1.0000
  H   H708      1.0  0.46629  0.12688  0.80386  1.0000
  C   C409      1.0  0.61731  0.03601  0.57911  1.0000
  C   C410      1.0  0.43842  0.12607  0.82857  1.0000
  H   H709      1.0  0.44471  0.06509  0.54983  1.0000
  H   H710      1.0  0.38295  0.03516  0.49432  1.0000
  C   C411      1.0  0.43722  0.01639  0.73400  1.0000
  H   H711      1.0  0.42869  0.17870  0.73712  1.0000
  N   N23       1.0  0.56201  0.34490  0.73105  1.0000
  C   C412      1.0  0.55318  0.31672  0.75423  1.0000
  C   C413      1.0  0.54599  0.36473  0.71463  1.0000
  C   C414      1.0  0.57472  0.32650  0.70566  1.0000
  C   C415      1.0  0.57404  0.37160  0.74971  1.0000
  C   C416      1.0  0.56378  0.39060  0.77925  1.0000
  C   C417      1.0  0.56714  0.29659  0.77708  1.0000
  H   H712      1.0  0.53084  0.48414  0.90020  1.0000
  C   C418      1.0  0.53427  0.34286  0.68919  1.0000
  C   C419      1.0  0.51794  0.36508  0.67548  1.0000
  C   C420      1.0  0.57775  0.41442  0.79807  1.0000
  C   C421      1.0  0.55624  0.26971  0.79982  1.0000
  H   H713      1.0  0.54682  0.02795  0.58098  1.0000
  H   H714      1.0  0.54562  0.29571  0.73980  1.0000
  H   H715      1.0  0.54180  0.32858  0.77047  1.0000
  H   H716      1.0  0.53553  0.37443  0.73386  1.0000
  H   H717      1.0  0.55152  0.38954  0.70183  1.0000
  H   H718      1.0  0.56686  0.30393  0.69381  1.0000
  H   H719      1.0  0.58696  0.31364  0.71808  1.0000
  H   H720      1.0  0.58724  0.35876  0.75889  1.0000
  H   H721      1.0  0.57926  0.39360  0.73268  1.0000
  H   H722      1.0  0.55737  0.37113  0.79751  1.0000
  H   H723      1.0  0.55230  0.40805  0.76985  1.0000
  H   H724      1.0  0.57776  0.28128  0.76210  1.0000
  H   H725      1.0  0.57491  0.31545  0.79335  1.0000
  H   H726      1.0  0.60132  0.34743  0.63263  1.0000
  C   C422      1.0  0.57071  0.00815  0.71063  1.0000
  H   H727      1.0  0.54340  0.33464  0.66762  1.0000
  H   H728      1.0  0.52780  0.31834  0.70091  1.0000
  H   H729      1.0  0.50739  0.37135  0.69572  1.0000
  H   H730      1.0  0.52350  0.39055  0.66401  1.0000
  H   H731      1.0  0.51039  0.34947  0.65623  1.0000
  H   H732      1.0  0.56993  0.42762  0.81894  1.0000
  H   H733      1.0  0.58942  0.39813  0.80853  1.0000
  H   H734      1.0  0.58406  0.43563  0.78130  1.0000
  H   H735      1.0  0.54836  0.24960  0.78487  1.0000
  H   H736      1.0  0.56645  0.25517  0.81567  1.0000
  H   H737      1.0  0.54584  0.28384  0.81639  1.0000
  H   H738      1.0  0.45711  0.44141  0.61406  1.0000
  H   H739      1.0  0.44866  0.07428  0.84627  1.0000
  C   C423      1.0  0.44830  0.08060  0.60061  1.0000
  H   H740      1.0  0.53008  0.42424  0.92877  1.0000
  C   C424      1.0  0.60997  0.99573  0.69278  1.0000
  H   H741      1.0  0.41348  0.42382  0.55194  1.0000
  H   H742      1.0  0.43928  0.23275  0.76142  1.0000
  C   C425      1.0  0.40937  0.05564  0.51731  1.0000
  C   C426      1.0  0.55499  0.44903  0.90365  1.0000
  H   H743      1.0  0.33680  0.44937  0.49113  1.0000
  H   H744      1.0  0.33939  0.00455  0.53121  1.0000
  C   C427      1.0  0.61807  0.46660  0.56355  1.0000
  C   C428      1.0  0.58173  0.00771  0.55231  1.0000
  H   H745      1.0  0.42518  0.99754  0.53787  1.0000
  H   H746      1.0  0.58376  0.99297  0.60554  1.0000
  C   C429      1.0  0.58540  0.02278  0.72960  1.0000
  H   H747      1.0  0.62981  0.41308  0.56729  1.0000
  H   H748      1.0  0.63582  0.06980  0.60861  1.0000
  C   C430      1.0  0.57266  0.99623  0.58658  1.0000
  H   H749      1.0  0.41252  0.00401  0.76561  1.0000
  H   H750      1.0  0.54744  0.06491  0.96585  1.0000
  H   H751      1.0  0.56708  0.43926  0.88782  1.0000
  C   C431      1.0  0.33135  0.39989  0.76966  1.0000
  C   C432      1.0  0.41959  0.46585  0.60309  1.0000
  C   C433      1.0  0.43919  0.48280  0.59243  1.0000
  C   C434      1.0  0.49847  0.46164  0.96427  1.0000
  H   H752      1.0  0.42479  0.05328  0.51026  1.0000
  C   C435      1.0  0.51484  0.99962  0.92835  1.0000
  C   C436      1.0  0.54427  0.47961  0.88568  1.0000
  H   H753      1.0  0.44298  0.02880  0.57975  1.0000
  H   H754      1.0  0.57010  0.05011  0.98127  1.0000
  H   H755      1.0  0.45110  0.47753  0.64214  1.0000
  H   H756      1.0  0.42642  0.46687  0.95776  1.0000
  H   H757      1.0  0.45866  0.02682  0.69555  1.0000
  H   H758      1.0  0.53946  0.46893  0.86136  1.0000
  C   C437      1.0  0.45489  0.47086  0.61585  1.0000
  H   H759      1.0  0.57060  0.00332  0.53329  1.0000
  H   H760      1.0  0.58316  0.48878  0.87362  1.0000
  H   H761      1.0  0.58423  0.45761  0.66533  1.0000
  H   H762      1.0  0.63040  0.99260  0.55101  1.0000
  H   H763      1.0  0.32686  0.46630  0.74254  1.0000
  H   H764      1.0  0.33763  0.05991  0.49631  1.0000
  H   H765      1.0  0.56895  0.48831  0.83737  1.0000
  C   C438      1.0  0.58756  0.48382  0.50081  1.0000
  C   C439      1.0  0.56913  0.47265  0.71081  1.0000
  H   H766      1.0  0.55792  0.45265  0.70844  1.0000
  C   C440      1.0  0.58409  0.47563  0.68635  1.0000
  S   S96       1.0  0.45824  0.48741  0.73069  1.0000
  H   H767      1.0  0.60128  0.64563  0.24803  1.0000
  Fe  Fe52      1.0  0.52489  0.96813  0.16251  1.0000
  S   S97       1.0  0.50490  0.92388  0.18266  1.0000
  H   H768      1.0  0.41404  0.62319  0.42124  1.0000
  H   H769      1.0  0.57400  0.96637  0.13987  1.0000
  S   S98       1.0  0.48558  0.92362  0.10824  1.0000
  H   H770      1.0  0.53163  0.89635  0.05248  1.0000
  Fe  Fe53      1.0  0.48118  0.95352  0.15676  1.0000
  H   H771      1.0  0.40705  0.95489  0.32582  1.0000
  Fe  Fe54      1.0  0.51039  0.89673  0.13286  1.0000
  S   S99       1.0  0.51908  0.83845  0.12005  1.0000
  S   S100      1.0  0.53174  0.93954  0.11428  1.0000
  Fe  Fe55      1.0  0.52755  0.55936  0.14477  1.0000
  H   H772      1.0  0.41398  0.57930  0.25077  1.0000
  S   S101      1.0  0.55903  0.55720  0.16184  1.0000
  Fe  Fe56      1.0  0.49729  0.61837  0.13543  1.0000
  S   S102      1.0  0.47589  0.57905  0.11440  1.0000
  S   S103      1.0  0.48875  0.67659  0.14828  1.0000
  Fe  Fe57      1.0  0.48442  0.54061  0.15471  1.0000
  H   H773      1.0  0.42513  0.53807  0.26094  1.0000
  Fe  Fe58      1.0  0.50059  0.55649  0.08363  1.0000
  S   S104      1.0  0.49614  0.54944  0.02665  1.0000
  S   S105      1.0  0.50414  0.58117  0.17816  1.0000
  S   S106      1.0  0.52139  0.59839  0.10258  1.0000
  Fe  Fe59      1.0  0.50648  0.96741  0.09221  1.0000
  H   H774      1.0  0.55231  0.75818  0.16332  1.0000
  H   H775      1.0  0.57385  0.67539  0.08818  1.0000
  H   H776      1.0  0.56385  0.63081  0.08344  1.0000
  H   H777      1.0  0.53453  0.67747  0.25085  1.0000
  H   H778      1.0  0.45595  0.50576  0.00846  1.0000
  H   H779      1.0  0.53510  0.80367  0.19538  1.0000
  C   C441      1.0  0.41630  0.98891  0.20169  1.0000
  C   C442      1.0  0.35728  0.50570  0.43265  1.0000
  H   H780      1.0  0.58650  0.62648  0.28133  1.0000
  H   H781      1.0  0.38811  0.60307  0.27962  1.0000
  H   H782      1.0  0.54809  0.66837  0.08892  1.0000
  H   H783      1.0  0.60492  0.95456  0.23496  1.0000
  H   H784      1.0  0.58768  0.60459  0.24150  1.0000
  C   C443      1.0  0.36675  0.57103  0.25570  1.0000
  C   C444      1.0  0.54554  0.74970  0.18757  1.0000
  H   H785      1.0  0.47758  0.79093  0.03574  1.0000
  H   H786      1.0  0.44612  0.57661  0.22523  1.0000
  C   C445      1.0  0.33150  0.90679  0.32160  1.0000
  H   H787      1.0  0.44187  0.59843  0.07704  1.0000
  C   C446      1.0  0.51045  0.79368  0.12861  1.0000
  C   C447      1.0  0.51890  0.76476  0.11139  1.0000
  C   C448      1.0  0.51254  0.72887  0.11700  1.0000
  C   C449      1.0  0.49764  0.72127  0.14013  1.0000
  C   C450      1.0  0.48926  0.75017  0.15745  1.0000
  C   C451      1.0  0.49558  0.78606  0.15178  1.0000
  H   H788      1.0  0.53042  0.77018  0.09340  1.0000
  H   H789      1.0  0.51903  0.70714  0.10321  1.0000
  H   H790      1.0  0.47771  0.74479  0.17538  1.0000
  H   H791      1.0  0.48892  0.80781  0.16533  1.0000
  H   H792      1.0  0.38475  0.82897  0.28264  1.0000
  H   H793      1.0  0.59777  0.96547  0.12118  1.0000
  H   H794      1.0  0.39765  0.83286  0.24325  1.0000
  C   C452      1.0  0.35640  0.97167  0.45763  1.0000
  C   C453      1.0  0.41277  0.52260  0.33822  1.0000
  C   C454      1.0  0.40621  0.51367  0.19525  1.0000
  C   C455      1.0  0.36171  0.53454  0.45365  1.0000
  C   C456      1.0  0.42540  0.56721  0.26579  1.0000
  H   H795      1.0  0.54387  0.55190  0.99162  1.0000
  H   H796      1.0  0.33680  0.97284  0.18782  1.0000
  H   H797      1.0  0.57378  0.95086  0.20626  1.0000
  H   H798      1.0  0.63251  0.60496  0.48661  1.0000
  C   C457      1.0  0.37827  0.58036  0.28636  1.0000
  H   H799      1.0  0.57069  0.67881  0.25678  1.0000
  H   H800      1.0  0.50057  0.66151  0.25922  1.0000
  H   H801      1.0  0.53099  0.73919  0.18252  1.0000
  H   H802      1.0  0.49830  0.65243  0.21554  1.0000
  H   H803      1.0  0.35659  0.54848  0.26135  1.0000
  C   C458      1.0  0.61899  0.59637  0.47489  1.0000
  H   H804      1.0  0.46984  0.97017  0.99818  1.0000
  H   H805      1.0  0.36182  0.87634  0.29895  1.0000
  H   H806      1.0  0.51339  0.62454  0.24090  1.0000
  C   C459      1.0  0.47762  0.91493  0.00827  1.0000
  C   C460      1.0  0.40414  0.61850  0.40044  1.0000
  H   H807      1.0  0.44553  0.61174  0.25589  1.0000
  H   H808      1.0  0.42952  0.54005  0.16723  1.0000
  C   C461      1.0  0.56416  0.50622  0.21303  1.0000
  H   H809      1.0  0.42632  0.59768  0.36793  1.0000
  C   C462      1.0  0.57880  0.97635  0.21569  1.0000
  H   H810      1.0  0.37019  0.94313  0.22816  1.0000
  S   S107      1.0  0.46482  0.50306  0.18709  1.0000
  H   H811      1.0  0.62303  0.53985  0.48193  1.0000
  H   H812      1.0  0.62179  0.59428  0.44759  1.0000
  H   H813      1.0  0.45548  0.81343  0.03012  1.0000
  C   C463      1.0  0.53491  0.87355  0.03571  1.0000
  H   H814      1.0  0.45666  0.56907  0.26503  1.0000
  H   H815      1.0  0.59868  0.56176  0.17988  1.0000
  C   C464      1.0  0.61210  0.55992  0.48881  1.0000
  C   C465      1.0  0.39428  0.95777  0.34267  1.0000
  H   H816      1.0  0.52379  0.94940  0.99854  1.0000
  S   S108      1.0  0.36369  0.50882  0.38974  1.0000
  H   H817      1.0  0.39388  0.60697  0.33878  1.0000
  H   H818      1.0  0.61832  0.52965  0.22130  1.0000
  H   H819      1.0  0.40279  0.64406  0.38623  1.0000
  C   C466      1.0  0.41202  0.58891  0.37791  1.0000
  C   C467      1.0  0.57239  0.53306  0.19232  1.0000
  H   H820      1.0  0.53582  0.77675  0.23285  1.0000
  H   H821      1.0  0.57597  0.63769  0.13960  1.0000
  H   H822      1.0  0.38988  0.61044  0.41123  1.0000
  C   C468      1.0  0.56217  0.65074  0.13404  1.0000
  H   H823      1.0  0.57316  0.73043  0.20228  1.0000
  S   S109      1.0  0.50844  0.51618  0.12338  1.0000
  H   H824      1.0  0.38488  0.56855  0.36088  1.0000
  C   C469      1.0  0.37703  0.93730  0.32929  1.0000
  H   H825      1.0  0.36472  0.94316  0.34630  1.0000
  H   H826      1.0  0.42492  0.52855  0.35475  1.0000
  C   C470      1.0  0.38392  0.83896  0.25655  1.0000
  H   H827      1.0  0.55782  0.79511  0.21409  1.0000
  C   C471      1.0  0.46944  0.88092  0.02622  1.0000
  H   H828      1.0  0.38078  0.88803  0.22932  1.0000
  C   C472      1.0  0.39818  0.58057  0.34925  1.0000
  C   C473      1.0  0.54351  0.78329  0.20894  1.0000
  H   H829      1.0  0.34287  0.90209  0.33972  1.0000
  C   C474      1.0  0.56198  0.65690  0.09633  1.0000
  H   H830      1.0  0.33545  0.57161  0.34054  1.0000
  H   H831      1.0  0.45441  0.87647  0.01856  1.0000
  N   N24       1.0  0.35703  0.92858  0.27618  1.0000
  H   H832      1.0  0.39304  0.89246  0.26815  1.0000
  H   H833      1.0  0.34643  0.92515  0.22609  1.0000
  H   H834      1.0  0.38036  0.90830  0.33055  1.0000
  C   C475      1.0  0.38937  0.54752  0.29970  1.0000
  H   H835      1.0  0.54706  0.88168  0.01875  1.0000
  C   C476      1.0  0.51743  0.86400  0.01532  1.0000
  C   C477      1.0  0.42564  0.51924  0.18524  1.0000
  H   H836      1.0  0.51968  0.70508  0.22607  1.0000
  H   H837      1.0  0.39411  0.53116  0.27814  1.0000
  H   H838      1.0  0.53740  0.63676  0.19577  1.0000
  C   C478      1.0  0.50840  0.65236  0.23645  1.0000
  H   H839      1.0  0.41562  0.53637  0.05501  1.0000
  H   H840      1.0  0.58596  0.67085  0.19777  1.0000
  C   C479      1.0  0.58757  0.63119  0.25396  1.0000
  C   C480      1.0  0.38070  0.87952  0.25589  1.0000
  H   H841      1.0  0.39530  0.53033  0.18466  1.0000
  H   H842      1.0  0.41668  0.60005  0.06907  1.0000
  H   H843      1.0  0.57479  0.98382  0.07934  1.0000
  C   C481      1.0  0.42222  0.57602  0.30338  1.0000
  H   H844      1.0  0.39775  0.94708  0.36769  1.0000
  C   C482      1.0  0.37260  0.94939  0.29332  1.0000
  H   H845      1.0  0.45952  0.53504  0.06125  1.0000
  H   H846      1.0  0.37214  0.82459  0.24391  1.0000
  H   H847      1.0  0.37649  0.56332  0.23469  1.0000
  C   C483      1.0  0.35708  0.53287  0.48804  1.0000
  C   C484      1.0  0.36149  0.88906  0.27390  1.0000
  H   H848      1.0  0.57371  0.70237  0.14806  1.0000
  H   H849      1.0  0.54864  0.70174  0.14106  1.0000
  N   N25       1.0  0.48090  0.84708  0.02217  1.0000
  H   H850      1.0  0.55030  0.63203  0.14124  1.0000
  C   C485      1.0  0.50030  0.85109  0.03808  1.0000
  C   C486      1.0  0.47009  0.81687  0.04008  1.0000
  H   H851      1.0  0.32609  0.57741  0.47582  1.0000
  C   C487      1.0  0.59205  0.54117  0.19567  1.0000
  H   H852      1.0  0.57074  0.63233  0.19385  1.0000
  C   C488      1.0  0.46696  0.82130  0.07833  1.0000
  H   H853      1.0  0.60797  0.61718  0.47939  1.0000
  C   C489      1.0  0.35584  0.94302  0.24094  1.0000
  H   H854      1.0  0.52687  0.67333  0.17547  1.0000
  C   C490      1.0  0.45891  0.78667  0.09433  1.0000
  C   C491      1.0  0.57051  0.65325  0.24281  1.0000
  H   H855      1.0  0.36803  0.58980  0.30601  1.0000
  H   H856      1.0  0.49933  0.86948  0.05979  1.0000
  H   H857      1.0  0.50500  0.82494  0.04877  1.0000
  S   S110      1.0  0.44934  0.96272  0.17162  1.0000
  H   H858      1.0  0.40110  0.51068  0.35450  1.0000
  H   H859      1.0  0.44975  0.93936  0.00063  1.0000
  H   H860      1.0  0.46813  0.88820  0.05295  1.0000
  H   H861      1.0  0.35842  0.59471  0.24781  1.0000
  H   H862      1.0  0.42478  0.57473  0.10438  1.0000
  H   H863      1.0  0.55742  0.63740  0.24980  1.0000
  H   H864      1.0  0.43594  0.57127  0.31618  1.0000
  H   H865      1.0  0.45651  0.84287  0.08370  1.0000
  H   H866      1.0  0.48044  0.82819  0.09089  1.0000
  C   C492      1.0  0.44461  0.58219  0.25234  1.0000
  H   H867      1.0  0.43395  0.55896  0.03041  1.0000
  H   H868      1.0  0.55465  0.72092  0.23163  1.0000
  H   H869      1.0  0.36178  0.94713  0.44680  1.0000
  C   C493      1.0  0.42827  0.58261  0.07812  1.0000
  H   H870      1.0  0.38617  0.94943  0.27812  1.0000
  H   H871      1.0  0.42032  0.60570  0.30428  1.0000
  H   H872      1.0  0.36880  0.55829  0.44331  1.0000
  H   H873      1.0  0.46929  0.76445  0.09122  1.0000
  H   H874      1.0  0.45631  0.79084  0.12146  1.0000
  H   H875      1.0  0.44512  0.77884  0.08306  1.0000
  N   N26       1.0  0.55621  0.68338  0.19033  1.0000
  C   C494      1.0  0.55799  0.72074  0.20449  1.0000
  C   C495      1.0  0.57146  0.65978  0.20467  1.0000
  C   C496      1.0  0.56025  0.68657  0.15317  1.0000
  C   C497      1.0  0.53650  0.66666  0.19627  1.0000
  C   C498      1.0  0.52541  0.67755  0.22876  1.0000
  H   H876      1.0  0.37873  0.52991  0.31343  1.0000
  H   H877      1.0  0.49113  0.92345  0.01999  1.0000
  C   C499      1.0  0.59651  0.97855  0.23206  1.0000
  N   N27       1.0  0.40588  0.55662  0.32184  1.0000
  C   C500      1.0  0.43616  0.98368  0.20491  1.0000
  H   H878      1.0  0.34973  0.87479  0.26088  1.0000
  H   H879      1.0  0.40953  0.98068  0.17898  1.0000
  H   H880      1.0  0.54912  0.49951  0.21095  1.0000
  C   C501      1.0  0.42994  0.54948  0.05604  1.0000
  H   H881      1.0  0.53932  0.85011  0.05092  1.0000
  C   C502      1.0  0.59507  0.49597  0.23982  1.0000
  H   H882      1.0  0.45985  0.99070  0.23749  1.0000
  C   C503      1.0  0.60329  0.52293  0.21922  1.0000
  C   C504      1.0  0.33772  0.93385  0.29354  1.0000
  H   H883      1.0  0.39096  0.98673  0.34534  1.0000
  C   C505      1.0  0.44531  0.52304  0.06855  1.0000
  H   H884      1.0  0.33389  0.98499  0.24913  1.0000
  H   H885      1.0  0.41371  0.56470  0.39391  1.0000
  H   H886      1.0  0.33687  0.96146  0.30387  1.0000
  H   H887      1.0  0.44504  0.52318  0.09621  1.0000
  H   H888      1.0  0.59855  0.55332  0.47624  1.0000
  S   S111      1.0  0.65539  0.50119  0.32485  1.0000
  H   H889      1.0  0.52164  0.84220  0.99793  1.0000
  H   H890      1.0  0.59754  0.49416  0.48103  1.0000
  C   C506      1.0  0.46375  0.94624  0.01162  1.0000
  H   H891      1.0  0.36888  0.97822  0.29485  1.0000
  C   C507      1.0  0.42009  0.49271  0.31481  1.0000
  H   H892      1.0  0.46152  0.95344  0.03827  1.0000
  H   H893      1.0  0.32770  0.88047  0.31046  1.0000
  H   H894      1.0  0.56237  0.50053  0.47397  1.0000
  C   C508      1.0  0.34826  0.98193  0.23720  1.0000
  C   C509      1.0  0.58579  0.98326  0.12871  1.0000
  C   C510      1.0  0.49569  0.52033  0.99102  1.0000
  C   C511      1.0  0.43997  0.49781  0.19856  1.0000
  H   H895      1.0  0.43294  0.50202  0.30028  1.0000
  H   H896      1.0  0.51388  0.88789  0.00026  1.0000
  H   H897      1.0  0.41054  0.50257  0.10177  1.0000
  H   H898      1.0  0.32594  0.93214  0.27533  1.0000
  H   H899      1.0  0.43055  0.50150  0.00929  1.0000
  H   H900      1.0  0.65815  0.52378  0.40735  1.0000
  H   H901      1.0  0.59342  0.98675  0.48996  1.0000
  C   C512      1.0  0.65004  0.74627  0.62227  1.0000
  S   S112      1.0  0.64267  0.91847  0.60696  1.0000
  H   H902      1.0  0.51483  0.51666  0.86186  1.0000
  H   H903      1.0  0.37669  0.49212  0.62996  1.0000
  H   H904      1.0  0.58393  0.86148  0.64626  1.0000
  C   C513      1.0  0.40916  0.52998  0.54577  1.0000
  H   H905      1.0  0.41524  0.81219  0.63091  1.0000
  C   C514      1.0  0.59884  0.50173  0.68875  1.0000
  C   C515      1.0  0.51831  0.97103  0.98358  1.0000
  H   H906      1.0  0.41831  0.79410  0.67224  1.0000
  C   C516      1.0  0.49083  0.53468  0.95973  1.0000
  H   H907      1.0  0.60426  0.84512  0.62243  1.0000
  H   H908      1.0  0.59298  0.94031  0.57105  1.0000
  H   H909      1.0  0.56470  0.97548  0.66796  1.0000
  H   H910      1.0  0.61831  0.98359  0.49811  1.0000
  Fe  Fe60      1.0  0.64460  0.53765  0.64233  1.0000
  H   H911      1.0  0.63326  0.51568  0.55003  1.0000
  S   S113      1.0  0.64436  0.58923  0.61187  1.0000
  Fe  Fe61      1.0  0.34466  0.88781  0.63420  1.0000
  Fe  Fe62      1.0  0.36886  0.95837  0.63662  1.0000
  S   S114      1.0  0.37035  0.90854  0.60499  1.0000
  H   H912      1.0  0.59207  0.56910  0.64128  1.0000
  H   H913      1.0  0.47804  0.79885  0.92710  1.0000
  C   C517      1.0  0.64956  0.89694  0.75580  1.0000
  Fe  Fe63      1.0  0.34905  0.93552  0.57227  1.0000
  H   H914      1.0  0.38518  0.92542  0.75910  1.0000
  Fe  Fe64      1.0  0.34146  0.54177  0.58395  1.0000
  H   H915      1.0  0.58999  0.59045  0.58289  1.0000
  H   H916      1.0  0.59386  0.87518  0.52994  1.0000
  Fe  Fe65      1.0  0.34345  0.61818  0.61202  1.0000
  S   S115      1.0  0.33399  0.59964  0.66351  1.0000
  S   S116      1.0  0.34921  0.67580  0.59264  1.0000
  Fe  Fe66      1.0  0.35452  0.55337  0.65604  1.0000
  C   C518      1.0  0.59961  0.53439  0.58093  1.0000
  S   S117      1.0  0.36549  0.57404  0.60604  1.0000
  C   C519      1.0  0.40770  0.80467  0.65468  1.0000
  H   H917      1.0  0.61251  0.94245  0.74230  1.0000
  H   H918      1.0  0.40467  0.51999  0.52116  1.0000
  Fe  Fe67      1.0  0.65347  0.95519  0.64656  1.0000
  C   C520      1.0  0.34674  0.71883  0.61151  1.0000
  C   C521      1.0  0.34863  0.74992  0.59131  1.0000
  C   C522      1.0  0.34730  0.78464  0.60510  1.0000
  H   H919      1.0  0.35131  0.74709  0.56478  1.0000
  H   H920      1.0  0.34902  0.80816  0.58921  1.0000
  C   C523      1.0  0.54648  0.53816  0.93927  1.0000
  H   H921      1.0  0.33967  0.76050  0.68623  1.0000
  S   S118      1.0  0.35352  0.93302  0.51622  1.0000
  H   H922      1.0  0.38723  0.84794  0.65016  1.0000
  H   H923      1.0  0.58244  0.94173  0.53109  1.0000
  H   H924      1.0  0.38924  0.57443  0.54270  1.0000
  C   C524      1.0  0.58433  0.56314  0.58926  1.0000
  S   S119      1.0  0.34888  0.98623  0.60174  1.0000
  H   H925      1.0  0.59699  0.58144  0.53033  1.0000
  H   H926      1.0  0.41172  0.89338  0.63525  1.0000
  H   H927      1.0  0.64753  0.68816  0.62104  1.0000
  C   C525      1.0  0.34209  0.75772  0.65963  1.0000
  N   N28       1.0  0.60314  0.52641  0.54439  1.0000
  H   H928      1.0  0.59894  0.96493  0.65235  1.0000
  S   S120      1.0  0.65148  0.82029  0.62510  1.0000
  H   H929      1.0  0.48578  0.52442  0.90747  1.0000
  H   H930      1.0  0.48030  0.91045  0.98129  1.0000
  H   H931      1.0  0.61082  0.54764  0.81420  1.0000
  S   S121      1.0  0.61733  0.50402  0.65686  1.0000
  H   H932      1.0  0.56560  0.56849  0.97121  1.0000
  H   H933      1.0  0.64320  0.95328  0.76711  1.0000
  C   C526      1.0  0.46464  0.83095  0.96640  1.0000
  H   H934      1.0  0.58317  0.54015  0.76132  1.0000
  H   H935      1.0  0.51907  0.54704  0.89509  1.0000
  H   H936      1.0  0.57318  0.51342  0.92335  1.0000
  C   C527      1.0  0.57308  0.50514  0.85897  1.0000
  H   H937      1.0  0.60249  0.89245  0.63114  1.0000
  H   H938      1.0  0.38696  0.82589  0.68950  1.0000
  H   H939      1.0  0.38440  0.78222  0.62641  1.0000
  H   H940      1.0  0.44117  0.52819  0.67801  1.0000
  H   H941      1.0  0.58045  0.88993  0.76722  1.0000
  C   C528      1.0  0.57915  0.56320  0.62654  1.0000
  H   H942      1.0  0.40225  0.75031  0.63758  1.0000
  C   C529      1.0  0.60828  0.91603  0.75374  1.0000
  C   C530      1.0  0.40474  0.57007  0.54661  1.0000
  H   H943      1.0  0.38567  0.96901  0.56271  1.0000
  H   H944      1.0  0.38526  0.76540  0.66886  1.0000
  H   H945      1.0  0.62151  0.57342  0.53845  1.0000
  C   C531      1.0  0.39504  0.51453  0.70645  1.0000
  H   H946      1.0  0.40758  0.54291  0.66419  1.0000
  H   H947      1.0  0.64307  0.87168  0.70934  1.0000
  C   C532      1.0  0.39678  0.83725  0.66969  1.0000
  H   H948      1.0  0.36065  0.55512  0.50401  1.0000
  H   H949      1.0  0.64276  0.88540  0.77885  1.0000
  H   H950      1.0  0.45610  0.94898  0.63866  1.0000
  C   C533      1.0  0.51264  0.57232  0.84878  1.0000
  H   H951      1.0  0.45186  0.90833  0.61563  1.0000
  H   H952      1.0  0.56839  0.58424  0.63190  1.0000
  C   C534      1.0  0.39920  0.49359  0.73478  1.0000
  C   C535      1.0  0.34422  0.78875  0.63947  1.0000
  N   N29       1.0  0.40910  0.86715  0.68348  1.0000
  C   C536      1.0  0.39587  0.89611  0.69612  1.0000
  C   C537      1.0  0.42118  0.88237  0.65479  1.0000
  H   H953      1.0  0.57101  0.55823  0.57543  1.0000
  C   C538      1.0  0.42145  0.85195  0.71049  1.0000
  C   C539      1.0  0.42767  0.87801  0.73850  1.0000
  C   C540      1.0  0.38034  0.88360  0.72230  1.0000
  H   H954      1.0  0.58660  0.93338  0.81238  1.0000
  C   C541      1.0  0.43617  0.91161  0.66333  1.0000
  C   C542      1.0  0.44501  0.92892  0.63173  1.0000
  C   C543      1.0  0.44275  0.86097  0.76035  1.0000
  C   C544      1.0  0.37335  0.91471  0.74390  1.0000
  S   S122      1.0  0.34420  0.93601  0.66840  1.0000
  H   H955      1.0  0.38814  0.90847  0.67503  1.0000
  H   H956      1.0  0.40406  0.91884  0.70667  1.0000
  H   H957      1.0  0.42974  0.86111  0.64253  1.0000
  C   C545      1.0  0.59574  0.94859  0.54460  1.0000
  H   H958      1.0  0.48762  0.56298  0.95772  1.0000
  C   C546      1.0  0.60852  0.56144  0.52701  1.0000
  H   H959      1.0  0.41393  0.82907  0.72360  1.0000
  H   H960      1.0  0.43465  0.84016  0.69908  1.0000
  H   H961      1.0  0.41524  0.88464  0.75501  1.0000
  H   H962      1.0  0.43371  0.90369  0.72866  1.0000
  H   H963      1.0  0.36779  0.87230  0.70926  1.0000
  H   H964      1.0  0.38568  0.86231  0.73904  1.0000
  H   H965      1.0  0.61933  0.86742  0.52967  1.0000
  H   H966      1.0  0.60524  0.77561  0.74411  1.0000
  H   H967      1.0  0.42981  0.93328  0.67840  1.0000
  H   H968      1.0  0.44800  0.89944  0.67735  1.0000
  H   H969      1.0  0.43385  0.94303  0.61754  1.0000
  H   H970      1.0  0.61501  0.91550  0.77855  1.0000
  C   C547      1.0  0.34333  0.72299  0.64580  1.0000
  H   H971      1.0  0.44657  0.87983  0.78055  1.0000
  H   H972      1.0  0.43714  0.83560  0.77195  1.0000
  H   H973      1.0  0.45596  0.85531  0.74536  1.0000
  H   H974      1.0  0.53617  0.51557  0.94313  1.0000
  H   H975      1.0  0.62571  0.93133  0.54134  1.0000
  H   H976      1.0  0.36156  0.90515  0.76100  1.0000
  H   H977      1.0  0.53861  0.56278  0.93258  1.0000
  H   H978      1.0  0.61567  0.78499  0.78411  1.0000
  C   C548      1.0  0.59530  0.98116  0.67376  1.0000
  H   H979      1.0  0.61292  0.92536  0.50334  1.0000
  C   C549      1.0  0.58626  0.91693  0.76026  1.0000
  S   S123      1.0  0.37052  0.52494  0.69836  1.0000
  H   H980      1.0  0.57902  0.92653  0.73756  1.0000
  N   N30       1.0  0.55547  0.51419  0.87987  1.0000
  H   H981      1.0  0.58688  0.97023  0.78261  1.0000
  C   C550      1.0  0.54381  0.54048  0.86009  1.0000
  H   H982      1.0  0.56514  0.94482  0.79081  1.0000
  C   C551      1.0  0.56207  0.53051  0.91205  1.0000
  C   C552      1.0  0.58494  0.53742  0.84426  1.0000
  H   H983      1.0  0.49188  0.85699  0.97164  1.0000
  C   C553      1.0  0.59958  0.86503  0.64137  1.0000
  C   C554      1.0  0.60312  0.52444  0.82622  1.0000
  H   H984      1.0  0.49167  0.81130  0.98418  1.0000
  H   H985      1.0  0.54993  0.56816  0.86206  1.0000
  H   H986      1.0  0.54463  0.53368  0.83304  1.0000
  H   H987      1.0  0.59949  0.50484  0.80652  1.0000
  H   H988      1.0  0.45566  0.81895  0.91624  1.0000
  H   H989      1.0  0.56944  0.55672  0.90706  1.0000
  C   C555      1.0  0.61859  0.78347  0.75680  1.0000
  H   H990      1.0  0.58938  0.55621  0.86399  1.0000
  H   H991      1.0  0.57655  0.55254  0.82578  1.0000
  C   C556      1.0  0.39837  0.50916  0.57451  1.0000
  C   C557      1.0  0.46920  0.82335  0.92966  1.0000
  C   C558      1.0  0.61175  0.92371  0.53098  1.0000
  H   H992      1.0  0.45560  0.85524  0.96732  1.0000
  H   H993      1.0  0.62324  0.49383  0.51586  1.0000
  H   H994      1.0  0.60938  0.54533  0.71827  1.0000
  C   C559      1.0  0.52129  0.97116  0.94850  1.0000
  C   C560      1.0  0.65572  0.93594  0.76196  1.0000
  C   C561      1.0  0.39400  0.77384  0.64653  1.0000
  S   S124      1.0  0.33160  0.51880  0.63357  1.0000
  N   N31       1.0  0.61562  0.88562  0.73233  1.0000
  C   C562      1.0  0.63663  0.89300  0.72498  1.0000
  C   C563      1.0  0.60503  0.88694  0.70002  1.0000
  C   C564      1.0  0.61188  0.85027  0.75040  1.0000
  C   C565      1.0  0.62626  0.81950  0.74320  1.0000
  H   H995      1.0  0.57299  0.53676  0.63466  1.0000
  C   C566      1.0  0.61062  0.85902  0.67329  1.0000
  C   C567      1.0  0.52204  0.54226  0.86845  1.0000
  H   H996      1.0  0.63755  0.75035  0.60736  1.0000
  C   C568      1.0  0.57587  0.98724  0.68269  1.0000
  H   H997      1.0  0.63837  0.91747  0.70901  1.0000
  C   C569      1.0  0.58507  0.51031  0.53040  1.0000
  H   H998      1.0  0.58937  0.88290  0.70457  1.0000
  H   H999      1.0  0.60694  0.91403  0.68840  1.0000
  H   H1000     1.0  0.61181  0.85402  0.77793  1.0000
  H   H1001     1.0  0.59719  0.84007  0.74513  1.0000
  C   C570      1.0  0.34802  0.50221  0.50169  1.0000
  H   H1002     1.0  0.62953  0.81618  0.71627  1.0000
  C   C571      1.0  0.48989  0.51285  0.93100  1.0000
  S   S125      1.0  0.49740  0.49149  0.80238  1.0000
  H   H1003     1.0  0.62605  0.86101  0.66645  1.0000
  H   H1004     1.0  0.60701  0.83143  0.68225  1.0000
  C   C572      1.0  0.43366  0.49722  0.72221  1.0000
  S   S126      1.0  0.34321  0.83179  0.65854  1.0000
  H   H1005     1.0  0.45619  0.80762  0.97638  1.0000
  H   H1006     1.0  0.61656  0.97901  0.58648  1.0000
  C   C573      1.0  0.65569  0.71088  0.62995  1.0000
  C   C574      1.0  0.40688  0.93450  0.54132  1.0000
  H   H1007     1.0  0.56494  0.97008  0.58427  1.0000
  H   H1008     1.0  0.61283  0.51150  0.84409  1.0000
  H   H1009     1.0  0.61318  0.54318  0.59255  1.0000
  H   H1010     1.0  0.52883  0.94918  0.93683  1.0000
  H   H1011     1.0  0.41297  0.92704  0.56569  1.0000
  H   H1012     1.0  0.40879  0.58189  0.57082  1.0000
  H   H1013     1.0  0.34188  0.69943  0.66170  1.0000
  H   H1014     1.0  0.36785  0.93675  0.72815  1.0000
  H   H1015     1.0  0.51492  0.56838  0.82154  1.0000
  H   H1016     1.0  0.60731  0.88063  0.56767  1.0000
  H   H1017     1.0  0.57535  0.53216  0.52255  1.0000
  C   C575      1.0  0.48331  0.83659  0.98600  1.0000
  C   C576      1.0  0.42948  0.51805  0.69378  1.0000
  H   H1018     1.0  0.59499  0.50953  0.59469  1.0000
  H   H1019     1.0  0.47701  0.84653  0.91776  1.0000
  H   H1020     1.0  0.49696  0.57205  0.85436  1.0000
  C   C577      1.0  0.59829  0.52497  0.71603  1.0000
  H   H1021     1.0  0.41297  0.58429  0.52632  1.0000
  C   C578      1.0  0.35097  0.97224  0.49158  1.0000
  C   C579      1.0  0.60769  0.88436  0.54019  1.0000
  C   C580      1.0  0.41038  0.52653  0.68586  1.0000
  H   H1022     1.0  0.51861  0.59893  0.85582  1.0000
  H   H1023     1.0  0.62941  0.76232  0.75208  1.0000
  H   H1024     1.0  0.42485  0.52710  0.54682  1.0000
  C   C581      1.0  0.55538  0.54538  0.97301  1.0000
  H   H1025     1.0  0.64003  0.82516  0.75545  1.0000
  H   H1026     1.0  0.40051  0.52412  0.59812  1.0000
  H   H1027     1.0  0.39602  0.91378  0.53483  1.0000
  H   H1028     1.0  0.43840  0.51253  0.59404  1.0000
  H   H1029     1.0  0.57674  0.49507  0.55009  1.0000
  C   C582      1.0  0.62000  0.50147  0.54204  1.0000
  C   C583      1.0  0.39733  0.97117  0.54345  1.0000
  C   C584      1.0  0.58098  0.94292  0.78826  1.0000
  H   H1030     1.0  0.39068  0.97662  0.51929  1.0000
  H   H1031     1.0  0.41837  0.93477  0.52166  1.0000
  S   S127      1.0  0.34318  0.49748  0.54505  1.0000
  C   C585      1.0  0.56874  0.49559  0.73831  1.0000
  S   S128      1.0  0.39839  0.98487  0.64622  1.0000
  H   H1032     1.0  0.38285  0.51194  0.56933  1.0000
  C   C586      1.0  0.58339  0.52185  0.74055  1.0000
  H   H1033     1.0  0.56293  0.52120  0.98203  1.0000
  S   S129      1.0  0.63483  0.98784  0.68369  1.0000
  S   S130      1.0  0.55089  0.49186  0.77121  1.0000
  N   N32       1.0  0.59992  0.98858  0.54228  1.0000
  H   H1034     1.0  0.39119  0.98796  0.71915  1.0000
  Fe  Fe68      1.0  0.68701  0.07387  0.30582  1.0000
  S   S131      1.0  0.71994  0.07306  0.30298  1.0000
  S   S132      1.0  0.67803  0.11601  0.34262  1.0000
  H   H1035     1.0  0.79041  0.45740  0.28362  1.0000
  H   H1036     1.0  0.73067  0.02807  0.47934  1.0000
  H   H1037     1.0  0.85865  0.06386  0.23359  1.0000
  S   S133      1.0  0.68620  0.43479  0.33386  1.0000
  C   C587      1.0  0.90949  0.17475  0.10726  1.0000
  S   S134      1.0  0.66549  0.09324  0.26821  1.0000
  H   H1038     1.0  0.91219  0.06852  0.09683  1.0000
  C   C588      1.0  0.71763  0.03621  0.40188  1.0000
  H   H1039     1.0  0.71714  0.06786  0.44762  1.0000
  Fe  Fe69      1.0  0.98295  0.03125  0.16903  1.0000
  H   H1040     1.0  0.70061  0.00092  0.44923  1.0000
  C   C589      1.0  0.96974  0.35514  0.25262  1.0000
  S   S135      1.0  0.98217  0.41221  0.13014  1.0000
  Fe  Fe70      1.0  0.98283  0.44281  0.17882  1.0000
  H   H1041     1.0  0.89885  0.47218  0.28254  1.0000
  C   C590      1.0  0.67244  0.23887  0.28397  1.0000
  H   H1042     1.0  0.73959  0.07141  0.42388  1.0000
  S   S136      1.0  0.83162  0.99665  0.32635  1.0000
  H   H1043     1.0  0.92654  0.16432  0.14958  1.0000
  C   C591      1.0  0.97174  0.39977  0.30004  1.0000
  H   H1044     1.0  0.98189  0.00845  0.02958  1.0000
  H   H1045     1.0  0.76109  0.41699  0.23902  1.0000
  H   H1046     1.0  0.95094  0.11769  0.24470  1.0000
  H   H1047     1.0  0.78362  0.37770  0.26778  1.0000
  C   C592      1.0  0.85986  0.33913  0.44405  1.0000
  H   H1048     1.0  0.94563  0.35669  0.13697  1.0000
  H   H1049     1.0  0.69624  0.41209  0.21037  1.0000
  H   H1050     1.0  0.72980  0.45251  0.24241  1.0000
  C   C593      1.0  0.88847  0.45521  0.36527  1.0000
  H   H1051     1.0  0.70102  0.10381  0.40529  1.0000
  H   H1052     1.0  0.76088  0.07481  0.30700  1.0000
  H   H1053     1.0  0.93410  0.04714  0.15989  1.0000
  H   H1054     1.0  0.92346  0.08477  0.21627  1.0000
  H   H1055     1.0  0.89207  0.08221  0.22936  1.0000
  C   C594      1.0  0.99047  0.27528  0.13837  1.0000
  C   C595      1.0  0.91899  0.04906  0.11376  1.0000
  C   C596      1.0  0.71377  0.21788  0.33309  1.0000
  C   C597      1.0  0.75674  0.04712  0.30286  1.0000
  C   C598      1.0  0.93446  0.02956  0.09348  1.0000
  C   C599      1.0  0.84066  0.00121  0.45688  1.0000
  H   H1056     1.0  0.66023  0.23944  0.44866  1.0000
  H   H1057     1.0  0.66887  0.31955  0.44828  1.0000
  C   C600      1.0  0.73720  0.03815  0.29985  1.0000
  H   H1058     1.0  0.67997  0.21610  0.27365  1.0000
  C   C601      1.0  0.67015  0.30406  0.29181  1.0000
  H   H1059     1.0  0.92729  0.43545  0.26752  1.0000
  H   H1060     1.0  0.95428  0.36154  0.24991  1.0000
  H   H1061     1.0  0.79588  0.43582  0.24438  1.0000
  C   C602      1.0  0.67994  0.27402  0.27927  1.0000
  H   H1062     1.0  0.89382  0.44489  0.38932  1.0000
  H   H1063     1.0  0.69327  0.27794  0.26527  1.0000
  C   C603      1.0  0.68758  0.14812  0.47624  1.0000
  C   C604      1.0  0.76328  0.29682  0.25306  1.0000
  H   H1064     1.0  0.90388  0.03971  0.18698  1.0000
  H   H1065     1.0  0.68603  0.19277  0.33702  1.0000
  H   H1066     1.0  0.85805  0.05377  0.18972  1.0000
  H   H1067     1.0  0.74083  0.40700  0.39293  1.0000
  H   H1068     1.0  0.70346  0.15016  0.47471  1.0000
  H   H1069     1.0  0.75823  0.34718  0.29736  1.0000
  H   H1070     1.0  0.95033  0.48775  0.31263  1.0000
  C   C605      1.0  0.97438  0.25018  0.25013  1.0000
  H   H1071     1.0  0.77845  0.39832  0.30701  1.0000
  H   H1072     1.0  0.84336  0.36139  0.48439  1.0000
  H   H1073     1.0  0.97768  0.37688  0.23859  1.0000
  H   H1074     1.0  0.76360  0.34992  0.23104  1.0000
  H   H1075     1.0  0.70270  0.17838  0.36766  1.0000
  C   C606      1.0  0.77884  0.40292  0.27974  1.0000
  C   C607      1.0  0.92419  0.10474  0.19553  1.0000
  C   C608      1.0  0.97056  0.28897  0.26263  1.0000
  C   C609      1.0  0.77104  0.02067  0.30044  1.0000
  H   H1076     1.0  0.71763  0.42937  0.18874  1.0000
  C   C610      1.0  0.85580  0.34335  0.48141  1.0000
  H   H1077     1.0  0.70169  0.03655  0.40221  1.0000
  C   C611      1.0  0.73183  0.40785  0.37053  1.0000
  Fe  Fe71      1.0  0.68228  0.48083  0.29856  1.0000
  H   H1078     1.0  0.86275  0.36601  0.43257  1.0000
  S   S137      1.0  0.66561  0.44743  0.26213  1.0000
  H   H1079     1.0  0.78598  0.02817  0.30254  1.0000
  H   H1080     1.0  0.71868  0.19761  0.31466  1.0000
  H   H1081     1.0  0.84860  0.43605  0.45510  1.0000
  C   C612      1.0  0.69715  0.20210  0.35430  1.0000
  H   H1082     1.0  0.96463  0.28800  0.19525  1.0000
  H   H1083     1.0  0.70076  0.24518  0.38997  1.0000
  C   C613      1.0  0.96044  0.34309  0.18213  1.0000
  C   C614      1.0  0.92767  0.06826  0.14416  1.0000
  C   C615      1.0  0.73220  0.40223  0.30745  1.0000
  C   C616      1.0  0.94591  0.11381  0.19139  1.0000
  C   C617      1.0  0.96085  0.31284  0.20903  1.0000
  C   C618      1.0  0.93769  0.47078  0.22798  1.0000
  C   C619      1.0  0.90551  0.12042  0.14558  1.0000
  H   H1084     1.0  0.70921  0.24218  0.31932  1.0000
  H   H1085     1.0  0.72598  0.22507  0.34903  1.0000
  C   C620      1.0  0.75354  0.33254  0.24601  1.0000
  H   H1086     1.0  0.90820  0.02846  0.12201  1.0000
  C   C621      1.0  0.71692  0.10393  0.40599  1.0000
  H   H1087     1.0  0.94923  0.13034  0.16894  1.0000
  H   H1088     1.0  0.92393  0.47880  0.37552  1.0000
  H   H1089     1.0  0.70029  0.19206  0.42444  1.0000
  H   H1090     1.0  0.91835  0.04177  0.27885  1.0000
  H   H1091     1.0  0.68162  0.25043  0.36182  1.0000
  H   H1092     1.0  0.75100  0.37446  0.34294  1.0000
  C   C622      1.0  0.74423  0.40089  0.33933  1.0000
  C   C623      1.0  0.74697  0.35118  0.27878  1.0000
  H   H1093     1.0  0.66973  0.29333  0.39146  1.0000
  S   S138      1.0  0.98111  0.06521  0.12225  1.0000
  H   H1094     1.0  0.68320  0.25805  0.43941  1.0000
  C   C624      1.0  0.68861  0.23062  0.37835  1.0000
  H   H1095     1.0  0.98064  0.22760  0.29899  1.0000
  H   H1096     1.0  0.75413  0.03550  0.37364  1.0000
  C   C625      1.0  0.70775  0.43300  0.21057  1.0000
  H   H1097     1.0  0.87256  0.45465  0.36671  1.0000
  H   H1098     1.0  0.93106  0.13541  0.11425  1.0000
  H   H1099     1.0  0.94736  0.30904  0.14458  1.0000
  H   H1100     1.0  0.91669  0.12884  0.20537  1.0000
  H   H1101     1.0  0.71549  0.37387  0.25246  1.0000
  C   C626      1.0  0.72757  0.39340  0.24804  1.0000
  C   C627      1.0  0.66154  0.04765  0.48131  1.0000
  H   H1102     1.0  0.87263  0.32215  0.43961  1.0000
  H   H1103     1.0  0.70823  0.43636  0.26364  1.0000
  C   C628      1.0  0.85403  0.46175  0.46335  1.0000
  C   C629      1.0  0.89796  0.06544  0.17740  1.0000
  C   C630      1.0  0.88445  0.07996  0.20550  1.0000
  H   H1104     1.0  0.87874  0.10672  0.19917  1.0000
  C   C631      1.0  0.91977  0.14829  0.12976  1.0000
  H   H1105     1.0  0.72031  0.38708  0.37345  1.0000
  H   H1106     1.0  0.75549  0.42225  0.33805  1.0000
  C   C632      1.0  0.79421  0.43154  0.27174  1.0000
  S   S139      1.0  0.95794  0.44309  0.21839  1.0000
  H   H1107     1.0  0.98111  0.29700  0.13210  1.0000
  H   H1108     1.0  0.76722  0.28364  0.22913  1.0000
  H   H1109     1.0  0.75343  0.27850  0.26755  1.0000
  H   H1110     1.0  0.72763  0.43064  0.30546  1.0000
  N   N33       1.0  0.91410  0.09026  0.16536  1.0000
  H   H1111     1.0  0.93058  0.33564  0.16883  1.0000
  N   N34       1.0  0.74197  0.39039  0.27542  1.0000
  H   H1112     1.0  0.96476  0.24278  0.22966  1.0000
  H   H1113     1.0  0.84731  0.32683  0.43181  1.0000
  C   C633      1.0  0.93584  0.02085  0.23832  1.0000
  C   C634      1.0  0.94505  0.33546  0.15663  1.0000
  H   H1114     1.0  0.98276  0.41634  0.28626  1.0000
  H   H1115     1.0  0.95729  0.36965  0.19306  1.0000
  C   C635      1.0  0.93747  0.99495  0.21334  1.0000
  H   H1116     1.0  0.73427  0.38617  0.22358  1.0000
  H   H1117     1.0  0.73431  0.33552  0.28883  1.0000
  H   H1118     1.0  0.94589  0.30875  0.21890  1.0000
  H   H1119     1.0  0.89325  0.43738  0.34468  1.0000
  H   H1120     1.0  0.95540  0.28989  0.27199  1.0000
  H   H1121     1.0  0.87223  0.02687  0.21732  1.0000
  H   H1122     1.0  0.93999  0.08462  0.13449  1.0000
  H   H1123     1.0  0.89640  0.10954  0.12559  1.0000
  H   H1124     1.0  0.74090  0.32660  0.23059  1.0000
  H   H1125     1.0  0.97442  0.34518  0.16850  1.0000
  C   C636      1.0  0.67859  0.18192  0.46176  1.0000
  H   H1126     1.0  0.89555  0.13615  0.16162  1.0000
  H   H1127     1.0  0.92781  0.01465  0.07279  1.0000
  S   S140      1.0  0.67957  0.34782  0.28278  1.0000
  H   H1128     1.0  0.98945  0.24728  0.24117  1.0000
  H   H1129     1.0  0.95575  0.22346  0.28750  1.0000
  H   H1130     1.0  0.91999  0.19482  0.09682  1.0000
  H   H1131     1.0  0.77656  0.30127  0.26721  1.0000
  H   H1132     1.0  0.80818  0.42291  0.28152  1.0000
  H   H1133     1.0  0.94601  0.16021  0.22427  1.0000
  H   H1134     1.0  0.71882  0.38599  0.31207  1.0000
  H   H1135     1.0  0.96893  0.13932  0.21813  1.0000
  H   H1136     1.0  0.72521  0.43477  0.36918  1.0000
  H   H1137     1.0  0.94721  0.04056  0.24103  1.0000
  H   H1138     1.0  0.66288  0.17949  0.46561  1.0000
  H   H1139     1.0  0.95418  0.08856  0.18912  1.0000
  C   C637      1.0  0.75907  0.41439  0.26659  1.0000
  C   C638      1.0  0.73214  0.00220  0.29428  1.0000
  H   H1140     1.0  0.72198  0.04111  0.37526  1.0000
  H   H1141     1.0  0.72169  0.12746  0.42059  1.0000
  H   H1142     1.0  0.88867  0.05798  0.15635  1.0000
  C   C639      1.0  0.66170  0.47181  0.47697  1.0000
  C   C640      1.0  0.86732  0.05452  0.21178  1.0000
  C   C641      1.0  0.95330  0.13400  0.22159  1.0000
  H   H1143     1.0  0.89823  0.18928  0.12163  1.0000
  C   C642      1.0  0.68449  0.18723  0.42442  1.0000
  H   H1144     1.0  0.96839  0.23426  0.13501  1.0000
  H   H1145     1.0  0.90286  0.16043  0.08618  1.0000
  C   C643      1.0  0.98335  0.23948  0.13968  1.0000
  C   C644      1.0  0.92484  0.46021  0.25412  1.0000
  C   C645      1.0  0.66021  0.28065  0.41090  1.0000
  H   H1146     1.0  0.72290  0.10674  0.38010  1.0000
  C   C646      1.0  0.72379  0.06927  0.42224  1.0000
  C   C647      1.0  0.65953  0.48054  0.44312  1.0000
  H   H1147     1.0  0.95733  0.41010  0.29423  1.0000
  H   H1148     1.0  0.97398  0.40272  0.32719  1.0000
  C   C648      1.0  0.71866  0.43094  0.24305  1.0000
  H   H1149     1.0  0.75638  0.44234  0.27528  1.0000
  Fe  Fe72      1.0  0.66803  0.40230  0.29959  1.0000
  H   H1150     1.0  0.66117  0.17958  0.37172  1.0000
  H   H1151     1.0  0.78745  0.01546  0.36598  1.0000
  S   S141      1.0  0.98539  0.16567  0.14787  1.0000
  H   H1152     1.0  0.68245  0.16087  0.41182  1.0000
  H   H1153     1.0  0.96246  0.34471  0.30535  1.0000
  H   H1154     1.0  0.68284  0.12390  0.46254  1.0000
  H   H1155     1.0  0.94507  0.04911  0.08253  1.0000
  S   S142      1.0  0.88374  0.99912  0.28423  1.0000
  C   C649      1.0  0.66990  0.24795  0.42762  1.0000
  C   C650      1.0  0.91945  0.02138  0.25985  1.0000
  C   C651      1.0  0.97337  0.36023  0.29031  1.0000
  S   S143      1.0  0.66723  0.03181  0.32878  1.0000
  N   N35       1.0  0.97426  0.31890  0.23751  1.0000
  H   H1156     1.0  0.70106  0.45984  0.20843  1.0000
  C   C652      1.0  0.90452  0.99575  0.25721  1.0000
  H   H1157     1.0  0.98768  0.35093  0.29748  1.0000
  N   N36       1.0  0.67470  0.21673  0.40517  1.0000
  H   H1158     1.0  0.82209  0.04190  0.47704  1.0000
  S   S144      1.0  0.95743  0.99371  0.18436  1.0000
  C   C653      1.0  0.77938  0.00858  0.38943  1.0000
  C   C654      1.0  0.90866  0.48108  0.26281  1.0000
  H   H1159     1.0  0.68370  0.20516  0.47649  1.0000
  H   H1160     1.0  0.97935  0.29256  0.28500  1.0000
  C   C655      1.0  0.97085  0.22254  0.27809  1.0000
  N   N37       1.0  0.72466  0.00016  0.41361  1.0000
  C   C656      1.0  0.85631  0.49039  0.44030  1.0000
  H   H1161     1.0  0.83956  0.29385  0.48518  1.0000
  H   H1162     1.0  0.97363  0.19514  0.26841  1.0000
  H   H1163     1.0  0.80721  0.47677  0.46722  1.0000
  H   H1164     1.0  0.78322  0.02868  0.40853  1.0000
  H   H1165     1.0  0.94200  0.01000  0.10945  1.0000
  C   C657      1.0  0.83466  0.02592  0.48113  1.0000
  H   H1166     1.0  0.75143  0.01837  0.43482  1.0000
  C   C658      1.0  0.65891  0.00698  0.43490  1.0000
  C   C659      1.0  0.72626  0.99942  0.47895  1.0000
  H   H1167     1.0  0.67005  0.29154  0.21082  1.0000
  C   C660      1.0  0.65951  0.04207  0.44696  1.0000
  H   H1168     1.0  0.66171  0.44390  0.48471  1.0000
  H   H1169     1.0  0.85265  0.48667  0.41452  1.0000
  S   S145      1.0  0.82648  0.99556  0.42145  1.0000
  H   H1170     1.0  0.71722  0.99485  0.29156  1.0000
  H   H1171     1.0  0.92132  0.48081  0.33193  1.0000
  C   C661      1.0  0.74623  0.99944  0.41578  1.0000
  C   C662      1.0  0.75785  0.00854  0.38332  1.0000
  H   H1172     1.0  0.98174  0.48911  0.34053  1.0000
  H   H1173     1.0  0.97883  0.42042  0.72780  1.0000
  Fe  Fe73      1.0  0.86102  0.04849  0.59479  1.0000
  S   S146      1.0  0.84599  0.02073  0.63825  1.0000
  C   C663      1.0  0.94242  0.01008  0.73803  1.0000
  Fe  Fe74      1.0  0.85711  0.12366  0.62627  1.0000
  S   S147      1.0  0.84141  0.10047  0.67122  1.0000
  S   S148      1.0  0.86853  0.18157  0.61992  1.0000
  Fe  Fe75      1.0  0.86397  0.05715  0.67027  1.0000
  S   S149      1.0  0.87909  0.03851  0.71778  1.0000
  Fe  Fe76      1.0  0.82505  0.06603  0.63493  1.0000
  H   H1174     1.0  0.94587  0.36698  0.83046  1.0000
  S   S150      1.0  0.88019  0.08167  0.62686  1.0000
  S   S151      1.0  0.83952  0.09237  0.58983  1.0000
  Fe  Fe77      1.0  0.82969  0.46881  0.63695  1.0000
  S   S152      1.0  0.82700  0.41926  0.60610  1.0000
  C   C664      1.0  0.78123  0.44215  0.56071  1.0000
  Fe  Fe78      1.0  0.87286  0.45532  0.64930  1.0000
  S   S153      1.0  0.87243  0.40512  0.61754  1.0000
  H   H1175     1.0  0.68303  0.14478  0.50283  1.0000
  Fe  Fe79      1.0  0.85485  0.43677  0.58163  1.0000
  S   S154      1.0  0.85540  0.42964  0.52519  1.0000
  Fe  Fe80      1.0  0.84474  0.39125  0.64430  1.0000
  S   S155      1.0  0.83549  0.33476  0.66263  1.0000
  S   S156      1.0  0.84553  0.43997  0.67792  1.0000
  H   H1176     1.0  0.96992  0.38585  0.82706  1.0000
  C   C665      1.0  0.92480  0.42562  0.81214  1.0000
  C   C666      1.0  0.92513  0.04421  0.59624  1.0000
  C   C667      1.0  0.77925  0.02460  0.52243  1.0000
  C   C668      1.0  0.85918  0.22353  0.63325  1.0000
  C   C669      1.0  0.87067  0.25471  0.62900  1.0000
  C   C670      1.0  0.86372  0.28882  0.63811  1.0000
  C   C671      1.0  0.84507  0.29229  0.65122  1.0000
  C   C672      1.0  0.83375  0.26100  0.65617  1.0000
  C   C673      1.0  0.84073  0.22682  0.64727  1.0000
  H   H1177     1.0  0.88504  0.25248  0.61855  1.0000
  H   H1178     1.0  0.87281  0.31244  0.63517  1.0000
  H   H1179     1.0  0.81939  0.26326  0.66672  1.0000
  H   H1180     1.0  0.83174  0.20313  0.65086  1.0000
  H   H1181     1.0  0.74436  0.44732  0.66401  1.0000
  H   H1182     1.0  0.82915  0.35417  0.53364  1.0000
  H   H1183     1.0  0.90882  0.40929  0.74947  1.0000
  C   C674      1.0  0.84480  0.03014  0.51066  1.0000
  C   C675      1.0  0.77131  0.47347  0.65042  1.0000
  C   C676      1.0  0.81959  0.32423  0.57686  1.0000
  C   C677      1.0  0.93774  0.02993  0.70932  1.0000
  C   C678      1.0  0.91856  0.03889  0.70274  1.0000
  H   H1184     1.0  0.81716  0.31355  0.52395  1.0000
  C   C679      1.0  0.88310  0.31597  0.54852  1.0000
  H   H1185     1.0  0.91537  0.05433  0.68071  1.0000
  C   C680      1.0  0.94963  0.42006  0.85418  1.0000
  C   C681      1.0  0.85920  0.13517  0.76527  1.0000
  H   H1186     1.0  0.95314  0.48385  0.88739  1.0000
  C   C682      1.0  0.84084  0.11412  0.75816  1.0000
  C   C683      1.0  0.77794  0.06217  0.53736  1.0000
  C   C684      1.0  0.90015  0.42662  0.76632  1.0000
  H   H1187     1.0  0.96824  0.33411  0.86550  1.0000
  C   C685      1.0  0.95765  0.45324  0.80148  1.0000
  H   H1188     1.0  0.91384  0.04485  0.57721  1.0000
  C   C686      1.0  0.82802  0.32519  0.54072  1.0000
  C   C687      1.0  0.84674  0.26930  0.54898  1.0000
  H   H1189     1.0  0.83167  0.12962  0.74116  1.0000
  C   C688      1.0  0.92752  0.99948  0.76018  1.0000
  S   S157      1.0  0.79228  0.06311  0.63138  1.0000
  H   H1190     1.0  0.99088  0.42645  0.76652  1.0000
  H   H1191     1.0  0.85903  0.32762  0.58096  1.0000
  H   H1192     1.0  0.81820  0.29651  0.58704  1.0000
  H   H1193     1.0  0.92872  0.13810  0.81018  1.0000
  H   H1194     1.0  0.93861  0.05544  0.58485  1.0000
  H   H1195     1.0  0.77464  0.41561  0.55522  1.0000
  H   H1196     1.0  0.80930  0.48788  0.56794  1.0000
  H   H1197     1.0  0.89444  0.34115  0.59287  1.0000
  H   H1198     1.0  0.84430  0.08774  0.74681  1.0000
  H   H1199     1.0  0.79230  0.07545  0.53735  1.0000
  C   C689      1.0  0.77473  0.02779  0.63360  1.0000
  H   H1200     1.0  0.86141  0.35757  0.54717  1.0000
  H   H1201     1.0  0.82887  0.34005  0.59334  1.0000
  C   C690      1.0  0.79966  0.34071  0.57860  1.0000
  C   C691      1.0  0.89715  0.34128  0.56548  1.0000
  H   H1202     1.0  0.97176  0.45474  0.81372  1.0000
  H   H1203     1.0  0.80012  0.36864  0.56865  1.0000
  N   N38       1.0  0.84714  0.30730  0.53549  1.0000
  H   H1204     1.0  0.84545  0.19470  0.54844  1.0000
  H   H1205     1.0  0.82007  0.18941  0.54242  1.0000
  S   S158      1.0  0.87357  0.01357  0.55380  1.0000
  C   C692      1.0  0.95974  0.42838  0.77064  1.0000
  H   H1206     1.0  0.77215  0.06062  0.56336  1.0000
  H   H1207     1.0  0.94908  0.03846  0.69202  1.0000
  H   H1208     1.0  0.77992  0.45185  0.65982  1.0000
  H   H1209     1.0  0.78825  0.44003  0.58515  1.0000
  H   H1210     1.0  0.76821  0.07891  0.52247  1.0000
  H   H1211     1.0  0.89150  0.44458  0.75053  1.0000
  H   H1212     1.0  0.91461  0.41614  0.83231  1.0000
  C   C693      1.0  0.83125  0.20729  0.55278  1.0000
  H   H1213     1.0  0.89584  0.36915  0.55567  1.0000
  H   H1214     1.0  0.82847  0.20949  0.58007  1.0000
  H   H1215     1.0  0.82264  0.48152  0.53088  1.0000
  C   C694      1.0  0.92836  0.00577  0.60823  1.0000
  H   H1216     1.0  0.91224  0.14419  0.84499  1.0000
  S   S159      1.0  0.90305  0.46825  0.66899  1.0000
  H   H1217     1.0  0.88495  0.28877  0.55944  1.0000
  H   H1218     1.0  0.76950  0.46178  0.56297  1.0000
  H   H1219     1.0  0.79065  0.00398  0.56876  1.0000
  C   C695      1.0  0.86210  0.32853  0.55369  1.0000
  H   H1220     1.0  0.90864  0.10736  0.81684  1.0000
  H   H1221     1.0  0.91205  0.33226  0.56057  1.0000
  H   H1222     1.0  0.86739  0.11850  0.78284  1.0000
  H   H1223     1.0  0.90555  0.00547  0.64521  1.0000
  H   H1224     1.0  0.81623  0.25546  0.54144  1.0000
  H   H1225     1.0  0.92282  0.46554  0.77158  1.0000
  N   N39       1.0  0.88876  0.16619  0.73607  1.0000
  C   C696      1.0  0.88341  0.20359  0.74702  1.0000
  C   C697      1.0  0.90293  0.14994  0.75968  1.0000
  C   C698      1.0  0.89841  0.16954  0.70196  1.0000
  C   C699      1.0  0.87136  0.14209  0.73301  1.0000
  H   H1226     1.0  0.79448  0.34144  0.60502  1.0000
  C   C700      1.0  0.86999  0.22462  0.72373  1.0000
  C   C701      1.0  0.90836  0.13529  0.68835  1.0000
  C   C702      1.0  0.90098  0.15995  0.79713  1.0000
  C   C703      1.0  0.91343  0.13589  0.81849  1.0000
  H   H1227     1.0  0.90398  0.46803  0.80260  1.0000
  C   C704      1.0  0.86488  0.26118  0.73837  1.0000
  C   C705      1.0  0.91811  0.14281  0.65440  1.0000
  H   H1228     1.0  0.89667  0.22025  0.74964  1.0000
  H   H1229     1.0  0.87635  0.20323  0.77208  1.0000
  H   H1230     1.0  0.90264  0.12000  0.75767  1.0000
  H   H1231     1.0  0.91785  0.15846  0.75241  1.0000
  H   H1232     1.0  0.90944  0.19150  0.70185  1.0000
  H   H1233     1.0  0.88786  0.17726  0.68294  1.0000
  H   H1234     1.0  0.86187  0.15237  0.71335  1.0000
  H   H1235     1.0  0.87565  0.11510  0.72421  1.0000
  C   C706      1.0  0.95695  0.38270  0.84347  1.0000
  H   H1236     1.0  0.83262  0.10899  0.78183  1.0000
  H   H1237     1.0  0.87706  0.22989  0.69907  1.0000
  H   H1238     1.0  0.85636  0.20972  0.72001  1.0000
  H   H1239     1.0  0.89780  0.11321  0.68522  1.0000
  H   H1240     1.0  0.91957  0.12553  0.70514  1.0000
  H   H1241     1.0  0.90585  0.18821  0.80061  1.0000
  H   H1242     1.0  0.88609  0.15767  0.80702  1.0000
  C   C707      1.0  0.83063  0.24435  0.53608  1.0000
  H   H1243     1.0  0.84577  0.26924  0.57668  1.0000
  H   H1244     1.0  0.72633  0.01585  0.62367  1.0000
  C   C708      1.0  0.90365  0.02800  0.72474  1.0000
  C   C709      1.0  0.80784  0.48688  0.54036  1.0000
  H   H1245     1.0  0.85491  0.16056  0.77740  1.0000
  H   H1246     1.0  0.87799  0.27787  0.74161  1.0000
  H   H1247     1.0  0.85538  0.27567  0.72114  1.0000
  H   H1248     1.0  0.85714  0.25782  0.76277  1.0000
  H   H1249     1.0  0.92905  0.16458  0.65628  1.0000
  H   H1250     1.0  0.92536  0.11821  0.64544  1.0000
  H   H1251     1.0  0.90739  0.15076  0.63582  1.0000
  H   H1252     1.0  0.78940  0.32439  0.56417  1.0000
  C   C710      1.0  0.79586  0.45237  0.53287  1.0000
  H   H1253     1.0  0.78416  0.02800  0.49597  1.0000
  C   C711      1.0  0.93511  0.47813  0.84329  1.0000
  H   H1254     1.0  0.92083  0.06137  0.61754  1.0000
  C   C712      1.0  0.90833  0.00848  0.75360  1.0000
  C   C713      1.0  0.74101  0.00905  0.62863  1.0000
  H   H1255     1.0  0.94802  0.43340  0.75309  1.0000
  H   H1256     1.0  0.86047  0.25569  0.54286  1.0000
  H   H1257     1.0  0.89020  0.40964  0.78195  1.0000
  H   H1258     1.0  0.75187  0.06309  0.62019  1.0000
  H   H1259     1.0  0.98061  0.46455  0.74570  1.0000
  H   H1260     1.0  0.84002  0.04930  0.52905  1.0000
  C   C714      1.0  0.75555  0.03581  0.62669  1.0000
  N   N40       1.0  0.94200  0.44388  0.82704  1.0000
  H   H1261     1.0  0.92890  0.40094  0.79863  1.0000
  C   C715      1.0  0.66283  0.01832  0.50351  1.0000
  H   H1262     1.0  0.95566  0.48071  0.79107  1.0000
  H   H1263     1.0  0.94308  0.47663  0.68243  1.0000
  H   H1264     1.0  0.96213  0.43312  0.86602  1.0000
  C   C716      1.0  0.77923  0.99239  0.64211  1.0000
  H   H1265     1.0  0.93849  0.41607  0.87437  1.0000
  H   H1266     1.0  0.88737  0.31522  0.52175  1.0000
  C   C717      1.0  0.91317  0.44927  0.78812  1.0000
  C   C718      1.0  0.86101  0.00958  0.51631  1.0000
  H   H1267     1.0  0.97426  0.37462  0.88743  1.0000
  H   H1268     1.0  0.95023  0.35575  0.89100  1.0000
  C   C719      1.0  0.96275  0.36055  0.87378  1.0000
  H   H1269     1.0  0.89701  0.00006  0.77099  1.0000
  H   H1270     1.0  0.95913  0.39952  0.77738  1.0000
  C   C720      1.0  0.97868  0.43549  0.75159  1.0000
  H   H1271     1.0  0.80599  0.42959  0.53078  1.0000
  H   H1272     1.0  0.92235  0.47246  0.85990  1.0000
  S   S160      1.0  0.96697  0.99888  0.74428  1.0000
  H   H1273     1.0  0.66454  0.02282  0.52984  1.0000
  H   H1274     1.0  0.78859  0.45339  0.50878  1.0000
  C   C721      1.0  0.75109  0.47102  0.65283  1.0000
  H   H1275     1.0  0.80775  0.01481  0.53673  1.0000
  H   H1276     1.0  0.70169  0.00969  0.51183  1.0000
  H   H1277     1.0  0.72285  0.99627  0.53293  1.0000
  H   H1278     1.0  0.66189  0.07474  0.49086  1.0000
  H   H1279     1.0  0.89784  0.99291  0.60570  1.0000
  H   H1280     1.0  0.83235  0.24044  0.50879  1.0000
  H   H1281     1.0  0.93965  0.00685  0.62717  1.0000
  S   S161      1.0  0.85720  0.48771  0.61076  1.0000
  C   C722      1.0  0.85861  0.46626  0.49700  1.0000
  H   H1282     1.0  0.76468  0.01263  0.52284  1.0000
  C   C723      1.0  0.79366  0.00113  0.54148  1.0000
  H   H1283     1.0  0.86849  0.35694  0.49196  1.0000
  C   C724      1.0  0.85170  0.30632  0.49854  1.0000
  H   H1284     1.0  0.86410  0.28857  0.49314  1.0000
  C   C725      1.0  0.98592  0.99319  0.97772  1.0000
  C   C726      1.0  0.71416  0.99157  0.51053  1.0000
  Fe  Fe81      1.0  0.81396  0.94927  0.31049  1.0000
  S   S162      1.0  0.81629  0.91909  0.35906  1.0000
  H   H1285     1.0  0.91718  0.82017  0.29902  1.0000
  Fe  Fe82      1.0  0.85774  0.96693  0.30684  1.0000
  S   S163      1.0  0.86195  0.93923  0.35627  1.0000
  H   H1286     1.0  0.74242  0.94824  0.28645  1.0000
  Fe  Fe83      1.0  0.84301  0.89466  0.33678  1.0000
  S   S164      1.0  0.85436  0.83776  0.34682  1.0000
  Fe  Fe84      1.0  0.83490  0.96559  0.37415  1.0000
  C   C727      1.0  0.92152  0.60695  0.28588  1.0000
  S   S165      1.0  0.83968  0.92149  0.28663  1.0000
  H   H1287     1.0  0.98205  0.54443  0.11379  1.0000
  Fe  Fe85      1.0  0.86210  0.55325  0.29692  1.0000
  S   S166      1.0  0.86864  0.59889  0.33179  1.0000
  H   H1288     1.0  0.92600  0.90891  0.29517  1.0000
  Fe  Fe86      1.0  0.82058  0.54433  0.32686  1.0000
  S   S167      1.0  0.82516  0.58892  0.36342  1.0000
  C   C728      1.0  0.74680  0.62561  0.30069  1.0000
  Fe  Fe87      1.0  0.83937  0.62004  0.32105  1.0000
  S   S168      1.0  0.82968  0.67704  0.30704  1.0000
  Fe  Fe88      1.0  0.85385  0.56407  0.37124  1.0000
  S   S169      1.0  0.86649  0.56067  0.42283  1.0000
  S   S170      1.0  0.83332  0.57641  0.28357  1.0000
  H   H1289     1.0  0.84258  0.86561  0.23299  1.0000
  C   C729      1.0  0.84660  0.79339  0.33633  1.0000
  C   C730      1.0  0.83229  0.78680  0.31327  1.0000
  C   C731      1.0  0.82736  0.75111  0.30472  1.0000
  C   C732      1.0  0.83658  0.72146  0.31906  1.0000
  C   C733      1.0  0.85083  0.72807  0.34220  1.0000
  C   C734      1.0  0.85577  0.76375  0.35074  1.0000
  H   H1290     1.0  0.82514  0.80918  0.30182  1.0000
  H   H1291     1.0  0.81637  0.74648  0.28669  1.0000
  H   H1292     1.0  0.85806  0.70571  0.35354  1.0000
  H   H1293     1.0  0.86680  0.76843  0.36867  1.0000
  C   C735      1.0  0.86332  0.52375  0.45071  1.0000
  H   H1294     1.0  0.90565  0.60881  0.28602  1.0000
  C   C736      1.0  0.76381  0.61942  0.37028  1.0000
  H   H1295     1.0  0.80276  0.97377  0.48100  1.0000
  C   C737      1.0  0.89354  0.78554  0.28512  1.0000
  H   H1296     1.0  0.72420  0.98088  0.36271  1.0000
  H   H1297     1.0  0.92624  0.59012  0.26450  1.0000
  H   H1298     1.0  0.75520  0.69803  0.30140  1.0000
  C   C738      1.0  0.93407  0.50275  0.21073  1.0000
  N   N41       1.0  0.76532  0.64407  0.30962  1.0000
  H   H1299     1.0  0.77032  0.59867  0.25235  1.0000
  C   C739      1.0  0.91152  0.92596  0.33976  1.0000
  H   H1300     1.0  0.78963  0.63694  0.21264  1.0000
  H   H1301     1.0  0.86675  0.84870  0.27605  1.0000
  H   H1302     1.0  0.85017  0.89233  0.19727  1.0000
  H   H1303     1.0  0.78485  0.68857  0.35670  1.0000
  H   H1304     1.0  0.92532  0.93410  0.35082  1.0000
  H   H1305     1.0  0.77492  0.92573  0.43985  1.0000
  H   H1306     1.0  0.78450  0.75452  0.35799  1.0000
  C   C740      1.0  0.73144  0.51340  0.29468  1.0000
  H   H1307     1.0  0.69068  0.95449  0.40871  1.0000
  S   S171      1.0  0.84877  0.51747  0.33729  1.0000
  H   H1308     1.0  0.89523  0.82723  0.32098  1.0000
  H   H1309     1.0  0.74910  0.59647  0.29637  1.0000
  C   C741      1.0  0.71896  0.97257  0.38809  1.0000
  H   H1310     1.0  0.89783  0.76088  0.33387  1.0000
  H   H1311     1.0  0.89425  0.72955  0.30057  1.0000
  H   H1312     1.0  0.77654  0.59374  0.32756  1.0000
  C   C742      1.0  0.86817  0.52804  0.48423  1.0000
  C   C743      1.0  0.87843  0.85026  0.25654  1.0000
  S   S172      1.0  0.88530  0.54166  0.25617  1.0000
  H   H1313     1.0  0.98398  0.49891  0.29653  1.0000
  C   C744      1.0  0.91376  0.86056  0.24765  1.0000
  C   C745      1.0  0.91609  0.83144  0.22062  1.0000
  C   C746      1.0  0.87311  0.87958  0.23076  1.0000
  H   H1314     1.0  0.98569  0.53500  0.32606  1.0000
  C   C747      1.0  0.93082  0.84338  0.19375  1.0000
  H   H1315     1.0  0.85591  0.84524  0.19901  1.0000
  C   C748      1.0  0.65980  0.51671  0.43332  1.0000
  C   C749      1.0  0.77886  0.64745  0.27980  1.0000
  H   H1316     1.0  0.87750  0.82449  0.24303  1.0000
  C   C750      1.0  0.98609  0.57280  0.11885  1.0000
  C   C751      1.0  0.91792  0.52366  0.21949  1.0000
  H   H1317     1.0  0.87766  0.78502  0.28803  1.0000
  H   H1318     1.0  0.89297  0.91209  0.27988  1.0000
  H   H1319     1.0  0.91253  0.88731  0.23525  1.0000
  H   H1320     1.0  0.92776  0.86189  0.26026  1.0000
  H   H1321     1.0  0.90248  0.82563  0.20802  1.0000
  H   H1322     1.0  0.92140  0.80633  0.23202  1.0000
  H   H1323     1.0  0.87125  0.90597  0.24281  1.0000
  H   H1324     1.0  0.88424  0.88255  0.21067  1.0000
  H   H1325     1.0  0.74921  0.68043  0.34136  1.0000
  H   H1326     1.0  0.80028  0.59352  0.21870  1.0000
  H   H1327     1.0  0.78961  0.63185  0.34028  1.0000
  H   H1328     1.0  0.76211  0.64630  0.38162  1.0000
  H   H1329     1.0  0.92599  0.86806  0.18080  1.0000
  H   H1330     1.0  0.94496  0.84889  0.20490  1.0000
  H   H1331     1.0  0.81029  0.63241  0.23868  1.0000
  H   H1332     1.0  0.79096  0.88833  0.43614  1.0000
  H   H1333     1.0  0.94105  0.85414  0.01488  1.0000
  H   H1334     1.0  0.75075  0.97228  0.42420  1.0000
  C   C752      1.0  0.89647  0.88778  0.29460  1.0000
  C   C753      1.0  0.90150  0.82290  0.29545  1.0000
  H   H1335     1.0  0.90196  0.91492  0.36001  1.0000
  N   N42       1.0  0.92671  0.53251  0.35444  1.0000
  C   C754      1.0  0.90510  0.51318  0.24566  1.0000
  C   C755      1.0  0.92133  0.55328  0.38541  1.0000
  C   C756      1.0  0.75346  0.50225  0.33963  1.0000
  C   C757      1.0  0.91963  0.55260  0.32452  1.0000
  C   C758      1.0  0.92821  0.59087  0.31870  1.0000
  H   H1336     1.0  0.80635  0.55734  0.48383  1.0000
  C   C759      1.0  0.78960  0.91642  0.44498  1.0000
  H   H1337     1.0  0.93713  0.90166  0.00976  1.0000
  H   H1338     1.0  0.92357  0.94913  0.19147  1.0000
  H   H1339     1.0  0.97351  0.58974  0.11369  1.0000
  H   H1340     1.0  0.93114  0.58031  0.44839  1.0000
  H   H1341     1.0  0.89474  0.95049  0.22916  1.0000
  C   C760      1.0  0.94823  0.52863  0.35253  1.0000
  H   H1342     1.0  0.95554  0.55471  0.35762  1.0000
  H   H1343     1.0  0.93005  0.57849  0.38651  1.0000
  H   H1344     1.0  0.69879  0.94791  0.33324  1.0000
  C   C761      1.0  0.91777  0.49536  0.35530  1.0000
  H   H1345     1.0  0.94369  0.51138  0.19057  1.0000
  H   H1346     1.0  0.92205  0.53677  0.30154  1.0000
  H   H1347     1.0  0.90385  0.55594  0.32648  1.0000
  H   H1348     1.0  0.94409  0.59071  0.31756  1.0000
  H   H1349     1.0  0.92350  0.60905  0.33906  1.0000
  H   H1350     1.0  0.70010  0.91177  0.36366  1.0000
  C   C762      1.0  0.66006  0.97771  0.45713  1.0000
  H   H1351     1.0  0.67755  0.93312  0.35611  1.0000
  C   C763      1.0  0.79671  0.61933  0.23097  1.0000
  C   C764      1.0  0.97836  0.50904  0.32084  1.0000
  H   H1352     1.0  0.95426  0.53309  0.29813  1.0000
  C   C765      1.0  0.76603  0.98478  0.29455  1.0000
  C   C766      1.0  0.69712  0.96524  0.38505  1.0000
  H   H1353     1.0  0.89011  0.51044  0.37967  1.0000
  C   C767      1.0  0.77184  0.73959  0.34872  1.0000
  H   H1354     1.0  0.68950  0.99004  0.37829  1.0000
  H   H1355     1.0  0.78868  0.60835  0.40019  1.0000
  C   C768      1.0  0.66166  0.54386  0.45736  1.0000
  H   H1356     1.0  0.74942  0.60700  0.36755  1.0000
  C   C769      1.0  0.77475  0.62191  0.33610  1.0000
  H   H1357     1.0  0.71322  0.95989  0.44871  1.0000
  S   S173      1.0  0.79258  0.51220  0.33621  1.0000
  H   H1358     1.0  0.90621  0.56254  0.38456  1.0000
  C   C770      1.0  0.76918  0.51428  0.31970  1.0000
  C   C771      1.0  0.95672  0.51413  0.31905  1.0000
  C   C772      1.0  0.71835  0.61923  0.26307  1.0000
  H   H1359     1.0  0.92770  0.63440  0.28230  1.0000
  H   H1360     1.0  0.95298  0.51016  0.37254  1.0000
  C   C773      1.0  0.76596  0.52538  0.28693  1.0000
  C   C774      1.0  0.77812  0.70295  0.33580  1.0000
  C   C775      1.0  0.74719  0.52506  0.27457  1.0000
  H   H1361     1.0  0.79288  0.65849  0.28745  1.0000
  H   H1362     1.0  0.74487  0.53368  0.24918  1.0000
  H   H1363     1.0  0.77797  0.53331  0.27087  1.0000
  H   H1364     1.0  0.88450  0.88459  0.31342  1.0000
  H   H1365     1.0  0.76609  0.59381  0.41877  1.0000
  H   H1366     1.0  0.98458  0.54383  0.01123  1.0000
  S   S174      1.0  0.70799  0.51414  0.27831  1.0000
  H   H1367     1.0  0.89728  0.77909  0.25891  1.0000
  H   H1368     1.0  0.78399  0.98155  0.39765  1.0000
  H   H1369     1.0  0.91692  0.75308  0.30342  1.0000
  H   H1370     1.0  0.77356  0.66738  0.26148  1.0000
  C   C776      1.0  0.93921  0.87600  0.99625  1.0000
  C   C777      1.0  0.85698  0.98075  0.46231  1.0000
  C   C778      1.0  0.76090  0.68135  0.32194  1.0000
  N   N43       1.0  0.89759  0.85479  0.27286  1.0000
  H   H1371     1.0  0.79093  0.59329  0.27795  1.0000
  H   H1372     1.0  0.73629  0.62655  0.32198  1.0000
  H   H1373     1.0  0.70834  0.61872  0.28508  1.0000
  H   H1374     1.0  0.76556  0.75574  0.32841  1.0000
  H   H1375     1.0  0.73936  0.98295  0.48041  1.0000
  H   H1376     1.0  0.72213  0.59117  0.25660  1.0000
  H   H1377     1.0  0.92132  0.54283  0.47232  1.0000
  H   H1378     1.0  0.76117  0.73635  0.36959  1.0000
  C   C779      1.0  0.91510  0.89758  0.31314  1.0000
  C   C780      1.0  0.69324  0.93778  0.35784  1.0000
  H   H1379     1.0  0.77428  0.56418  0.48957  1.0000
  H   H1380     1.0  0.78921  0.70800  0.31599  1.0000
  H   H1381     1.0  0.91537  0.54831  0.20590  1.0000
  H   H1382     1.0  0.71087  0.63127  0.24166  1.0000
  C   C781      1.0  0.85430  0.87000  0.21405  1.0000
  H   H1383     1.0  0.79906  0.54398  0.42510  1.0000
  C   C782      1.0  0.92258  0.96923  0.21074  1.0000
  C   C783      1.0  0.73639  0.64129  0.27023  1.0000
  H   H1384     1.0  0.74562  0.64107  0.24733  1.0000
  C   C784      1.0  0.90117  0.75552  0.30715  1.0000
  H   H1385     1.0  0.86166  0.96154  0.44380  1.0000
  C   C785      1.0  0.90623  0.96967  0.23236  1.0000
  S   S175      1.0  0.78362  0.95062  0.28973  1.0000
  H   H1386     1.0  0.73195  0.66934  0.27502  1.0000
  H   H1387     1.0  0.80019  0.93336  0.43071  1.0000
  C   C786      1.0  0.77449  0.59611  0.39495  1.0000
  C   C787      1.0  0.78346  0.61210  0.26128  1.0000
  H   H1388     1.0  0.77650  0.56867  0.38481  1.0000
  H   H1389     1.0  0.92124  0.87386  0.32565  1.0000
  H   H1390     1.0  0.98960  0.57557  0.14557  1.0000
  H   H1391     1.0  0.90498  0.95023  0.32876  1.0000
  H   H1392     1.0  0.72585  0.94632  0.39342  1.0000
  H   H1393     1.0  0.93260  0.82181  0.17499  1.0000
  H   H1394     1.0  0.77796  0.96720  0.48760  1.0000
  H   H1395     1.0  0.88923  0.50328  0.33547  1.0000
  C   C788      1.0  0.80604  0.51787  0.42964  1.0000
  H   H1396     1.0  0.80806  0.90729  0.48565  1.0000
  C   C789      1.0  0.74648  0.97581  0.29137  1.0000
  C   C790      1.0  0.89562  0.49372  0.35891  1.0000
  C   C791      1.0  0.92029  0.55822  0.44860  1.0000
  H   H1397     1.0  0.66141  0.57179  0.44969  1.0000
  H   H1398     1.0  0.80112  0.49845  0.41070  1.0000
  H   H1399     1.0  0.93835  0.52226  0.42103  1.0000
  H   H1400     1.0  0.65932  0.95057  0.44767  1.0000
  H   H1401     1.0  0.75577  0.49326  0.36491  1.0000
  H   H1402     1.0  0.90576  0.56995  0.44778  1.0000
  C   C792      1.0  0.71530  0.98963  0.44693  1.0000
  C   C793      1.0  0.92373  0.53319  0.41908  1.0000
  C   C794      1.0  0.79348  0.91800  0.48224  1.0000
  C   C795      1.0  0.73471  0.50202  0.32731  1.0000
  H   H1403     1.0  0.72272  0.49349  0.34321  1.0000
  H   H1404     1.0  0.75519  0.98821  0.36390  1.0000
  H   H1405     1.0  0.91323  0.51061  0.42178  1.0000
  H   H1406     1.0  0.82175  0.52173  0.42636  1.0000
  C   C796      1.0  0.80078  0.50377  0.46464  1.0000
  H   H1407     1.0  0.78496  0.50120  0.46626  1.0000
  Fe  Fe89      1.0  0.69566  0.93684  0.62988  1.0000
  S   S176      1.0  0.68730  0.89833  0.58948  1.0000
  H   H1408     1.0  0.75568  0.94833  0.52148  1.0000
  Fe  Fe90      1.0  0.68915  0.53211  0.63384  1.0000
  H   H1409     1.0  0.94077  0.91279  0.86074  1.0000
  S   S177      1.0  0.69149  0.58261  0.60312  1.0000
  H   H1410     1.0  0.93960  0.55276  0.85321  1.0000
  C   C797      1.0  0.91463  0.90708  0.54453  1.0000
  S   S178      1.0  0.97608  0.93571  0.82756  1.0000
  S   S179      1.0  0.67639  0.98105  0.61247  1.0000
  C   C798      1.0  0.67637  0.77054  0.65318  1.0000
  C   C799      1.0  0.89096  0.93670  0.64445  1.0000
  C   C800      1.0  0.86712  0.98494  0.49200  1.0000
  H   H1411     1.0  0.85375  0.57971  0.57895  1.0000
  Fe  Fe91      1.0  0.97987  0.56204  0.79633  1.0000
  S   S180      1.0  0.94835  0.55582  0.78090  1.0000
  H   H1412     1.0  0.93953  0.95328  0.65201  1.0000
  H   H1413     1.0  0.66520  0.93704  0.78373  1.0000
  H   H1414     1.0  0.93615  0.92916  0.72597  1.0000
  H   H1415     1.0  0.91182  0.90108  0.69010  1.0000
  C   C801      1.0  0.86314  0.93714  0.68659  1.0000
  C   C802      1.0  0.95688  0.87929  0.97309  1.0000
  C   C803      1.0  0.93616  0.53314  0.74821  1.0000
  C   C804      1.0  0.75928  0.94629  0.54806  1.0000
  H   H1416     1.0  0.79994  0.61260  0.70873  1.0000
  C   C805      1.0  0.90669  0.93183  0.57162  1.0000
  H   H1417     1.0  0.97357  0.86141  0.87260  1.0000
  H   H1418     1.0  0.98969  0.89423  0.94203  1.0000
  S   S181      1.0  0.71412  0.49534  0.64709  1.0000
  C   C806      1.0  0.75420  0.69300  0.69319  1.0000
  C   C807      1.0  0.67147  0.70503  0.65001  1.0000
  H   H1419     1.0  0.95493  0.91757  0.69627  1.0000
  H   H1420     1.0  0.85195  0.94379  0.56077  1.0000
  H   H1421     1.0  0.83309  0.60700  0.57147  1.0000
  C   C808      1.0  0.90563  0.51585  0.72288  1.0000
  C   C809      1.0  0.74849  0.52938  0.62681  1.0000
  C   C810      1.0  0.83787  0.57945  0.57771  1.0000
  N   N44       1.0  0.91072  0.94975  0.63351  1.0000
  Fe  Fe92      1.0  0.66547  0.56195  0.57711  1.0000
  H   H1422     1.0  0.96954  0.89776  0.89961  1.0000
  H   H1423     1.0  0.97502  0.73423  0.91887  1.0000
  H   H1424     1.0  0.93309  0.93159  0.59929  1.0000
  H   H1425     1.0  0.81228  0.95232  0.59489  1.0000
  C   C811      1.0  0.72664  0.58403  0.72095  1.0000
  C   C812      1.0  0.68178  0.73511  0.66149  1.0000
  H   H1426     1.0  0.93029  0.88844  0.66038  1.0000
  Fe  Fe93      1.0  0.66672  0.94103  0.57426  1.0000
  C   C813      1.0  0.92475  0.94659  0.66134  1.0000
  H   H1427     1.0  0.90811  0.95977  0.56190  1.0000
  H   H1428     1.0  0.81548  0.91916  0.53762  1.0000
  H   H1429     1.0  0.73312  0.73512  0.70113  1.0000
  H   H1430     1.0  0.76423  0.61141  0.71413  1.0000
  S   S182      1.0  0.67814  0.66099  0.66308  1.0000
  C   C814      1.0  0.92584  0.90923  0.67855  1.0000
  C   C815      1.0  0.74706  0.72656  0.71115  1.0000
  H   H1431     1.0  0.92171  0.96680  0.68098  1.0000
  H   H1432     1.0  0.89121  0.92542  0.57510  1.0000
  H   H1433     1.0  0.74433  0.55482  0.54694  1.0000
  H   H1434     1.0  0.85272  0.93885  0.66622  1.0000
  C   C816      1.0  0.76870  0.53226  0.62519  1.0000
  H   H1435     1.0  0.69565  0.57846  0.72682  1.0000
  C   C817      1.0  0.78081  0.93938  0.55311  1.0000
  H   H1436     1.0  0.77542  0.55616  0.61454  1.0000
  H   H1437     1.0  0.79641  0.57396  0.68231  1.0000
  N   N45       1.0  0.74335  0.62801  0.67815  1.0000
  C   C818      1.0  0.74333  0.63676  0.64132  1.0000
  C   C819      1.0  0.76176  0.60941  0.68687  1.0000
  C   C820      1.0  0.72686  0.60208  0.68577  1.0000
  C   C821      1.0  0.74016  0.66096  0.69920  1.0000
  H   H1438     1.0  0.95945  0.73015  0.88390  1.0000
  C   C822      1.0  0.72532  0.65594  0.62869  1.0000
  C   C823      1.0  0.78046  0.62147  0.66786  1.0000
  C   C824      1.0  0.72694  0.66348  0.59122  1.0000
  H   H1439     1.0  0.74513  0.61167  0.62672  1.0000
  H   H1440     1.0  0.75570  0.65412  0.63364  1.0000
  H   H1441     1.0  0.93025  0.49748  0.82400  1.0000
  Fe  Fe94      1.0  0.98524  0.97056  0.78388  1.0000
  H   H1442     1.0  0.72669  0.57996  0.66720  1.0000
  H   H1443     1.0  0.71284  0.61572  0.68346  1.0000
  H   H1444     1.0  0.72526  0.67085  0.69635  1.0000
  H   H1445     1.0  0.74106  0.65417  0.72611  1.0000
  H   H1446     1.0  0.78275  0.65089  0.66825  1.0000
  H   H1447     1.0  0.94709  0.83121  0.94788  1.0000
  H   H1448     1.0  0.71248  0.63884  0.63302  1.0000
  H   H1449     1.0  0.72311  0.68199  0.64140  1.0000
  S   S183      1.0  0.66323  0.94531  0.51803  1.0000
  H   H1450     1.0  0.77992  0.61316  0.64137  1.0000
  Fe  Fe95      1.0  0.66402  0.87782  0.62463  1.0000
  H   H1451     1.0  0.73932  0.68170  0.58528  1.0000
  H   H1452     1.0  0.72859  0.63800  0.57723  1.0000
  H   H1453     1.0  0.71366  0.67669  0.58299  1.0000
  H   H1454     1.0  0.69395  0.73101  0.67714  1.0000
  H   H1455     1.0  0.73979  0.55055  0.61698  1.0000
  N   N46       1.0  0.80122  0.52268  0.52683  1.0000
  H   H1456     1.0  0.80311  0.54981  0.57414  1.0000
  H   H1457     1.0  0.94131  0.88268  0.71794  1.0000
  H   H1458     1.0  0.84707  0.94762  0.60487  1.0000
  H   H1459     1.0  0.90835  0.55109  0.76517  1.0000
  C   C825      1.0  0.91602  0.53498  0.74705  1.0000
  S   S184      1.0  0.98997  0.97337  0.91133  1.0000
  H   H1460     1.0  0.95304  0.54916  0.89074  1.0000
  C   C826      1.0  0.79799  0.60374  0.68265  1.0000
  Fe  Fe96      1.0  0.67040  0.60635  0.64014  1.0000
  C   C827      1.0  0.81478  0.94893  0.53964  1.0000
  H   H1461     1.0  0.99092  0.55153  0.95020  1.0000
  H   H1462     1.0  0.76820  0.93864  0.65184  1.0000
  H   H1463     1.0  0.98511  0.83927  0.69536  1.0000
  S   S185      1.0  0.67355  0.91333  0.66653  1.0000
  C   C828      1.0  0.96634  0.86852  0.89667  1.0000
  H   H1464     1.0  0.75596  0.70016  0.66643  1.0000
  C   C829      1.0  0.94428  0.86554  0.89217  1.0000
  H   H1465     1.0  0.75513  0.97146  0.56094  1.0000
  H   H1466     1.0  0.86517  0.90853  0.69360  1.0000
  H   H1467     1.0  0.91626  0.89793  0.61152  1.0000
  C   C830      1.0  0.91525  0.49437  0.69948  1.0000
  C   C831      1.0  0.70854  0.56126  0.72711  1.0000
  C   C832      1.0  0.91753  0.92693  0.60472  1.0000
  H   H1468     1.0  0.83814  0.90915  0.58284  1.0000
  H   H1469     1.0  0.82610  0.98803  0.57538  1.0000
  H   H1470     1.0  0.93652  0.87916  0.91287  1.0000
  H   H1471     1.0  0.86951  0.50323  0.53306  1.0000
  S   S186      1.0  0.72755  0.93933  0.64267  1.0000
  C   C833      1.0  0.88225  0.95473  0.67595  1.0000
  N   N47       1.0  0.79484  0.96181  0.53229  1.0000
  H   H1472     1.0  0.99046  0.81137  0.89183  1.0000
  H   H1473     1.0  0.92879  0.53195  0.89020  1.0000
  H   H1474     1.0  0.93910  0.83739  0.89192  1.0000
  H   H1475     1.0  0.66288  0.88140  0.75122  1.0000
  H   H1476     1.0  0.76836  0.68652  0.70345  1.0000
  H   H1477     1.0  0.96681  0.82449  0.97343  1.0000
  H   H1478     1.0  0.88060  0.94160  0.62438  1.0000
  H   H1479     1.0  0.97077  0.98896  0.97400  1.0000
  H   H1480     1.0  0.97337  0.76672  0.79029  1.0000
  H   H1481     1.0  0.92257  0.87870  0.85650  1.0000
  H   H1482     1.0  0.66384  0.94700  0.73989  1.0000
  H   H1483     1.0  0.74283  0.53581  0.50567  1.0000
  C   C834      1.0  0.97095  0.74681  0.89491  1.0000
  H   H1484     1.0  0.83851  0.56123  0.52720  1.0000
  H   H1485     1.0  0.70897  0.96318  0.51114  1.0000
  C   C835      1.0  0.94579  0.51222  0.72444  1.0000
  S   S187      1.0  0.80567  0.51075  0.63679  1.0000
  C   C836      1.0  0.77064  0.56010  0.51644  1.0000
  H   H1486     1.0  0.74873  0.89083  0.54828  1.0000
  H   H1487     1.0  0.96350  0.50358  0.84972  1.0000
  H   H1488     1.0  0.90666  0.91126  0.52122  1.0000
  C   C837      1.0  0.80945  0.55192  0.54841  1.0000
  H   H1489     1.0  0.83187  0.57139  0.60266  1.0000
  S   S188      1.0  0.66944  0.55637  0.67300  1.0000
  H   H1490     1.0  0.94602  0.87185  0.83799  1.0000
  H   H1491     1.0  0.98741  0.79511  0.93362  1.0000
  H   H1492     1.0  0.95141  0.78322  0.91825  1.0000
  C   C838      1.0  0.98003  0.80962  0.91328  1.0000
  H   H1493     1.0  0.82536  0.95974  0.52065  1.0000
  C   C839      1.0  0.94229  0.53538  0.87520  1.0000
  H   H1494     1.0  0.75086  0.91013  0.58919  1.0000
  H   H1495     1.0  0.68435  0.79331  0.66245  1.0000
  C   C840      1.0  0.84108  0.93851  0.58101  1.0000
  C   C841      1.0  0.98682  0.76226  0.80236  1.0000
  H   H1496     1.0  0.74258  0.58382  0.51097  1.0000
  H   H1497     1.0  0.95906  0.79521  0.87599  1.0000
  H   H1498     1.0  0.74530  0.72134  0.73838  1.0000
  H   H1499     1.0  0.75759  0.74894  0.70724  1.0000
  C   C842      1.0  0.94046  0.90978  0.70630  1.0000
  H   H1500     1.0  0.89074  0.90706  0.64845  1.0000
  C   C843      1.0  0.83159  0.55275  0.55127  1.0000
  H   H1501     1.0  0.73156  0.92329  0.56296  1.0000
  C   C844      1.0  0.82266  0.95884  0.57432  1.0000
  H   H1502     1.0  0.76055  0.58005  0.68164  1.0000
  H   H1503     1.0  0.72710  0.60424  0.74103  1.0000
  C   C845      1.0  0.74691  0.91573  0.56304  1.0000
  C   C846      1.0  0.94996  0.49891  0.86423  1.0000
  H   H1504     1.0  0.78303  0.94372  0.58011  1.0000
  N   N48       1.0  0.97455  0.84676  0.92487  1.0000
  H   H1505     1.0  0.80570  0.57899  0.53894  1.0000
  H   H1506     1.0  0.87945  0.98334  0.67050  1.0000
  H   H1507     1.0  0.78351  0.91024  0.54955  1.0000
  H   H1508     1.0  0.77506  0.52212  0.55652  1.0000
  C   C847      1.0  0.76463  0.96572  0.64448  1.0000
  H   H1509     1.0  0.93003  0.91322  0.53919  1.0000
  H   H1510     1.0  0.98518  0.70429  0.79690  1.0000
  H   H1511     1.0  0.89183  0.95311  0.69749  1.0000
  H   H1512     1.0  0.98940  0.80895  0.72962  1.0000
  H   H1513     1.0  0.96124  0.51097  0.72449  1.0000
  H   H1514     1.0  0.87968  0.96896  0.49617  1.0000
  H   H1515     1.0  0.85708  0.95146  0.70859  1.0000
  C   C848      1.0  0.93815  0.88333  0.85980  1.0000
  H   H1516     1.0  0.83720  0.52619  0.55837  1.0000
  C   C849      1.0  0.77967  0.52511  0.52985  1.0000
  H   H1517     1.0  0.98355  0.74691  0.87741  1.0000
  C   C850      1.0  0.96381  0.78504  0.90051  1.0000
  H   H1518     1.0  0.93078  0.98429  0.78239  1.0000
  C   C851      1.0  0.78027  0.50444  0.63714  1.0000
  H   H1519     1.0  0.79385  0.98575  0.64762  1.0000
  H   H1520     1.0  0.70907  0.54784  0.75189  1.0000
  H   H1521     1.0  0.73902  0.56588  0.72361  1.0000
  H   H1522     1.0  0.91292  0.87846  0.55227  1.0000
  H   H1523     1.0  0.81104  0.61130  0.66765  1.0000
  H   H1524     1.0  0.77249  0.50278  0.51687  1.0000
  C   C852      1.0  0.73953  0.49911  0.64147  1.0000
  C   C853      1.0  0.96098  0.84346  0.95469  1.0000
  H   H1525     1.0  0.95470  0.90179  0.95530  1.0000
  H   H1526     1.0  0.89018  0.51747  0.72254  1.0000
  S   S189      1.0  0.66430  0.50972  0.60527  1.0000
  H   H1527     1.0  0.70737  0.54013  0.70785  1.0000
  H   H1528     1.0  0.98747  0.85677  0.73673  1.0000
  S   S190      1.0  0.66366  0.57005  0.52102  1.0000
  H   H1529     1.0  0.77550  0.58395  0.53043  1.0000
  C   C854      1.0  0.79201  0.95703  0.49535  1.0000
  C   C855      1.0  0.74878  0.55841  0.52029  1.0000
  S   S191      1.0  0.98561  0.58923  0.84574  1.0000
  H   H1530     1.0  0.92620  0.87041  0.98168  1.0000
  C   C856      1.0  0.66389  0.49896  0.50089  1.0000
  C   C857      1.0  0.66340  0.53511  0.49130  1.0000
  S   S192      1.0  0.98816  0.83628  0.80833  1.0000
  C   C858      1.0  0.93541  0.49287  0.70047  1.0000
  H   H1531     1.0  0.96926  0.88673  0.98864  1.0000
  C   C859      1.0  0.74541  0.97389  0.63802  1.0000
  H   H1532     1.0  0.78285  0.89999  0.49519  1.0000
  C   C860      1.0  0.86570  0.49955  0.50734  1.0000
  C   C861      1.0  0.66029  0.77638  0.63379  1.0000
  C   C862      1.0  0.66204  0.98323  0.49147  1.0000
  C   C863      1.0  0.90961  0.98878  0.62339  1.0000
  H   H1533     1.0  0.66574  0.49201  0.52679  1.0000
  H   H1534     1.0  0.87377  0.55364  0.49245  1.0000
  H   H1535     1.0  0.93385  0.99045  0.58652  1.0000
  C   C864      1.0  0.80870  0.52898  0.49161  1.0000
  H   H1536     1.0  0.82453  0.52581  0.49021  1.0000
