data_image0
_chemical_formula_structural       H2S2H2C6H4CHC6H4NC8HC3H3CH18CHCH9CH5CHCH4CH4CH4CSHCH2CHSH2CH2CNCH7C2H3CH3SFeS2HSFeSFeS4FeSCFeSFeSFeS3CSCH2SH7C4HCHSCH2C6H4CH2C3H2C2H5C6H4CH2C3H8CH5CH6CFeHC3NH2CHCH4CH2C3H3NC12H20C3H5CH2NHC2H7CH2C2HCNH2CH3C3H5CH3C2H2CH3CFeSH6CH2C3H3NH2CHCH4CH6CH5CH4C2H2NHCHCH3CH4CSCH2CHC2HCH4CHNCH2CH2CH3CHC2HC2H3C2H3CH4CNHCH2CHCH4C2HCHC2HCH4CHFeCSFeS2FeSHS2FeSHFeS2FeCFeS2HCSHSFeSFeSHFeCSC2H2S3C4H3CH2CHC4H2C6H4C6H4CH2C3SH2C2H6CH4CH2CHCH3FeCHCSH2CH10C2HC2HFeHNHC2H3SH2C2HCH4CH2CNH5C2SH3NC7H2C3H27CNC8HC3H2CH13CHCHCHCH4NHCH2CH3SH5CH4C2HCFeH2CSH3CH4CHC2HCHC2H7CH4Fe2NH2CH4CHCFeH3SCHCH3C2H3SCH4CHC2H2CH4C2H2CH3CFeCS2CHCHSFeS2FeS2FeSFeS3FeS2FeS2FeSFeS3H2SH2SH4C3H2C7H4C6H4C6H5C2H4C6H4C6H5NC11H20CHCH3C2H4CNC12H22SHCH10FeH4S2HC3SH5CH3C2H3CHCNH2CHCH3CH2CH12CH4CH2C3H3C3HNH2C3HC2HCH2C2HCH2C2FeH6C2H5CH6CH3NH2FeSCHFeCFeS3FeHSFeS2CHS2CHFeCSHS2FeNHFeH2SH2CHC7HCH8C2HCSC6H2CH2CHC3H2C3H4CH2CH7CHCHC2H2SNH2CHSHCHCHCH4SH7CH2CHC2H2C2H8Fe2NCH4FeCH2CHCHCHCH3FeS2FeS2FeHSHFeS2FeS2H2S2NHSH2SCH3C6H4C6H4C3H4C3H5CHNH2C2H5CHSHC2H2CH4CH9CHCHCHCSH3C2HCHC2HCH3CHC2NCH4CHCHC2H3CH5CH9C2HC4HCNCHCH4CH3C3FeCHCH11CH2FeHFeCH3CFeH4CHC2HSFeS2FeS2FeSFeS3FeS2FeS2FeSFeS3HFeHSH2SCFeHSHCHCSHC2H5SH2C6H4C6H5CHC6H4C6H4C6H4CH3CH4SC2HNSH2NC12H24CH4CH2CH5CH3CHCHCHCNH4SHCH2CHCHNHCH2FeH3C2HCHFeH2CHSNC4HC4SC2H18CH3CH3CHCH2C2HCHCH2C2HSH3CH2CHCHC2HCH3C2HC2H3CH2FeH3CSFeS2FeSFeS3FeS2HSFeSFeS3HS3HSH3C4H2CHC2H3C6H4C6H4CH2C4H2C3H2NHCH2C4H2SH6CH8C3H4CH8NH3FeH2CSCH5CH2CH2CH2CHC3H2CH2FeHC2H4CH3CH2CH4CHCHNH9CH2FeHCSH2C2NC2H2CH2CNCH2NH7CH3CHNHCH4C2HC3H4C2H5C4H6CH2C3HCHCH4C2HCH4CH2CHCH2CH2C2H5C2H2CHCHCH2CHCFeH2C2HC2HC2H5C2HCHC2HFeH8SC2H2CH5C2HCH2C3HFe2S2HSFeSFeS3HCSFeSHFeSFeSFeH2CHSHS2FeSFeSHFeCSHCH2S2C3H6CHCHFe2CHC2HC6H4C3HC4H2C2H2CH3C6H4CH3SH2C3H3CHCH2CH2CHCHC5H2CH4C2HCHCH3CNH2CHNH3CHCNCHC2H3CH3SHCHNH2CH7C3HCH2S2CHCH5SCHC3H5CHNH2NH2CH5CH2C2H4C2HCHC2H2CH2CHCH2FeCSH5CSH2CH13CH3C2H5CH2C2H2SCSHSHCH3CH2C2HCFeH2C2SFeH6CH3CH9C3H8S3C6H4C6H4C2HCH2CH3CH3CH3CH2CH6C3H9CHNH4C2HCH3CHSHC2H3CHCH3CH2CH2CH3CNH4CH2C2H4CH2C2H12CH
_chemical_formula_sum              "H1536 S192 C864 N48 Fe96"
_cell_length_a       59.1475
_cell_length_b       59.2118
_cell_length_c       35.2622
_cell_angle_alpha    89.9554
_cell_angle_beta     90.2532
_cell_angle_gamma    90.0497

_space_group_name_H-M_alt    "P 1"
_space_group_IT_number       1

loop_
  _space_group_symop_operation_xyz
  'x, y, z'

loop_
  _atom_site_type_symbol
  _atom_site_label
  _atom_site_symmetry_multiplicity
  _atom_site_fract_x
  _atom_site_fract_y
  _atom_site_fract_z
  _atom_site_occupancy
  H   H1        1.0  0.02034  0.33745  0.06126  1.0000
  H   H2        1.0  0.15639  0.47134  0.07176  1.0000
  S   S1        1.0  0.01383  0.39154  0.17511  1.0000
  S   S2        1.0  0.01716  0.09139  0.17945  1.0000
  H   H3        1.0  0.19411  0.45383  0.12424  1.0000
  H   H4        1.0  0.02734  0.07068  0.04961  1.0000
  C   C1        1.0  0.05490  0.45815  0.19088  1.0000
  C   C2        1.0  0.06336  0.44008  0.16960  1.0000
  C   C3        1.0  0.05052  0.42003  0.16508  1.0000
  C   C4        1.0  0.02890  0.41766  0.18138  1.0000
  C   C5        1.0  0.02028  0.43583  0.20221  1.0000
  C   C6        1.0  0.03319  0.45583  0.20692  1.0000
  H   H5        1.0  0.07994  0.44146  0.15698  1.0000
  H   H6        1.0  0.05749  0.40619  0.14893  1.0000
  H   H7        1.0  0.00383  0.43439  0.21523  1.0000
  H   H8        1.0  0.02637  0.46959  0.22348  1.0000
  C   C7        1.0  0.00090  0.46291  0.10538  1.0000
  H   H9        1.0  0.99066  0.13382  0.01419  1.0000
  C   C8        1.0  0.05436  0.02227  0.18851  1.0000
  C   C9        1.0  0.06595  0.04211  0.17906  1.0000
  C   C10       1.0  0.05427  0.06293  0.17634  1.0000
  C   C11       1.0  0.03080  0.06435  0.18270  1.0000
  C   C12       1.0  0.01915  0.04443  0.19150  1.0000
  C   C13       1.0  0.03085  0.02366  0.19462  1.0000
  H   H10       1.0  0.08399  0.04147  0.17423  1.0000
  H   H11       1.0  0.06359  0.07812  0.16948  1.0000
  H   H12       1.0  0.00057  0.09318  0.01469  1.0000
  H   H13       1.0  0.02160  0.00848  0.20178  1.0000
  N   N1        1.0  0.03416  0.31541  0.18840  1.0000
  C   C14       1.0  0.01900  0.31578  0.15387  1.0000
  C   C15       1.0  0.02256  0.30232  0.21958  1.0000
  C   C16       1.0  0.03660  0.33952  0.20192  1.0000
  C   C17       1.0  0.05735  0.30588  0.18035  1.0000
  C   C18       1.0  0.05890  0.28717  0.14953  1.0000
  C   C19       1.0  0.02660  0.33166  0.12123  1.0000
  C   C20       1.0  0.05016  0.34314  0.23923  1.0000
  C   C21       1.0  0.17622  0.45561  0.11491  1.0000
  H   H14       1.0  0.18330  0.46016  0.05606  1.0000
  C   C22       1.0  0.08215  0.27593  0.14986  1.0000
  C   C23       1.0  0.00374  0.26675  0.24412  1.0000
  C   C24       1.0  0.05482  0.36823  0.24605  1.0000
  H   H15       1.0  0.06150  0.04672  0.04545  1.0000
  H   H16       1.0  0.00103  0.08713  0.26389  1.0000
  H   H17       1.0  0.03290  0.30250  0.24595  1.0000
  C   C25       1.0  0.99373  0.42465  0.07887  1.0000
  H   H18       1.0  0.01961  0.34723  0.20610  1.0000
  H   H19       1.0  0.04508  0.35003  0.17999  1.0000
  H   H20       1.0  0.06909  0.31951  0.17095  1.0000
  H   H21       1.0  0.06501  0.29917  0.20700  1.0000
  H   H22       1.0  0.05632  0.29453  0.12089  1.0000
  H   H23       1.0  0.04604  0.27380  0.15316  1.0000
  H   H24       1.0  0.01316  0.26759  0.27141  1.0000
  H   H25       1.0  0.04522  0.33165  0.11771  1.0000
  H   H26       1.0  0.06664  0.33422  0.23843  1.0000
  H   H27       1.0  0.04038  0.33698  0.26397  1.0000
  H   H28       1.0  0.00802  0.27444  0.18540  1.0000
  H   H29       1.0  0.06382  0.05420  0.09511  1.0000
  H   H30       1.0  0.00018  0.39100  0.02347  1.0000
  H   H31       1.0  0.00170  0.32130  0.16201  1.0000
  H   H32       1.0  0.00226  0.05206  0.01096  1.0000
  H   H33       1.0  0.08517  0.26723  0.17735  1.0000
  H   H34       1.0  0.08301  0.26317  0.12684  1.0000
  H   H35       1.0  0.09567  0.28866  0.14514  1.0000
  C   C26       1.0  0.03154  0.03902  0.07903  1.0000
  H   H36       1.0  0.23439  0.47545  0.18614  1.0000
  C   C27       1.0  0.01572  0.32498  0.08346  1.0000
  H   H37       1.0  0.06488  0.37554  0.22248  1.0000
  H   H38       1.0  0.03868  0.37773  0.24843  1.0000
  H   H39       1.0  0.06342  0.08080  0.29063  1.0000
  H   H40       1.0  0.06447  0.37043  0.27288  1.0000
  H   H41       1.0  0.01955  0.46448  0.05088  1.0000
  H   H42       1.0  0.00514  0.42828  0.05479  1.0000
  H   H43       1.0  0.01657  0.29861  0.14202  1.0000
  H   H44       1.0  0.01269  0.10792  0.05426  1.0000
  H   H45       1.0  0.00622  0.31060  0.22683  1.0000
  C   C28       1.0  0.17461  0.46973  0.07869  1.0000
  H   H46       1.0  0.99844  0.10001  0.34942  1.0000
  H   H47       1.0  0.99362  0.48025  0.10615  1.0000
  H   H48       1.0  0.16916  0.43850  0.10973  1.0000
  H   H49       1.0  0.04498  0.08814  0.25185  1.0000
  H   H50       1.0  0.04746  0.05899  0.26703  1.0000
  C   C29       1.0  0.01933  0.06208  0.07420  1.0000
  H   H51       1.0  0.03375  0.26744  0.21079  1.0000
  C   C30       1.0  0.05713  0.04149  0.07478  1.0000
  H   H52       1.0  0.00673  0.05810  0.27220  1.0000
  H   H53       1.0  0.03324  0.44838  0.08759  1.0000
  H   H54       1.0  0.99700  0.32458  0.08597  1.0000
  H   H55       1.0  0.02137  0.34927  0.12765  1.0000
  C   C31       1.0  0.02771  0.08056  0.30480  1.0000
  H   H56       1.0  0.00482  0.41704  0.10115  1.0000
  H   H57       1.0  0.02379  0.07256  0.09947  1.0000
  H   H58       1.0  0.02553  0.02654  0.05782  1.0000
  H   H59       1.0  0.02849  0.03215  0.10790  1.0000
  C   C32       1.0  0.01767  0.27703  0.21200  1.0000
  H   H60       1.0  0.06545  0.02506  0.08090  1.0000
  H   H61       1.0  0.16637  0.46359  0.13806  1.0000
  H   H62       1.0  0.00691  0.45946  0.13484  1.0000
  H   H63       1.0  0.00004  0.24874  0.23767  1.0000
  C   C33       1.0  0.00443  0.07457  0.28686  1.0000
  S   S3        1.0  0.07045  0.48393  0.19831  1.0000
  H   H64       1.0  0.02825  0.09865  0.31301  1.0000
  C   C34       1.0  0.02295  0.46373  0.08170  1.0000
  H   H65       1.0  0.02170  0.30805  0.07446  1.0000
  H   H66       1.0  0.03119  0.07009  0.33026  1.0000
  C   C35       1.0  0.04699  0.07684  0.27678  1.0000
  H   H67       1.0  0.00178  0.37881  0.07057  1.0000
  S   S4        1.0  0.06814  0.99540  0.19329  1.0000
  H   H68       1.0  0.00114  0.04496  0.19585  1.0000
  H   H69       1.0  0.04149  0.48407  0.12311  1.0000
  C   C36       1.0  0.99655  0.10159  0.04193  1.0000
  H   H70       1.0  0.99936  0.06156  0.36663  1.0000
  H   H71       1.0  0.22421  0.47786  0.05249  1.0000
  C   C37       1.0  0.23418  0.47625  0.99425  1.0000
  N   N2        1.0  0.99393  0.06110  0.06904  1.0000
  C   C38       1.0  0.03740  0.48422  0.09232  1.0000
  H   H72       1.0  0.25176  0.47117  0.00153  1.0000
  H   H73       1.0  0.99947  0.04117  0.33004  1.0000
  H   H74       1.0  0.19030  0.48189  0.00747  1.0000
  H   H75       1.0  0.05353  0.48382  0.07634  1.0000
  H   H76       1.0  0.15151  0.48258  0.01364  1.0000
  H   H77       1.0  0.99131  0.03064  0.10299  1.0000
  H   H78       1.0  0.98994  0.05632  0.12929  1.0000
  C   C39       1.0  0.98900  0.05487  0.34267  1.0000
  C   C40       1.0  0.99021  0.38591  0.04870  1.0000
  H   H79       1.0  0.27425  0.48822  0.17859  1.0000
  H   H80       1.0  0.01882  0.00890  0.74726  1.0000
  H   H81       1.0  0.04786  0.00281  0.73596  1.0000
  C   C41       1.0  0.03331  0.99757  0.75374  1.0000
  H   H82       1.0  0.03782  0.99962  0.78417  1.0000
  H   H83       1.0  0.23471  0.48702  0.96844  1.0000
  H   H84       1.0  0.22424  0.46073  0.98814  1.0000
  S   S5        1.0  0.28804  0.96800  0.20435  1.0000
  Fe  Fe1       1.0  0.14803  0.95558  0.16531  1.0000
  S   S6        1.0  0.13734  0.91944  0.17244  1.0000
  S   S7        1.0  0.18513  0.95741  0.14441  1.0000
  H   H85       1.0  0.27467  0.93580  0.43956  1.0000
  S   S8        1.0  0.08826  0.93687  0.19661  1.0000
  Fe  Fe2       1.0  0.12123  0.93075  0.22679  1.0000
  S   S9        1.0  0.13010  0.90503  0.27361  1.0000
  Fe  Fe3       1.0  0.10524  0.92825  0.14169  1.0000
  S   S10       1.0  0.08414  0.90356  0.10568  1.0000
  S   S11       1.0  0.13237  0.96701  0.22065  1.0000
  S   S12       1.0  0.11639  0.96393  0.13029  1.0000
  S   S13       1.0  0.29388  0.53335  0.16236  1.0000
  Fe  Fe4       1.0  0.15508  0.51326  0.17929  1.0000
  S   S14       1.0  0.14968  0.54983  0.16700  1.0000
  C   C42       1.0  0.15135  0.50072  0.00626  1.0000
  Fe  Fe5       1.0  0.10295  0.50469  0.18560  1.0000
  S   S15       1.0  0.09542  0.54164  0.17406  1.0000
  Fe  Fe6       1.0  0.12129  0.53924  0.12800  1.0000
  S   S16       1.0  0.12061  0.55485  0.06825  1.0000
  Fe  Fe7       1.0  0.12424  0.54934  0.21423  1.0000
  S   S17       1.0  0.12828  0.58039  0.25250  1.0000
  S   S18       1.0  0.12793  0.50207  0.13728  1.0000
  S   S19       1.0  0.13060  0.51288  0.22866  1.0000
  C   C43       1.0  0.10195  0.86867  0.19392  1.0000
  S   S20       1.0  0.10473  0.59199  0.42838  1.0000
  C   C44       1.0  0.16615  0.53949  0.30602  1.0000
  H   H86       1.0  0.11746  0.83955  0.16649  1.0000
  H   H87       1.0  0.11747  0.80497  0.29709  1.0000
  S   S21       1.0  0.11060  0.89062  0.45069  1.0000
  H   H88       1.0  0.18720  0.53612  0.11794  1.0000
  H   H89       1.0  0.27062  0.85899  0.48308  1.0000
  H   H90       1.0  0.25477  0.96008  0.39459  1.0000
  H   H91       1.0  0.22247  0.90837  0.21260  1.0000
  H   H92       1.0  0.17549  0.89054  0.19059  1.0000
  H   H93       1.0  0.19731  0.92502  0.21402  1.0000
  H   H94       1.0  0.03746  0.92557  0.07380  1.0000
  C   C45       1.0  0.16882  0.55094  0.37555  1.0000
  C   C46       1.0  0.00811  0.90911  0.01827  1.0000
  C   C47       1.0  0.26060  0.50033  0.17667  1.0000
  C   C48       1.0  0.24984  0.90703  0.27860  1.0000
  H   H95       1.0  0.30017  0.90905  0.45945  1.0000
  C   C49       1.0  0.09832  0.56691  0.04050  1.0000
  H   H96       1.0  0.22799  0.93420  0.25938  1.0000
  S   S22       1.0  0.15511  0.62901  0.47197  1.0000
  C   C50       1.0  0.07612  0.56859  0.05374  1.0000
  H   H97       1.0  0.24980  0.86057  0.40241  1.0000
  H   H98       1.0  0.07190  0.56192  0.08138  1.0000
  C   C51       1.0  0.12214  0.58288  0.30170  1.0000
  C   C52       1.0  0.13063  0.60156  0.32199  1.0000
  C   C53       1.0  0.12595  0.60437  0.36094  1.0000
  C   C54       1.0  0.11227  0.58875  0.37989  1.0000
  C   C55       1.0  0.10381  0.57009  0.35959  1.0000
  C   C56       1.0  0.10884  0.56704  0.32084  1.0000
  H   H99       1.0  0.14084  0.61398  0.30745  1.0000
  H   H100      1.0  0.13242  0.61892  0.37606  1.0000
  H   H101      1.0  0.09314  0.55794  0.37390  1.0000
  H   H102      1.0  0.10208  0.55266  0.30565  1.0000
  C   C57       1.0  0.21968  0.50845  0.17845  1.0000
  H   H103      1.0  0.29900  0.53386  0.24761  1.0000
  H   H104      1.0  0.09943  0.86583  0.28233  1.0000
  C   C58       1.0  0.26558  0.52306  0.16937  1.0000
  C   C59       1.0  0.24737  0.53840  0.16711  1.0000
  C   C60       1.0  0.22470  0.53125  0.17200  1.0000
  H   H105      1.0  0.25087  0.55605  0.16177  1.0000
  H   H106      1.0  0.21114  0.54344  0.17100  1.0000
  C   C61       1.0  0.08179  0.90005  0.05556  1.0000
  C   C62       1.0  0.09401  0.91324  0.02983  1.0000
  H   H107      1.0  0.09884  0.88656  0.18610  1.0000
  H   H108      1.0  0.15312  0.95773  0.30509  1.0000
  H   H109      1.0  0.10562  0.92593  0.04031  1.0000
  H   H110      1.0  0.23536  0.93780  0.38230  1.0000
  H   H111      1.0  0.15505  0.60388  0.15560  1.0000
  C   C63       1.0  0.12435  0.90168  0.32289  1.0000
  C   C64       1.0  0.11400  0.91843  0.34467  1.0000
  C   C65       1.0  0.10991  0.91472  0.38364  1.0000
  C   C66       1.0  0.11624  0.89435  0.40144  1.0000
  C   C67       1.0  0.12675  0.87767  0.37964  1.0000
  C   C68       1.0  0.13072  0.88135  0.34068  1.0000
  H   H112      1.0  0.10928  0.93430  0.33171  1.0000
  H   H113      1.0  0.10184  0.92777  0.40022  1.0000
  H   H114      1.0  0.13170  0.86192  0.39283  1.0000
  H   H115      1.0  0.13878  0.86830  0.32418  1.0000
  C   C69       1.0  0.25948  0.96379  0.18785  1.0000
  H   H116      1.0  0.06657  0.86271  0.18315  1.0000
  H   H117      1.0  0.24944  0.54933  0.43025  1.0000
  C   C70       1.0  0.21345  0.95924  0.16305  1.0000
  C   C71       1.0  0.23149  0.95011  0.14196  1.0000
  C   C72       1.0  0.25424  0.95215  0.15436  1.0000
  H   H118      1.0  0.29564  0.49927  0.31257  1.0000
  H   H119      1.0  0.16448  0.61366  0.10985  1.0000
  H   H120      1.0  0.22785  0.94158  0.11551  1.0000
  H   H121      1.0  0.26776  0.94516  0.13749  1.0000
  H   H122      1.0  0.15041  0.58686  0.11344  1.0000
  H   H123      1.0  0.25608  0.53535  0.38630  1.0000
  H   H124      1.0  0.12567  0.52592  0.99227  1.0000
  H   H125      1.0  0.20040  0.50865  0.99320  1.0000
  C   C73       1.0  0.16337  0.51550  0.03664  1.0000
  H   H126      1.0  0.16706  0.98049  0.28040  1.0000
  H   H127      1.0  0.20329  0.53968  0.03495  1.0000
  H   H128      1.0  0.12826  0.86659  0.15142  1.0000
  H   H129      1.0  0.09413  0.81629  0.32367  1.0000
  H   H130      1.0  0.24530  0.93686  0.45071  1.0000
  C   C74       1.0  0.13945  0.54470  0.48793  1.0000
  H   H131      1.0  0.02478  0.90157  0.01170  1.0000
  H   H132      1.0  0.08656  0.89547  0.24493  1.0000
  H   H133      1.0  0.04235  0.58091  0.04224  1.0000
  H   H134      1.0  0.27164  0.89950  0.40881  1.0000
  H   H135      1.0  0.25696  0.77138  0.41552  1.0000
  H   H136      1.0  0.05093  0.82112  0.21779  1.0000
  C   C75       1.0  0.16980  0.96561  0.29907  1.0000
  Fe  Fe8       1.0  0.12017  0.61456  0.47439  1.0000
  H   H137      1.0  0.11972  0.83264  0.31794  1.0000
  C   C76       1.0  0.08589  0.85344  0.27529  1.0000
  C   C77       1.0  0.23313  0.88625  0.47682  1.0000
  C   C78       1.0  0.21865  0.97042  0.19700  1.0000
  N   N3        1.0  0.18672  0.50828  0.04982  1.0000
  H   H138      1.0  0.31232  0.60032  0.40037  1.0000
  H   H139      1.0  0.21458  0.91688  0.46124  1.0000
  C   C79       1.0  0.06946  0.88798  0.24782  1.0000
  H   H140      1.0  0.20116  0.95787  0.27252  1.0000
  C   C80       1.0  0.25764  0.93024  0.43007  1.0000
  H   H141      1.0  0.32177  0.50818  0.29077  1.0000
  H   H142      1.0  0.01665  0.80296  0.24243  1.0000
  H   H143      1.0  0.00640  0.90663  0.04944  1.0000
  H   H144      1.0  0.00731  0.86255  0.00971  1.0000
  C   C81       1.0  0.22919  0.92284  0.28437  1.0000
  H   H145      1.0  0.29036  0.57014  0.23766  1.0000
  H   H146      1.0  0.29136  0.60304  0.32502  1.0000
  C   C82       1.0  0.25419  0.75591  0.43274  1.0000
  C   C83       1.0  0.05494  0.95733  0.07602  1.0000
  C   C84       1.0  0.06215  0.92310  0.28727  1.0000
  H   H147      1.0  0.08002  0.92843  0.28380  1.0000
  H   H148      1.0  0.00105  0.97791  0.04381  1.0000
  H   H149      1.0  0.17483  0.57092  0.46639  1.0000
  N   N4        1.0  0.08740  0.61836  0.14335  1.0000
  C   C85       1.0  0.10873  0.60448  0.14030  1.0000
  C   C86       1.0  0.06876  0.60370  0.15919  1.0000
  C   C87       1.0  0.08062  0.62515  0.10349  1.0000
  C   C88       1.0  0.09052  0.63947  0.16700  1.0000
  C   C89       1.0  0.10782  0.63821  0.20037  1.0000
  C   C90       1.0  0.12824  0.61589  0.11787  1.0000
  C   C91       1.0  0.05719  0.63660  0.09878  1.0000
  C   C92       1.0  0.07168  0.59554  0.20062  1.0000
  C   C93       1.0  0.05266  0.57941  0.21197  1.0000
  C   C94       1.0  0.99034  0.87017  0.01392  1.0000
  C   C95       1.0  0.15091  0.60431  0.12483  1.0000
  C   C96       1.0  0.05453  0.64696  0.05927  1.0000
  H   H150      1.0  0.10506  0.58813  0.12584  1.0000
  H   H151      1.0  0.11522  0.59943  0.16863  1.0000
  H   H152      1.0  0.05241  0.61289  0.15926  1.0000
  H   H153      1.0  0.06624  0.58860  0.14071  1.0000
  H   H154      1.0  0.08078  0.61021  0.08437  1.0000
  H   H155      1.0  0.09322  0.63710  0.09141  1.0000
  H   H156      1.0  0.09620  0.65389  0.14906  1.0000
  H   H157      1.0  0.07394  0.64497  0.17867  1.0000
  H   H158      1.0  0.12537  0.63791  0.18941  1.0000
  H   H159      1.0  0.10573  0.62292  0.21801  1.0000
  H   H160      1.0  0.12469  0.61483  0.08692  1.0000
  H   H161      1.0  0.13000  0.63398  0.12541  1.0000
  H   H162      1.0  0.05477  0.65013  0.12012  1.0000
  H   H163      1.0  0.04348  0.62389  0.10182  1.0000
  H   H164      1.0  0.08791  0.58662  0.20482  1.0000
  H   H165      1.0  0.07084  0.61008  0.22037  1.0000
  H   H166      1.0  0.05568  0.57325  0.24134  1.0000
  H   H167      1.0  0.03608  0.58818  0.21110  1.0000
  H   H168      1.0  0.05201  0.56456  0.19279  1.0000
  H   H169      1.0  0.24534  0.89225  0.26074  1.0000
  C   C97       1.0  0.17604  0.55642  0.33429  1.0000
  C   C98       1.0  0.29240  0.52872  0.27570  1.0000
  C   C99       1.0  0.19843  0.89803  0.25743  1.0000
  H   H170      1.0  0.17669  0.94350  0.25283  1.0000
  H   H171      1.0  0.21657  0.62323  0.38414  1.0000
  H   H172      1.0  0.21895  0.90317  0.34836  1.0000
  H   H173      1.0  0.28503  0.87043  0.44359  1.0000
  H   H174      1.0  0.23936  0.52091  0.42132  1.0000
  C   C100      1.0  0.19388  0.89307  0.18619  1.0000
  H   H175      1.0  0.21984  0.56243  0.10428  1.0000
  H   H176      1.0  0.17930  0.87495  0.31568  1.0000
  N   N5        1.0  0.00766  0.93396  0.00862  1.0000
  H   H177      1.0  0.20233  0.87634  0.18549  1.0000
  C   C101      1.0  0.18836  0.54491  0.09030  1.0000
  C   C102      1.0  0.20398  0.90776  0.21759  1.0000
  H   H178      1.0  0.04417  0.93590  0.00807  1.0000
  H   H179      1.0  0.10864  0.67457  0.21041  1.0000
  H   H180      1.0  0.05681  0.63387  0.03703  1.0000
  H   H181      1.0  0.22197  0.54582  0.28134  1.0000
  H   H182      1.0  0.23509  0.50387  0.03312  1.0000
  H   H183      1.0  0.23092  0.77273  0.46961  1.0000
  H   H184      1.0  0.20538  0.85066  0.35390  1.0000
  C   C103      1.0  0.20717  0.62367  0.41131  1.0000
  H   H185      1.0  0.20452  0.87111  0.39212  1.0000
  H   H186      1.0  0.17972  0.89596  0.25892  1.0000
  C   C104      1.0  0.11274  0.85723  0.15965  1.0000
  C   C105      1.0  0.20211  0.56649  0.09632  1.0000
  H   H187      1.0  0.25588  0.90070  0.30654  1.0000
  C   C106      1.0  0.18536  0.94874  0.27930  1.0000
  N   N6        1.0  0.20700  0.91099  0.29164  1.0000
  H   H188      1.0  0.19113  0.63314  0.40723  1.0000
  H   H189      1.0  0.05851  0.95530  0.10682  1.0000
  C   C107      1.0  0.28720  0.57928  0.37159  1.0000
  H   H190      1.0  0.15174  0.57576  0.43513  1.0000
  H   H191      1.0  0.10091  0.85738  0.13507  1.0000
  H   H192      1.0  0.08113  0.83889  0.20052  1.0000
  C   C108      1.0  0.18764  0.58645  0.39650  1.0000
  C   C109      1.0  0.19509  0.86402  0.36759  1.0000
  C   C110      1.0  0.18975  0.92801  0.30496  1.0000
  H   H193      1.0  0.22241  0.88079  0.31522  1.0000
  H   H194      1.0  0.15181  0.51705  0.06136  1.0000
  H   H195      1.0  0.17292  0.91990  0.30856  1.0000
  H   H196      1.0  0.20523  0.88050  0.25741  1.0000
  H   H197      1.0  0.26856  0.57753  0.37234  1.0000
  C   C111      1.0  0.01855  0.82159  0.24438  1.0000
  H   H198      1.0  0.02841  0.50015  0.08526  1.0000
  H   H199      1.0  0.17819  0.89488  0.35436  1.0000
  H   H200      1.0  0.19469  0.93452  0.33350  1.0000
  C   C112      1.0  0.21068  0.89451  0.32392  1.0000
  C   C113      1.0  0.20237  0.59973  0.42545  1.0000
  H   H201      1.0  0.17110  0.55003  0.08154  1.0000
  H   H202      1.0  0.23342  0.93432  0.30840  1.0000
  C   C114      1.0  0.24284  0.53762  0.40819  1.0000
  H   H203      1.0  0.17929  0.85618  0.37840  1.0000
  H   H204      1.0  0.25974  0.82001  0.39952  1.0000
  H   H205      1.0  0.21637  0.53547  0.36689  1.0000
  C   C115      1.0  0.18914  0.88265  0.33921  1.0000
  Fe  Fe9       1.0  0.09990  0.97269  0.18632  1.0000
  S   S23       1.0  0.19121  0.49813  0.18331  1.0000
  H   H206      1.0  0.19634  0.90150  0.15832  1.0000
  H   H207      1.0  0.17336  0.52241  0.31080  1.0000
  H   H208      1.0  0.15051  0.55548  0.37652  1.0000
  H   H209      1.0  0.14747  0.53860  0.30865  1.0000
  H   H210      1.0  0.31215  0.80436  0.38847  1.0000
  H   H211      1.0  0.28888  0.59729  0.25883  1.0000
  C   C116      1.0  0.26954  0.91934  0.25982  1.0000
  H   H212      1.0  0.16986  0.57350  0.32628  1.0000
  H   H213      1.0  0.19452  0.57653  0.11961  1.0000
  C   C117      1.0  0.29623  0.58009  0.26252  1.0000
  C   C118      1.0  0.07924  0.85730  0.20489  1.0000
  C   C119      1.0  0.29595  0.58515  0.33123  1.0000
  H   H214      1.0  0.01978  0.94976  0.08183  1.0000
  H   H215      1.0  0.22582  0.56384  0.37754  1.0000
  H   H216      1.0  0.20517  0.97809  0.21306  1.0000
  N   N7        1.0  0.28795  0.56999  0.29929  1.0000
  H   H217      1.0  0.05917  0.89528  0.22421  1.0000
  H   H218      1.0  0.25624  0.55590  0.31923  1.0000
  C   C120      1.0  0.25683  0.90409  0.42671  1.0000
  H   H219      1.0  0.26505  0.93549  0.37005  1.0000
  C   C121      1.0  0.26230  0.56942  0.29975  1.0000
  H   H220      1.0  0.21676  0.57610  0.28273  1.0000
  H   H221      1.0  0.25547  0.58552  0.31141  1.0000
  H   H222      1.0  0.28848  0.59255  0.42907  1.0000
  H   H223      1.0  0.21762  0.63281  0.43257  1.0000
  C   C122      1.0  0.24986  0.56652  0.26103  1.0000
  H   H224      1.0  0.19722  0.53127  0.42570  1.0000
  H   H225      1.0  0.12516  0.55585  0.47968  1.0000
  H   H226      1.0  0.20205  0.49136  0.09812  1.0000
  H   H227      1.0  0.25157  0.58220  0.24392  1.0000
  H   H228      1.0  0.12038  0.57431  0.99357  1.0000
  H   H229      1.0  0.05179  0.93100  0.26450  1.0000
  C   C123      1.0  0.19944  0.49700  0.01801  1.0000
  H   H230      1.0  0.28469  0.90827  0.25933  1.0000
  H   H231      1.0  0.19705  0.58710  0.36947  1.0000
  H   H232      1.0  0.17022  0.54486  0.27662  1.0000
  H   H233      1.0  0.27398  0.52558  0.27369  1.0000
  H   H234      1.0  0.17190  0.59633  0.39105  1.0000
  C   C124      1.0  0.20206  0.54899  0.41921  1.0000
  H   H235      1.0  0.08880  0.65915  0.23980  1.0000
  H   H236      1.0  0.17471  0.50172  0.10652  1.0000
  H   H237      1.0  0.31626  0.54778  0.30954  1.0000
  H   H238      1.0  0.26511  0.92368  0.23007  1.0000
  C   C125      1.0  0.19976  0.52930  0.06067  1.0000
  C   C126      1.0  0.10331  0.57552  0.00422  1.0000
  H   H239      1.0  0.27033  0.74634  0.43410  1.0000
  H   H240      1.0  0.21613  0.56112  0.23837  1.0000
  N   N8        1.0  0.18158  0.56252  0.40745  1.0000
  H   H241      1.0  0.05741  0.87315  0.06078  1.0000
  C   C127      1.0  0.25492  0.85182  0.42893  1.0000
  H   H242      1.0  0.21649  0.52484  0.07317  1.0000
  C   C128      1.0  0.06690  0.88352  0.04123  1.0000
  H   H243      1.0  0.30050  0.49382  0.26296  1.0000
  H   H244      1.0  0.16941  0.53227  0.37932  1.0000
  H   H245      1.0  0.21893  0.59136  0.43006  1.0000
  C   C129      1.0  0.24142  0.97274  0.20914  1.0000
  H   H246      1.0  0.03069  0.96236  0.01223  1.0000
  H   H247      1.0  0.25674  0.55244  0.24407  1.0000
  H   H248      1.0  0.06707  0.66068  0.05485  1.0000
  H   H249      1.0  0.19452  0.55633  0.33088  1.0000
  C   C130      1.0  0.22140  0.54723  0.38994  1.0000
  S   S24       1.0  0.13394  0.82784  0.47029  1.0000
  C   C131      1.0  0.22464  0.56215  0.26646  1.0000
  H   H250      1.0  0.27389  0.93506  0.27544  1.0000
  H   H251      1.0  0.20206  0.57691  0.07011  1.0000
  C   C132      1.0  0.10799  0.82065  0.30378  1.0000
  H   H252      1.0  0.24106  0.74543  0.41854  1.0000
  C   C133      1.0  0.26786  0.86808  0.45590  1.0000
  C   C134      1.0  0.06012  0.89737  0.28579  1.0000
  H   H253      1.0  0.26008  0.77337  0.48481  1.0000
  C   C135      1.0  0.29760  0.54679  0.30612  1.0000
  H   H254      1.0  0.29129  0.53980  0.33334  1.0000
  H   H255      1.0  0.08744  0.81805  0.25389  1.0000
  H   H256      1.0  0.03565  0.86205  0.22694  1.0000
  H   H257      1.0  0.29489  0.56326  0.38175  1.0000
  C   C136      1.0  0.30328  0.50616  0.28626  1.0000
  H   H258      1.0  0.11866  0.65751  0.24943  1.0000
  N   N9        1.0  0.07071  0.86256  0.24423  1.0000
  C   C137      1.0  0.22390  0.48920  0.02744  1.0000
  H   H259      1.0  0.16843  0.52907  0.46365  1.0000
  H   H260      1.0  0.18659  0.88858  0.48457  1.0000
  C   C138      1.0  0.05936  0.57934  0.03139  1.0000
  H   H261      1.0  0.16390  0.53273  0.02382  1.0000
  H   H262      1.0  0.19386  0.60120  0.45316  1.0000
  C   C139      1.0  0.25291  0.94148  0.39181  1.0000
  H   H263      1.0  0.17748  0.97163  0.32603  1.0000
  H   H264      1.0  0.05200  0.97552  0.07014  1.0000
  H   H265      1.0  0.03730  0.65419  0.05605  1.0000
  C   C140      1.0  0.04691  0.85364  0.24814  1.0000
  H   H266      1.0  0.11280  0.83390  0.24779  1.0000
  C   C141      1.0  0.15524  0.54117  0.45434  1.0000
  C   C142      1.0  0.09842  0.83089  0.26728  1.0000
  H   H267      1.0  0.11427  0.86844  0.21771  1.0000
  C   C143      1.0  0.26948  0.83150  0.41836  1.0000
  C   C144      1.0  0.10578  0.65868  0.22647  1.0000
  H   H268      1.0  0.04192  0.89336  0.28909  1.0000
  H   H269      1.0  0.27449  0.82194  0.44421  1.0000
  H   H270      1.0  0.05146  0.81912  0.26910  1.0000
  C   C145      1.0  0.23788  0.49312  0.18092  1.0000
  C   C146      1.0  0.04365  0.82780  0.24440  1.0000
  H   H271      1.0  0.05611  0.92935  0.31513  1.0000
  H   H272      1.0  0.03997  0.85783  0.27649  1.0000
  H   H273      1.0  0.22307  0.87721  0.45492  1.0000
  C   C147      1.0  0.29371  0.59767  0.40008  1.0000
  H   H274      1.0  0.07615  0.85152  0.30209  1.0000
  H   H275      1.0  0.06959  0.89039  0.31039  1.0000
  H   H276      1.0  0.24176  0.89945  0.40935  1.0000
  H   H277      1.0  0.23957  0.84503  0.44299  1.0000
  C   C148      1.0  0.02956  0.94448  0.02176  1.0000
  N   N10       1.0  0.25691  0.89071  0.46326  1.0000
  H   H278      1.0  0.20912  0.55565  0.44638  1.0000
  C   C149      1.0  0.18515  0.49341  0.08448  1.0000
  H   H279      1.0  0.28491  0.83711  0.40319  1.0000
  H   H280      1.0  0.11715  0.50563  0.02780  1.0000
  C   C150      1.0  0.03419  0.94331  0.06510  1.0000
  H   H281      1.0  0.07006  0.95159  0.06017  1.0000
  C   C151      1.0  0.16592  0.56387  0.44121  1.0000
  H   H282      1.0  0.24511  0.98193  0.23493  1.0000
  H   H283      1.0  0.14508  0.53326  0.43138  1.0000
  H   H284      1.0  0.28525  0.61387  0.39294  1.0000
  H   H285      1.0  0.31470  0.58475  0.33394  1.0000
  C   C152      1.0  0.98982  0.89435  0.99875  1.0000
  C   C153      1.0  0.12671  0.50790  0.00098  1.0000
  H   H286      1.0  0.22797  0.73215  0.48317  1.0000
  C   C154      1.0  0.24660  0.76256  0.47255  1.0000
  H   H287      1.0  0.01035  0.82737  0.27096  1.0000
  C   C155      1.0  0.06436  0.58809  0.99517  1.0000
  C   C156      1.0  0.21862  0.90705  0.48719  1.0000
  H   H288      1.0  0.31482  0.72973  0.47869  1.0000
  C   C157      1.0  0.06429  0.88013  0.00181  1.0000
  H   H289      1.0  0.00978  0.82934  0.21966  1.0000
  H   H290      1.0  0.32150  0.89036  0.00406  1.0000
  H   H291      1.0  0.32165  0.61257  0.22302  1.0000
  H   H292      1.0  0.32019  0.58651  0.19625  1.0000
  C   C158      1.0  0.09136  0.90987  0.99038  1.0000
  H   H293      1.0  0.05293  0.86722  0.99132  1.0000
  Fe  Fe10      1.0  0.02994  0.85725  0.81405  1.0000
  C   C159      1.0  0.01743  0.54341  0.76684  1.0000
  S   S25       1.0  0.03437  0.85559  0.74955  1.0000
  Fe  Fe11      1.0  0.04616  0.86996  0.89468  1.0000
  S   S26       1.0  0.01479  0.85588  0.92088  1.0000
  S   S27       1.0  0.07377  0.88974  0.92604  1.0000
  Fe  Fe12      1.0  0.01875  0.82633  0.88042  1.0000
  S   S28       1.0  0.01883  0.78954  0.90275  1.0000
  H   H294      1.0  0.20033  0.67555  0.56111  1.0000
  S   S29       1.0  0.05169  0.83961  0.85709  1.0000
  S   S30       1.0  0.02728  0.88890  0.84907  1.0000
  Fe  Fe13      1.0  0.03803  0.61336  0.90684  1.0000
  S   S31       1.0  0.00259  0.62575  0.89299  1.0000
  H   H295      1.0  0.01623  0.55949  0.69350  1.0000
  Fe  Fe14      1.0  0.05246  0.61738  0.82338  1.0000
  S   S32       1.0  0.01821  0.62907  0.80530  1.0000
  S   S33       1.0  0.08171  0.61189  0.78183  1.0000
  Fe  Fe15      1.0  0.01946  0.65214  0.85622  1.0000
  C   C160      1.0  0.21384  0.68701  0.57172  1.0000
  Fe  Fe16      1.0  0.00396  0.60189  0.84339  1.0000
  S   S34       1.0  0.05474  0.64143  0.87313  1.0000
  S   S35       1.0  0.03848  0.58852  0.85837  1.0000
  H   H296      1.0  0.30974  0.66782  0.62051  1.0000
  C   C161      1.0  0.00126  0.73422  0.83814  1.0000
  S   S36       1.0  0.14876  0.64370  0.56215  1.0000
  H   H297      1.0  0.06051  0.90062  0.68565  1.0000
  S   S37       1.0  0.12565  0.59701  0.53048  1.0000
  Fe  Fe17      1.0  0.11372  0.62895  0.55856  1.0000
  S   S38       1.0  0.08621  0.63291  0.60384  1.0000
  Fe  Fe18      1.0  0.15997  0.61330  0.52909  1.0000
  S   S39       1.0  0.19231  0.59368  0.53824  1.0000
  H   H298      1.0  0.04849  0.95833  0.78628  1.0000
  Fe  Fe19      1.0  0.12251  0.84716  0.57478  1.0000
  C   C162      1.0  0.04626  0.95676  0.75506  1.0000
  S   S40       1.0  0.11947  0.85564  0.63816  1.0000
  C   C163      1.0  0.07648  0.89333  0.97608  1.0000
  C   C164      1.0  0.04404  0.52856  0.71836  1.0000
  H   H299      1.0  0.29608  0.58986  0.65940  1.0000
  H   H300      1.0  0.30376  0.91430  0.54637  1.0000
  S   S41       1.0  0.14643  0.86590  0.53562  1.0000
  S   S42       1.0  0.13758  0.81333  0.56061  1.0000
  S   S43       1.0  0.28311  0.85874  0.58054  1.0000
  C   C165      1.0  0.21842  0.82981  0.52825  1.0000
  C   C166      1.0  0.25823  0.84613  0.56276  1.0000
  C   C167      1.0  0.23698  0.85402  0.57444  1.0000
  C   C168      1.0  0.21703  0.84569  0.55747  1.0000
  H   H301      1.0  0.23595  0.86694  0.59606  1.0000
  H   H302      1.0  0.20070  0.85203  0.56617  1.0000
  H   H303      1.0  0.09068  0.59262  0.95398  1.0000
  C   C169      1.0  0.27911  0.75189  0.55309  1.0000
  H   H304      1.0  0.07439  0.52701  0.77718  1.0000
  H   H305      1.0  0.03632  0.74674  0.92847  1.0000
  C   C170      1.0  0.04145  0.93104  0.70104  1.0000
  H   H306      1.0  0.09293  0.90683  0.84054  1.0000
  C   C171      1.0  0.01617  0.51904  0.78310  1.0000
  C   C172      1.0  0.25738  0.61227  0.51895  1.0000
  C   C173      1.0  0.23792  0.59941  0.52688  1.0000
  C   C174      1.0  0.21650  0.60958  0.52675  1.0000
  H   H307      1.0  0.07634  0.49739  0.69293  1.0000
  H   H308      1.0  0.03226  0.51367  0.79634  1.0000
  C   C175      1.0  0.08276  0.61820  0.73247  1.0000
  C   C176      1.0  0.10191  0.61172  0.71152  1.0000
  C   C177      1.0  0.10340  0.61616  0.67224  1.0000
  C   C178      1.0  0.08563  0.62704  0.65336  1.0000
  C   C179      1.0  0.06655  0.63365  0.67435  1.0000
  C   C180      1.0  0.06515  0.62938  0.71365  1.0000
  H   H309      1.0  0.11568  0.60316  0.72579  1.0000
  H   H310      1.0  0.11819  0.61101  0.65654  1.0000
  H   H311      1.0  0.05274  0.64214  0.66009  1.0000
  H   H312      1.0  0.05048  0.63480  0.72939  1.0000
  C   C181      1.0  0.05851  0.85394  0.71969  1.0000
  C   C182      1.0  0.08054  0.85677  0.73346  1.0000
  C   C183      1.0  0.09895  0.85706  0.70812  1.0000
  C   C184      1.0  0.09567  0.85414  0.66882  1.0000
  C   C185      1.0  0.07370  0.85051  0.65525  1.0000
  C   C186      1.0  0.05527  0.85045  0.68055  1.0000
  H   H313      1.0  0.08340  0.85912  0.76347  1.0000
  H   H314      1.0  0.11588  0.85973  0.71897  1.0000
  H   H315      1.0  0.07089  0.84821  0.62515  1.0000
  H   H316      1.0  0.03832  0.84815  0.66955  1.0000
  C   C187      1.0  0.01653  0.76157  0.88344  1.0000
  H   H317      1.0  0.00383  0.62016  0.71262  1.0000
  H   H318      1.0  0.30384  0.88677  0.49341  1.0000
  C   C188      1.0  0.01119  0.71601  0.85791  1.0000
  C   C189      1.0  0.02421  0.72083  0.89018  1.0000
  C   C190      1.0  0.02669  0.74339  0.90293  1.0000
  S   S44       1.0  0.09242  0.77937  0.50595  1.0000
  H   H319      1.0  0.08457  0.56885  0.82578  1.0000
  H   H320      1.0  0.19940  0.74428  0.59214  1.0000
  C   C191      1.0  0.04016  0.94368  0.92424  1.0000
  C   C192      1.0  0.30707  0.91983  0.51677  1.0000
  H   H321      1.0  0.19813  0.64046  0.51721  1.0000
  H   H322      1.0  0.03267  0.59814  0.74551  1.0000
  H   H323      1.0  0.10160  0.55911  0.78657  1.0000
  H   H324      1.0  0.18559  0.79232  0.56928  1.0000
  H   H325      1.0  0.25353  0.77792  0.54707  1.0000
  H   H326      1.0  0.18088  0.60486  0.62814  1.0000
  C   C193      1.0  0.23960  0.82151  0.51750  1.0000
  H   H327      1.0  0.16635  0.69868  0.58752  1.0000
  H   H328      1.0  0.10741  0.68847  0.73974  1.0000
  H   H329      1.0  0.08100  0.93865  0.80126  1.0000
  H   H330      1.0  0.28138  0.73489  0.56575  1.0000
  C   C194      1.0  0.03582  0.90669  0.64227  1.0000
  H   H331      1.0  0.30057  0.93725  0.51259  1.0000
  H   H332      1.0  0.23846  0.60034  0.75709  1.0000
  C   C195      1.0  0.04284  0.90695  0.68402  1.0000
  H   H333      1.0  0.18914  0.63064  0.65168  1.0000
  C   C196      1.0  0.01726  0.78636  0.75284  1.0000
  H   H334      1.0  0.14878  0.55230  0.51220  1.0000
  H   H335      1.0  0.29102  0.63661  0.65888  1.0000
  H   H336      1.0  0.29658  0.89072  0.81057  1.0000
  Fe  Fe20      1.0  0.31464  0.63830  0.51031  1.0000
  C   C197      1.0  0.27432  0.64028  0.64544  1.0000
  H   H337      1.0  0.03112  0.95652  0.90693  1.0000
  C   C198      1.0  0.15335  0.71127  0.59558  1.0000
  S   S45       1.0  0.04274  0.60266  0.96934  1.0000
  H   H338      1.0  0.12740  0.69115  0.56960  1.0000
  H   H339      1.0  0.01786  0.91184  0.63904  1.0000
  C   C199      1.0  0.06864  0.54265  0.79136  1.0000
  H   H340      1.0  0.00097  0.54583  0.75178  1.0000
  H   H341      1.0  0.05532  0.94103  0.68777  1.0000
  H   H342      1.0  0.11838  0.70363  0.67736  1.0000
  H   H343      1.0  0.16540  0.74051  0.49622  1.0000
  H   H344      1.0  0.10177  0.90171  0.79232  1.0000
  H   H345      1.0  0.03313  0.75166  0.60401  1.0000
  H   H346      1.0  0.02273  0.60817  0.67817  1.0000
  H   H347      1.0  0.05675  0.92311  0.81710  1.0000
  H   H348      1.0  0.04995  0.95220  0.94700  1.0000
  H   H349      1.0  0.02123  0.92934  0.79253  1.0000
  C   C200      1.0  0.24585  0.62716  0.71649  1.0000
  C   C201      1.0  0.02341  0.92664  0.94082  1.0000
  H   H350      1.0  0.31687  0.56947  0.60862  1.0000
  C   C202      1.0  0.02668  0.97312  0.74527  1.0000
  C   C203      1.0  0.99674  0.80124  0.76085  1.0000
  H   H351      1.0  0.07891  0.92467  0.73799  1.0000
  Fe  Fe21      1.0  0.14127  0.65844  0.50474  1.0000
  H   H352      1.0  0.04912  0.51444  0.73719  1.0000
  N   N11       1.0  0.03709  0.54905  0.74097  1.0000
  H   H353      1.0  0.02924  0.52208  0.70194  1.0000
  C   C204      1.0  0.10031  0.73397  0.49749  1.0000
  C   C205      1.0  0.02921  0.56677  0.71300  1.0000
  H   H354      1.0  0.17419  0.77546  0.60704  1.0000
  H   H355      1.0  0.08427  0.51268  0.65083  1.0000
  H   H356      1.0  0.22001  0.59472  0.61575  1.0000
  S   S46       1.0  0.31681  0.83829  0.49225  1.0000
  H   H357      1.0  0.01205  0.50691  0.76002  1.0000
  H   H358      1.0  0.27559  0.82267  0.52662  1.0000
  C   C206      1.0  0.00391  0.75677  0.85072  1.0000
  C   C207      1.0  0.00521  0.93783  0.96647  1.0000
  H   H359      1.0  0.16957  0.76705  0.55853  1.0000
  C   C208      1.0  0.25545  0.63536  0.51125  1.0000
  H   H360      1.0  0.11858  0.49742  0.97864  1.0000
  H   H361      1.0  0.29394  0.78530  0.56100  1.0000
  H   H362      1.0  0.04343  0.57256  0.69484  1.0000
  H   H363      1.0  0.08211  0.73218  0.49709  1.0000
  C   C209      1.0  0.18194  0.77476  0.57844  1.0000
  H   H364      1.0  0.26706  0.65438  0.66222  1.0000
  H   H365      1.0  0.02578  0.90358  0.76853  1.0000
  C   C210      1.0  0.02303  0.92196  0.76365  1.0000
  N   N12       1.0  0.04314  0.93235  0.74373  1.0000
  H   H366      1.0  0.28426  0.75115  0.52293  1.0000
  H   H367      1.0  0.05066  0.57324  0.78087  1.0000
  H   H368      1.0  0.23757  0.62850  0.77636  1.0000
  H   H369      1.0  0.29177  0.76876  0.60407  1.0000
  H   H370      1.0  0.21878  0.70132  0.51645  1.0000
  C   C211      1.0  0.30770  0.87653  0.81940  1.0000
  C   C212      1.0  0.20372  0.76098  0.57993  1.0000
  S   S47       1.0  0.27933  0.65273  0.50487  1.0000
  H   H371      1.0  0.06191  0.90121  0.75079  1.0000
  H   H372      1.0  0.24075  0.80945  0.49469  1.0000
  H   H373      1.0  0.20150  0.75073  0.52079  1.0000
  N   N13       1.0  0.05950  0.78062  0.77153  1.0000
  C   C213      1.0  0.06798  0.78949  0.73398  1.0000
  C   C214      1.0  0.03713  0.79179  0.78010  1.0000
  C   C215      1.0  0.07611  0.78795  0.80187  1.0000
  C   C216      1.0  0.05737  0.75516  0.77266  1.0000
  C   C217      1.0  0.05119  0.74300  0.73501  1.0000
  C   C218      1.0  0.09283  0.78351  0.72411  1.0000
  C   C219      1.0  0.07006  0.78137  0.84325  1.0000
  H   H374      1.0  0.28808  0.63751  0.58746  1.0000
  H   H375      1.0  0.01180  0.76858  0.75701  1.0000
  C   C220      1.0  0.04596  0.71804  0.74200  1.0000
  C   C221      1.0  0.09785  0.78757  0.68217  1.0000
  C   C222      1.0  0.08961  0.78634  0.87048  1.0000
  H   H376      1.0  0.06681  0.80826  0.73338  1.0000
  H   H377      1.0  0.05709  0.78390  0.71014  1.0000
  H   H378      1.0  0.03097  0.78690  0.80860  1.0000
  H   H379      1.0  0.03932  0.81048  0.78117  1.0000
  H   H380      1.0  0.07856  0.80664  0.80092  1.0000
  H   H381      1.0  0.09301  0.78036  0.79671  1.0000
  H   H382      1.0  0.07352  0.74731  0.78237  1.0000
  H   H383      1.0  0.04468  0.75010  0.79443  1.0000
  H   H384      1.0  0.06554  0.74389  0.71497  1.0000
  H   H385      1.0  0.03638  0.75057  0.72068  1.0000
  H   H386      1.0  0.10452  0.79450  0.74061  1.0000
  H   H387      1.0  0.09675  0.76566  0.73105  1.0000
  H   H388      1.0  0.06576  0.76320  0.84585  1.0000
  H   H389      1.0  0.05552  0.79136  0.85318  1.0000
  H   H390      1.0  0.26581  0.60550  0.59237  1.0000
  H   H391      1.0  0.09427  0.80451  0.86936  1.0000
  H   H392      1.0  0.23004  0.64230  0.64782  1.0000
  H   H393      1.0  0.04674  0.91820  0.62548  1.0000
  H   H394      1.0  0.10101  0.92009  0.97080  1.0000
  H   H395      1.0  0.03083  0.71623  0.76039  1.0000
  H   H396      1.0  0.04248  0.70943  0.71462  1.0000
  H   H397      1.0  0.06051  0.70954  0.75602  1.0000
  H   H398      1.0  0.08773  0.77605  0.66407  1.0000
  H   H399      1.0  0.09400  0.80532  0.67424  1.0000
  H   H400      1.0  0.11605  0.78447  0.67655  1.0000
  H   H401      1.0  0.21655  0.60050  0.66539  1.0000
  H   H402      1.0  0.08434  0.78227  0.89992  1.0000
  C   C223      1.0  0.05655  0.55882  0.76341  1.0000
  N   N14       1.0  0.08816  0.70721  0.61235  1.0000
  C   C224      1.0  0.08043  0.69437  0.57770  1.0000
  C   C225      1.0  0.11122  0.71704  0.60465  1.0000
  C   C226      1.0  0.08872  0.69104  0.64547  1.0000
  C   C227      1.0  0.07221  0.72628  0.62158  1.0000
  C   C228      1.0  0.06800  0.74366  0.58926  1.0000
  C   C229      1.0  0.05554  0.68609  0.57793  1.0000
  C   C230      1.0  0.10028  0.69975  0.68222  1.0000
  C   C231      1.0  0.13030  0.69967  0.59723  1.0000
  H   H403      1.0  0.07739  0.88719  0.81170  1.0000
  C   C232      1.0  0.04953  0.76049  0.59999  1.0000
  C   C233      1.0  0.04994  0.67296  0.54178  1.0000
  C   C234      1.0  0.09920  0.68193  0.71358  1.0000
  H   H404      1.0  0.09116  0.67914  0.57342  1.0000
  H   H405      1.0  0.08293  0.70457  0.55170  1.0000
  C   C235      1.0  0.25939  0.82923  0.53525  1.0000
  H   H406      1.0  0.11653  0.72851  0.62806  1.0000
  H   H407      1.0  0.09721  0.67501  0.63746  1.0000
  H   H408      1.0  0.07125  0.68592  0.65334  1.0000
  H   H409      1.0  0.05561  0.71957  0.63123  1.0000
  H   H410      1.0  0.07878  0.73619  0.64597  1.0000
  H   H411      1.0  0.06257  0.73539  0.56256  1.0000
  H   H412      1.0  0.08358  0.75352  0.58345  1.0000
  H   H413      1.0  0.05238  0.67469  0.60232  1.0000
  H   H414      1.0  0.04361  0.70049  0.57942  1.0000
  H   H415      1.0  0.09188  0.71518  0.69284  1.0000
  H   H416      1.0  0.06939  0.56635  0.74416  1.0000
  H   H417      1.0  0.13126  0.68654  0.61956  1.0000
  H   H418      1.0  0.00063  0.52891  0.83672  1.0000
  C   C236      1.0  0.07150  0.92255  0.79791  1.0000
  H   H419      1.0  0.03771  0.88932  0.63079  1.0000
  C   C237      1.0  0.06378  0.53202  0.69003  1.0000
  H   H420      1.0  0.25367  0.64417  0.71771  1.0000
  C   C238      1.0  0.27884  0.64987  0.60523  1.0000
  H   H421      1.0  0.00076  0.81924  0.75521  1.0000
  C   C239      1.0  0.23580  0.62659  0.63347  1.0000
  H   H422      1.0  0.03190  0.66778  0.54207  1.0000
  H   H423      1.0  0.01472  0.91833  0.91657  1.0000
  H   H424      1.0  0.08138  0.67760  0.72028  1.0000
  H   H425      1.0  0.10817  0.66630  0.70479  1.0000
  N   N15       1.0  0.25902  0.61991  0.64739  1.0000
  H   H426      1.0  0.23623  0.63092  0.60277  1.0000
  C   C240      1.0  0.29262  0.59396  0.62927  1.0000
  H   H427      1.0  0.99122  0.79942  0.79072  1.0000
  H   H428      1.0  0.22777  0.62912  0.70869  1.0000
  C   C241      1.0  0.21457  0.63249  0.51784  1.0000
  H   H429      1.0  0.05407  0.76970  0.62634  1.0000
  H   H430      1.0  0.05890  0.54378  0.66690  1.0000
  H   H431      1.0  0.21546  0.76974  0.59962  1.0000
  S   S48       1.0  0.09502  0.84489  0.53061  1.0000
  H   H432      1.0  0.11072  0.72798  0.57896  1.0000
  H   H433      1.0  0.15332  0.72492  0.57399  1.0000
  H   H434      1.0  0.00491  0.95617  0.95994  1.0000
  H   H435      1.0  0.03191  0.70714  0.90591  1.0000
  H   H436      1.0  0.99917  0.91206  0.71855  1.0000
  C   C242      1.0  0.06419  0.91965  0.75579  1.0000
  H   H437      1.0  0.19886  0.71599  0.54554  1.0000
  H   H438      1.0  0.23004  0.67757  0.57226  1.0000
  H   H439      1.0  0.15789  0.71852  0.62363  1.0000
  H   H440      1.0  0.26755  0.89267  0.52200  1.0000
  C   C243      1.0  0.99967  0.92346  0.74350  1.0000
  C   C244      1.0  0.08689  0.90337  0.81122  1.0000
  H   H441      1.0  0.26294  0.65437  0.59044  1.0000
  C   C245      1.0  0.23494  0.72355  0.55869  1.0000
  Fe  Fe22      1.0  0.15895  0.83168  0.51810  1.0000
  H   H442      1.0  0.29692  0.86154  0.82518  1.0000
  H   H443      1.0  0.06045  0.65746  0.54000  1.0000
  C   C246      1.0  0.00963  0.60412  0.69961  1.0000
  S   S49       1.0  0.99684  0.84322  0.83604  1.0000
  H   H444      1.0  0.29447  0.57580  0.57547  1.0000
  H   H445      1.0  0.07904  0.53873  0.70455  1.0000
  H   H446      1.0  0.19359  0.62736  0.60127  1.0000
  C   C247      1.0  0.19379  0.61849  0.62905  1.0000
  H   H447      1.0  0.23949  0.58162  0.53345  1.0000
  H   H448      1.0  0.02182  0.78911  0.72278  1.0000
  H   H449      1.0  0.00545  0.58506  0.75064  1.0000
  H   H450      1.0  0.23347  0.72623  0.58983  1.0000
  C   C248      1.0  0.21710  0.60832  0.63688  1.0000
  H   H451      1.0  0.28419  0.68460  0.62408  1.0000
  C   C249      1.0  0.25434  0.76014  0.55728  1.0000
  C   C250      1.0  0.01925  0.58865  0.73040  1.0000
  H   H452      1.0  0.04749  0.77305  0.57678  1.0000
  C   C251      1.0  0.99761  0.51697  0.81292  1.0000
  H   H453      1.0  0.29569  0.67802  0.57826  1.0000
  C   C252      1.0  0.24670  0.61721  0.75648  1.0000
  C   C253      1.0  0.29301  0.67140  0.60738  1.0000
  H   H454      1.0  0.10663  0.69807  0.49311  1.0000
  H   H455      1.0  0.32023  0.72505  0.61490  1.0000
  H   H456      1.0  0.14106  0.77444  0.50150  1.0000
  H   H457      1.0  0.03183  0.89504  0.69964  1.0000
  H   H458      1.0  0.23235  0.66299  0.50305  1.0000
  H   H459      1.0  0.05227  0.93471  0.90556  1.0000
  H   H460      1.0  0.25708  0.58563  0.62660  1.0000
  C   C254      1.0  0.26764  0.60103  0.62275  1.0000
  H   H461      1.0  0.25109  0.76131  0.58825  1.0000
  H   H462      1.0  0.19889  0.89059  0.53152  1.0000
  H   H463      1.0  0.02564  0.93891  0.69047  1.0000
  H   H464      1.0  0.06209  0.96352  0.74222  1.0000
  Fe  Fe23      1.0  0.11164  0.81205  0.51434  1.0000
  Fe  Fe24      1.0  0.11994  0.86101  0.48993  1.0000
  N   N16       1.0  0.23641  0.74589  0.53824  1.0000
  H   H465      1.0  0.27387  0.60441  0.51946  1.0000
  H   H466      1.0  0.01176  0.96918  0.76309  1.0000
  C   C255      1.0  0.29537  0.76804  0.57322  1.0000
  H   H467      1.0  0.05718  0.53834  0.81509  1.0000
  H   H468      1.0  0.10459  0.77589  0.86337  1.0000
  H   H469      1.0  0.09815  0.54172  0.82820  1.0000
  H   H470      1.0  0.01694  0.55539  0.79120  1.0000
  C   C256      1.0  0.08951  0.55381  0.80893  1.0000
  H   H471      1.0  0.30876  0.88766  0.87718  1.0000
  C   C257      1.0  0.23398  0.64528  0.50997  1.0000
  Fe  Fe25      1.0  0.99573  0.87411  0.87407  1.0000
  H   H472      1.0  0.02184  0.97229  0.71492  1.0000
  H   H473      1.0  0.27595  0.60978  0.69921  1.0000
  H   H474      1.0  0.25097  0.59450  0.68970  1.0000
  S   S50       1.0  0.10551  0.64561  0.50235  1.0000
  C   C258      1.0  0.27008  0.90199  0.49481  1.0000
  H   H475      1.0  0.26448  0.61558  0.76643  1.0000
  C   C259      1.0  0.11414  0.71468  0.49520  1.0000
  H   H476      1.0  0.05294  0.68356  0.51626  1.0000
  H   H477      1.0  0.26368  0.91922  0.50058  1.0000
  H   H478      1.0  0.03302  0.91317  0.95528  1.0000
  C   C260      1.0  0.07036  0.50970  0.67132  1.0000
  C   C261      1.0  0.29848  0.57306  0.60592  1.0000
  H   H479      1.0  0.99574  0.94067  0.73333  1.0000
  H   H480      1.0  0.99538  0.77031  0.83603  1.0000
  H   H481      1.0  0.31304  0.76224  0.56930  1.0000
  S   S51       1.0  0.00586  0.68776  0.84180  1.0000
  C   C262      1.0  0.25845  0.61174  0.68795  1.0000
  H   H482      1.0  0.13237  0.52822  0.49713  1.0000
  H   H483      1.0  0.21641  0.77600  0.52859  1.0000
  H   H484      1.0  0.25089  0.71383  0.55504  1.0000
  H   H485      1.0  0.28893  0.55813  0.61625  1.0000
  C   C263      1.0  0.21558  0.70755  0.54561  1.0000
  H   H486      1.0  0.15992  0.50276  0.97848  1.0000
  C   C264      1.0  0.19607  0.89974  0.50440  1.0000
  C   C265      1.0  0.24209  0.74138  0.49729  1.0000
  H   H487      1.0  0.20947  0.69230  0.60099  1.0000
  H   H488      1.0  0.18550  0.91482  0.51032  1.0000
  C   C266      1.0  0.21429  0.75856  0.53989  1.0000
  H   H489      1.0  0.99729  0.49952  0.82451  1.0000
  H   H490      1.0  0.99098  0.73081  0.81336  1.0000
  H   H491      1.0  0.22717  0.91807  0.50820  1.0000
  H   H492      1.0  0.23364  0.87486  0.50192  1.0000
  C   C267      1.0  0.13347  0.75784  0.49989  1.0000
  C   C268      1.0  0.13767  0.71698  0.49527  1.0000
  H   H493      1.0  0.99289  0.89349  0.96779  1.0000
  H   H494      1.0  0.30426  0.60769  0.62058  1.0000
  C   C269      1.0  0.14725  0.73862  0.49691  1.0000
  H   H495      1.0  0.05574  0.50241  0.65566  1.0000
  H   H496      1.0  0.99498  0.59595  0.68534  1.0000
  H   H497      1.0  0.25691  0.72985  0.49513  1.0000
  C   C270      1.0  0.08646  0.58590  0.98160  1.0000
  Fe  Fe26      1.0  0.31588  0.84758  0.55360  1.0000
  C   C271      1.0  0.10995  0.75555  0.50051  1.0000
  S   S52       1.0  0.19447  0.82054  0.50294  1.0000
  S   S53       1.0  0.15568  0.69329  0.49440  1.0000
  C   C272      1.0  0.32111  0.88322  0.85482  1.0000
  H   H498      1.0  0.31932  0.87263  0.79560  1.0000
  C   C273      1.0  0.29600  0.90356  0.48869  1.0000
  H   H499      1.0  0.61882  0.06676  0.41115  1.0000
  S   S54       1.0  0.38581  0.45476  0.17632  1.0000
  Fe  Fe27      1.0  0.51455  0.32617  0.16033  1.0000
  S   S55       1.0  0.55071  0.33503  0.14683  1.0000
  S   S56       1.0  0.49946  0.29068  0.14946  1.0000
  Fe  Fe28      1.0  0.50253  0.37601  0.18173  1.0000
  S   S57       1.0  0.53838  0.38684  0.17041  1.0000
  S   S58       1.0  0.48205  0.40657  0.20408  1.0000
  Fe  Fe29      1.0  0.53689  0.36604  0.11715  1.0000
  S   S59       1.0  0.54223  0.38238  0.05831  1.0000
  Fe  Fe30      1.0  0.54911  0.35525  0.20130  1.0000
  S   S60       1.0  0.57908  0.35608  0.24292  1.0000
  S   S61       1.0  0.50053  0.35611  0.12741  1.0000
  S   S62       1.0  0.51354  0.34529  0.21590  1.0000
  Fe  Fe31      1.0  0.53475  0.10178  0.11903  1.0000
  S   S63       1.0  0.50008  0.11707  0.12401  1.0000
  S   S64       1.0  0.53970  0.08899  0.05769  1.0000
  Fe  Fe32      1.0  0.54309  0.11077  0.20441  1.0000
  S   S65       1.0  0.50829  0.12552  0.21337  1.0000
  S   S66       1.0  0.57236  0.11319  0.24785  1.0000
  Fe  Fe33      1.0  0.49560  0.09631  0.17684  1.0000
  S   S67       1.0  0.46001  0.07954  0.17533  1.0000
  Fe  Fe34      1.0  0.51506  0.14497  0.15952  1.0000
  S   S68       1.0  0.50311  0.18174  0.14839  1.0000
  S   S69       1.0  0.53010  0.08021  0.17136  1.0000
  S   S70       1.0  0.55009  0.13117  0.15109  1.0000
  H   H500      1.0  0.63718  0.28565  0.35268  1.0000
  H   H501      1.0  0.36573  0.19591  0.23805  1.0000
  S   S71       1.0  0.58328  0.34352  0.42331  1.0000
  H   H502      1.0  0.62960  0.31211  0.37493  1.0000
  H   H503      1.0  0.55245  0.25111  0.42935  1.0000
  S   S72       1.0  0.58666  0.10873  0.42818  1.0000
  H   H504      1.0  0.52966  0.24545  0.09271  1.0000
  H   H505      1.0  0.49125  0.46910  0.26613  1.0000
  H   H506      1.0  0.64799  0.13661  0.34201  1.0000
  H   H507      1.0  0.59025  0.39864  0.39552  1.0000
  C   C274      1.0  0.56158  0.07669  0.02964  1.0000
  C   C275      1.0  0.58230  0.06975  0.04501  1.0000
  C   C276      1.0  0.59894  0.05998  0.02150  1.0000
  H   H508      1.0  0.39551  0.99008  0.03592  1.0000
  H   H509      1.0  0.58553  0.07197  0.07499  1.0000
  C   C277      1.0  0.52251  0.21027  0.03902  1.0000
  C   C278      1.0  0.57468  0.11357  0.29842  1.0000
  C   C279      1.0  0.59383  0.12370  0.31526  1.0000
  C   C280      1.0  0.59722  0.12322  0.35496  1.0000
  C   C281      1.0  0.58192  0.11188  0.37837  1.0000
  C   C282      1.0  0.56270  0.10188  0.36165  1.0000
  C   C283      1.0  0.55895  0.10291  0.32202  1.0000
  H   H510      1.0  0.60609  0.13202  0.29736  1.0000
  H   H511      1.0  0.61174  0.13137  0.36748  1.0000
  H   H512      1.0  0.55070  0.09306  0.37937  1.0000
  H   H513      1.0  0.54426  0.09487  0.30961  1.0000
  C   C284      1.0  0.57992  0.35182  0.29294  1.0000
  C   C285      1.0  0.56090  0.34509  0.31353  1.0000
  C   C286      1.0  0.56224  0.34257  0.35333  1.0000
  C   C287      1.0  0.58263  0.34654  0.37303  1.0000
  C   C288      1.0  0.60171  0.35301  0.35238  1.0000
  C   C289      1.0  0.60033  0.35564  0.31263  1.0000
  H   H514      1.0  0.54516  0.34189  0.29875  1.0000
  H   H515      1.0  0.54733  0.33764  0.36896  1.0000
  H   H516      1.0  0.61748  0.35626  0.36704  1.0000
  H   H517      1.0  0.61515  0.36086  0.29701  1.0000
  C   C290      1.0  0.50208  0.26046  0.15161  1.0000
  C   C291      1.0  0.48594  0.24768  0.13178  1.0000
  C   C292      1.0  0.48696  0.22396  0.13087  1.0000
  C   C293      1.0  0.50398  0.21210  0.15023  1.0000
  C   C294      1.0  0.52040  0.22472  0.17019  1.0000
  C   C295      1.0  0.51950  0.24881  0.17079  1.0000
  H   H518      1.0  0.47248  0.25625  0.11667  1.0000
  H   H519      1.0  0.47428  0.21467  0.11510  1.0000
  H   H520      1.0  0.53370  0.21592  0.18531  1.0000
  H   H521      1.0  0.53214  0.25831  0.18627  1.0000
  H   H522      1.0  0.58528  0.22458  0.38555  1.0000
  C   C296      1.0  0.58623  0.37970  0.02900  1.0000
  C   C297      1.0  0.56448  0.38882  0.02566  1.0000
  H   H523      1.0  0.58656  0.24920  0.04096  1.0000
  H   H524      1.0  0.47580  0.46396  0.12691  1.0000
  H   H525      1.0  0.59017  0.36864  0.05252  1.0000
  H   H526      1.0  0.39821  0.46506  0.03330  1.0000
  C   C298      1.0  0.41290  0.44191  0.18358  1.0000
  C   C299      1.0  0.41731  0.42059  0.16744  1.0000
  C   C300      1.0  0.43832  0.40959  0.17295  1.0000
  C   C301      1.0  0.45528  0.41970  0.19499  1.0000
  C   C302      1.0  0.45082  0.44097  0.21126  1.0000
  C   C303      1.0  0.42987  0.45201  0.20560  1.0000
  H   H527      1.0  0.40430  0.41243  0.15069  1.0000
  H   H528      1.0  0.44127  0.39316  0.16052  1.0000
  H   H529      1.0  0.46359  0.44888  0.22874  1.0000
  H   H530      1.0  0.42661  0.46807  0.21901  1.0000
  C   C304      1.0  0.42156  0.01361  0.20742  1.0000
  C   C305      1.0  0.44403  0.01710  0.21969  1.0000
  C   C306      1.0  0.45622  0.03680  0.20964  1.0000
  C   C307      1.0  0.44599  0.05366  0.18764  1.0000
  C   C308      1.0  0.42350  0.05019  0.17538  1.0000
  C   C309      1.0  0.41145  0.03029  0.18484  1.0000
  H   H531      1.0  0.54308  0.41026  0.99154  1.0000
  H   H532      1.0  0.47342  0.03912  0.21948  1.0000
  H   H533      1.0  0.41529  0.06306  0.15845  1.0000
  H   H534      1.0  0.39416  0.02813  0.17540  1.0000
  H   H535      1.0  0.52596  0.27065  0.36294  1.0000
  N   N17       1.0  0.53057  0.41503  0.30994  1.0000
  C   C310      1.0  0.54533  0.42191  0.34307  1.0000
  C   C311      1.0  0.51347  0.43343  0.30213  1.0000
  C   C312      1.0  0.51760  0.39422  0.32200  1.0000
  C   C313      1.0  0.54394  0.40967  0.27455  1.0000
  C   C314      1.0  0.56624  0.42316  0.26841  1.0000
  C   C315      1.0  0.56108  0.40310  0.35884  1.0000
  C   C316      1.0  0.49925  0.38564  0.29401  1.0000
  C   C317      1.0  0.52291  0.45682  0.29059  1.0000
  C   C318      1.0  0.57471  0.42112  0.22771  1.0000
  C   C319      1.0  0.57995  0.41273  0.38376  1.0000
  C   C320      1.0  0.49011  0.36256  0.30598  1.0000
  H   H536      1.0  0.53464  0.42770  0.36713  1.0000
  H   H537      1.0  0.55599  0.43670  0.33605  1.0000
  H   H538      1.0  0.50211  0.42855  0.27824  1.0000
  H   H539      1.0  0.50237  0.43574  0.32731  1.0000
  H   H540      1.0  0.50917  0.39712  0.34981  1.0000
  H   H541      1.0  0.52936  0.37982  0.32646  1.0000
  H   H542      1.0  0.54888  0.39152  0.27395  1.0000
  H   H543      1.0  0.53305  0.41183  0.24889  1.0000
  H   H544      1.0  0.57974  0.41654  0.28734  1.0000
  H   H545      1.0  0.56438  0.44134  0.27455  1.0000
  H   H546      1.0  0.55119  0.39115  0.37659  1.0000
  H   H547      1.0  0.56893  0.39332  0.33561  1.0000
  H   H548      1.0  0.50627  0.38407  0.26509  1.0000
  H   H549      1.0  0.48459  0.39734  0.29315  1.0000
  H   H550      1.0  0.53539  0.46330  0.31142  1.0000
  H   H551      1.0  0.53080  0.45574  0.26215  1.0000
  H   H552      1.0  0.52924  0.31749  0.07703  1.0000
  H   H553      1.0  0.59089  0.43045  0.22465  1.0000
  H   H554      1.0  0.58462  0.23324  0.45453  1.0000
  H   H555      1.0  0.56221  0.42839  0.20752  1.0000
  C   C321      1.0  0.52873  0.01525  0.04822  1.0000
  H   H556      1.0  0.61190  0.24516  0.45322  1.0000
  C   C322      1.0  0.41077  0.47379  0.08970  1.0000
  H   H557      1.0  0.50380  0.34973  0.30603  1.0000
  H   H558      1.0  0.48251  0.36350  0.33468  1.0000
  H   H559      1.0  0.47685  0.35707  0.28555  1.0000
  C   C323      1.0  0.46424  0.44853  0.07516  1.0000
  C   C324      1.0  0.59604  0.24348  0.43633  1.0000
  H   H560      1.0  0.63672  0.10349  0.40034  1.0000
  H   H561      1.0  0.54288  0.12085  0.48450  1.0000
  H   H562      1.0  0.47709  0.45626  0.05638  1.0000
  H   H563      1.0  0.40176  0.01791  0.05357  1.0000
  C   C325      1.0  0.50396  0.47431  0.28769  1.0000
  N   N18       1.0  0.43313  0.15785  0.20250  1.0000
  C   C326      1.0  0.41026  0.16776  0.19305  1.0000
  C   C327      1.0  0.44440  0.14871  0.16697  1.0000
  C   C328      1.0  0.42924  0.13828  0.22924  1.0000
  C   C329      1.0  0.44838  0.17466  0.22224  1.0000
  C   C330      1.0  0.45052  0.19818  0.20353  1.0000
  C   C331      1.0  0.39632  0.17682  0.22701  1.0000
  C   C332      1.0  0.45075  0.12537  0.24201  1.0000
  C   C333      1.0  0.43840  0.16021  0.12855  1.0000
  C   C334      1.0  0.45286  0.15110  0.09621  1.0000
  C   C335      1.0  0.46640  0.21343  0.22635  1.0000
  C   C336      1.0  0.37572  0.19014  0.21328  1.0000
  C   C337      1.0  0.44473  0.10433  0.26501  1.0000
  H   H564      1.0  0.39965  0.15482  0.17843  1.0000
  H   H565      1.0  0.41188  0.18189  0.17254  1.0000
  H   H566      1.0  0.46318  0.14894  0.17001  1.0000
  H   H567      1.0  0.44012  0.13052  0.16265  1.0000
  H   H568      1.0  0.41738  0.12585  0.21604  1.0000
  H   H569      1.0  0.42115  0.14400  0.25593  1.0000
  H   H570      1.0  0.44295  0.17726  0.25211  1.0000
  H   H571      1.0  0.46590  0.16784  0.22445  1.0000
  H   H572      1.0  0.43396  0.20688  0.20168  1.0000
  H   H573      1.0  0.45767  0.19652  0.17484  1.0000
  H   H574      1.0  0.38989  0.16262  0.24451  1.0000
  H   H575      1.0  0.40655  0.18814  0.24532  1.0000
  H   H576      1.0  0.46163  0.13625  0.26011  1.0000
  H   H577      1.0  0.46071  0.11992  0.21727  1.0000
  H   H578      1.0  0.42047  0.15672  0.12102  1.0000
  H   H579      1.0  0.44082  0.17871  0.12952  1.0000
  H   H580      1.0  0.44715  0.15855  0.06890  1.0000
  H   H581      1.0  0.47085  0.15582  0.10058  1.0000
  H   H582      1.0  0.45142  0.13242  0.09428  1.0000
  H   H583      1.0  0.45977  0.21619  0.25539  1.0000
  H   H584      1.0  0.54631  0.29453  0.43266  1.0000
  H   H585      1.0  0.52622  0.00594  0.07522  1.0000
  S   S73       1.0  0.40694  0.98855  0.22225  1.0000
  H   H586      1.0  0.38108  0.20526  0.19693  1.0000
  C   C338      1.0  0.53160  0.10595  0.48119  1.0000
  H   H587      1.0  0.46048  0.09526  0.27303  1.0000
  H   H588      1.0  0.43557  0.10902  0.29126  1.0000
  H   H589      1.0  0.42780  0.03255  0.09773  1.0000
  H   H590      1.0  0.57368  0.25064  0.11434  1.0000
  H   H591      1.0  0.55077  0.26952  0.48536  1.0000
  H   H592      1.0  0.61472  0.19577  0.38711  1.0000
  H   H593      1.0  0.47402  0.04256  0.06162  1.0000
  H   H594      1.0  0.36971  0.99871  0.34328  1.0000
  H   H595      1.0  0.44849  0.44578  0.05859  1.0000
  H   H596      1.0  0.56056  0.06918  0.48678  1.0000
  Fe  Fe35      1.0  0.61413  0.12435  0.46616  1.0000
  H   H597      1.0  0.63530  0.05393  0.37402  1.0000
  H   H598      1.0  0.43825  0.00842  0.03855  1.0000
  H   H599      1.0  0.47144  0.48532  0.17823  1.0000
  H   H600      1.0  0.57277  0.42244  0.40778  1.0000
  S   S74       1.0  0.64973  0.33945  0.44460  1.0000
  S   S75       1.0  0.63207  0.15746  0.45917  1.0000
  H   H601      1.0  0.57780  0.40318  0.22034  1.0000
  C   C339      1.0  0.44522  0.02727  0.09048  1.0000
  C   C340      1.0  0.56036  0.27431  0.02424  1.0000
  C   C341      1.0  0.39220  0.47356  0.05944  1.0000
  S   S76       1.0  0.64571  0.10603  0.48474  1.0000
  H   H602      1.0  0.59781  0.06379  0.47852  1.0000
  H   H603      1.0  0.44365  0.99339  0.14271  1.0000
  H   H604      1.0  0.51680  0.20539  0.06788  1.0000
  H   H605      1.0  0.36470  0.17939  0.19514  1.0000
  H   H606      1.0  0.60139  0.19719  0.43287  1.0000
  C   C342      1.0  0.55779  0.07357  0.99047  1.0000
  H   H607      1.0  0.44756  0.45463  0.12883  1.0000
  H   H608      1.0  0.58842  0.29723  0.14388  1.0000
  H   H609      1.0  0.40812  0.00217  0.11913  1.0000
  C   C343      1.0  0.55560  0.28099  0.09347  1.0000
  C   C344      1.0  0.45616  0.04660  0.06843  1.0000
  H   H610      1.0  0.54286  0.28157  0.11662  1.0000
  H   H611      1.0  0.51061  0.28052  0.07298  1.0000
  H   H612      1.0  0.36118  0.01291  0.04964  1.0000
  C   C345      1.0  0.56249  0.26311  0.41186  1.0000
  H   H613      1.0  0.47720  0.41517  0.06143  1.0000
  C   C346      1.0  0.61224  0.20653  0.41253  1.0000
  N   N19       1.0  0.54493  0.27133  0.05800  1.0000
  H   H614      1.0  0.46017  0.41605  0.10352  1.0000
  H   H615      1.0  0.64306  0.09879  0.33064  1.0000
  C   C347      1.0  0.57679  0.26886  0.10933  1.0000
  H   H616      1.0  0.51527  0.29548  0.38625  1.0000
  C   C348      1.0  0.57711  0.25480  0.01555  1.0000
  H   H617      1.0  0.59915  0.27007  0.15834  1.0000
  H   H618      1.0  0.57027  0.27749  0.16851  1.0000
  H   H619      1.0  0.46350  0.00096  0.06235  1.0000
  C   C349      1.0  0.54844  0.28499  0.40588  1.0000
  H   H620      1.0  0.54399  0.02612  0.05132  1.0000
  H   H621      1.0  0.59123  0.42381  0.36685  1.0000
  C   C350      1.0  0.52484  0.27954  0.39061  1.0000
  H   H622      1.0  0.57031  0.29021  0.02721  1.0000
  H   H623      1.0  0.40352  0.48171  0.11537  1.0000
  H   H624      1.0  0.59307  0.29716  0.39796  1.0000
  H   H625      1.0  0.55671  0.29622  0.38493  1.0000
  H   H626      1.0  0.51381  0.02626  0.04320  1.0000
  H   H627      1.0  0.62899  0.20971  0.42586  1.0000
  H   H628      1.0  0.58053  0.29731  0.46028  1.0000
  H   H629      1.0  0.53499  0.09794  0.45329  1.0000
  H   H630      1.0  0.41515  0.45601  0.09627  1.0000
  H   H631      1.0  0.55374  0.23618  0.06854  1.0000
  H   H632      1.0  0.51542  0.26884  0.41106  1.0000
  H   H633      1.0  0.51056  0.20293  0.01801  1.0000
  C   C351      1.0  0.62738  0.06991  0.38368  1.0000
  H   H634      1.0  0.61275  0.23745  0.38116  1.0000
  H   H635      1.0  0.46794  0.23009  0.21204  1.0000
  H   H636      1.0  0.53955  0.20300  0.03398  1.0000
  H   H637      1.0  0.61491  0.05479  0.03377  1.0000
  C   C352      1.0  0.52333  0.28434  0.05066  1.0000
  H   H638      1.0  0.45603  0.06217  0.08606  1.0000
  H   H639      1.0  0.62723  0.29209  0.43758  1.0000
  C   C353      1.0  0.55982  0.40315  0.99460  1.0000
  C   C354      1.0  0.43153  0.48749  0.07613  1.0000
  C   C355      1.0  0.52302  0.23597  0.03486  1.0000
  H   H640      1.0  0.59118  0.27106  0.08965  1.0000
  H   H641      1.0  0.60183  0.27963  0.47885  1.0000
  H   H642      1.0  0.43411  0.09264  0.24789  1.0000
  C   C356      1.0  0.63755  0.29534  0.37964  1.0000
  C   C357      1.0  0.40924  0.99059  0.09438  1.0000
  C   C358      1.0  0.59980  0.27970  0.40076  1.0000
  H   H643      1.0  0.48875  0.42690  0.10445  1.0000
  N   N20       1.0  0.58579  0.26637  0.42857  1.0000
  H   H644      1.0  0.48967  0.31729  0.05414  1.0000
  H   H645      1.0  0.56366  0.25500  0.38350  1.0000
  C   C359      1.0  0.45977  0.46363  0.11028  1.0000
  C   C360      1.0  0.47313  0.42531  0.08700  1.0000
  C   C361      1.0  0.62519  0.28243  0.41087  1.0000
  H   H646      1.0  0.59840  0.27240  0.37176  1.0000
  C   C362      1.0  0.53858  0.24699  0.06516  1.0000
  C   C363      1.0  0.37045  0.00392  0.07255  1.0000
  H   H647      1.0  0.37731  0.46417  0.07037  1.0000
  C   C364      1.0  0.39519  0.00100  0.06142  1.0000
  H   H648      1.0  0.45209  0.00447  0.23722  1.0000
  H   H649      1.0  0.49546  0.47645  0.31550  1.0000
  C   C365      1.0  0.52569  0.31044  0.04850  1.0000
  C   C366      1.0  0.58403  0.27909  0.14731  1.0000
  H   H650      1.0  0.48356  0.20583  0.22822  1.0000
  C   C367      1.0  0.60112  0.22878  0.40098  1.0000
  H   H651      1.0  0.50598  0.34014  0.03436  1.0000
  H   H652      1.0  0.63372  0.26589  0.41436  1.0000
  C   C368      1.0  0.58484  0.27925  0.46540  1.0000
  C   C369      1.0  0.53175  0.99852  0.01557  1.0000
  Fe  Fe36      1.0  0.61417  0.34674  0.46252  1.0000
  H   H653      1.0  0.44666  0.05003  0.04180  1.0000
  H   H654      1.0  0.51542  0.27889  0.02347  1.0000
  H   H655      1.0  0.56100  0.29876  0.08870  1.0000
  H   H656      1.0  0.53951  0.31550  0.02907  1.0000
  H   H657      1.0  0.55034  0.27668  0.99769  1.0000
  H   H658      1.0  0.36897  0.01387  0.09913  1.0000
  C   C370      1.0  0.44539  0.00498  0.06724  1.0000
  C   C371      1.0  0.50382  0.32148  0.03470  1.0000
  H   H659      1.0  0.50540  0.24214  0.03841  1.0000
  H   H660      1.0  0.61435  0.07521  0.36268  1.0000
  H   H661      1.0  0.49955  0.31580  0.00553  1.0000
  H   H662      1.0  0.38468  0.99310  0.29995  1.0000
  H   H663      1.0  0.45498  0.02530  0.11723  1.0000
  C   C372      1.0  0.64524  0.08834  0.38877  1.0000
  H   H664      1.0  0.64943  0.17899  0.35077  1.0000
  H   H665      1.0  0.43623  0.48141  0.04742  1.0000
  H   H666      1.0  0.51379  0.11188  0.48149  1.0000
  H   H667      1.0  0.46926  0.98909  0.29528  1.0000
  H   H668      1.0  0.63726  0.05198  0.48273  1.0000
  H   H669      1.0  0.56784  0.23991  0.00433  1.0000
  C   C373      1.0  0.60287  0.38461  0.00144  1.0000
  H   H670      1.0  0.52861  0.24023  0.00573  1.0000
  H   H671      1.0  0.60482  0.27615  0.99606  1.0000
  H   H672      1.0  0.65542  0.29806  0.38814  1.0000
  N   N21       1.0  0.45184  0.48739  0.10216  1.0000
  H   H673      1.0  0.43246  0.48795  0.15393  1.0000
  H   H674      1.0  0.61951  0.37720  0.00418  1.0000
  Fe  Fe37      1.0  0.60747  0.46924  0.84084  1.0000
  S   S77       1.0  0.60274  0.43159  0.83314  1.0000
  C   C374      1.0  0.55301  0.46083  0.69106  1.0000
  H   H675      1.0  0.51079  0.48596  0.96159  1.0000
  Fe  Fe38      1.0  0.63534  0.43176  0.79993  1.0000
  C   C375      1.0  0.58312  0.99564  0.96174  1.0000
  Fe  Fe39      1.0  0.62452  0.42843  0.88583  1.0000
  S   S78       1.0  0.61984  0.40379  0.93582  1.0000
  S   S79       1.0  0.63875  0.46937  0.80500  1.0000
  S   S80       1.0  0.62818  0.46609  0.89471  1.0000
  Fe  Fe40      1.0  0.61872  0.03216  0.89252  1.0000
  H   H676      1.0  0.59588  0.40743  0.60423  1.0000
  S   S81       1.0  0.61711  0.04482  0.95414  1.0000
  Fe  Fe41      1.0  0.62047  0.04294  0.80614  1.0000
  S   S82       1.0  0.62605  0.00649  0.79152  1.0000
  S   S83       1.0  0.62069  0.07334  0.76531  1.0000
  C   C376      1.0  0.53296  0.04263  0.86331  1.0000
  H   H677      1.0  0.58019  0.00698  0.98623  1.0000
  S   S84       1.0  0.59221  0.03499  0.84709  1.0000
  S   S85       1.0  0.62537  0.99500  0.88234  1.0000
  C   C377      1.0  0.57466  0.11138  0.62799  1.0000
  H   H678      1.0  0.59957  0.43061  0.66537  1.0000
  Fe  Fe42      1.0  0.62857  0.35237  0.54740  1.0000
  C   C378      1.0  0.56892  0.28431  0.53165  1.0000
  S   S86       1.0  0.61468  0.35560  0.60769  1.0000
  H   H679      1.0  0.54898  0.47075  0.71702  1.0000
  S   S87       1.0  0.61579  0.32304  0.51252  1.0000
  S   S88       1.0  0.63833  0.08550  0.58692  1.0000
  Fe  Fe43      1.0  0.63621  0.11526  0.54493  1.0000
  N   N22       1.0  0.56823  0.06657  0.54691  1.0000
  H   H680      1.0  0.54731  0.02482  0.98190  1.0000
  Fe  Fe44      1.0  0.62444  0.16359  0.52035  1.0000
  H   H681      1.0  0.53859  0.03170  0.83953  1.0000
  H   H682      1.0  0.57088  0.39041  0.59877  1.0000
  S   S89       1.0  0.60376  0.13191  0.52629  1.0000
  H   H683      1.0  0.53128  0.09762  0.54034  1.0000
  H   H684      1.0  0.58940  0.00584  0.93765  1.0000
  C   C379      1.0  0.62814  0.22138  0.52538  1.0000
  H   H685      1.0  0.53336  0.44497  0.64566  1.0000
  C   C380      1.0  0.56847  0.26978  0.49585  1.0000
  C   C381      1.0  0.55539  0.03757  0.59769  1.0000
  C   C382      1.0  0.57656  0.40833  0.96736  1.0000
  C   C383      1.0  0.62504  0.07618  0.71542  1.0000
  C   C384      1.0  0.62586  0.09800  0.69946  1.0000
  C   C385      1.0  0.62983  0.10124  0.66032  1.0000
  C   C386      1.0  0.63296  0.08264  0.63648  1.0000
  H   H686      1.0  0.58604  0.28418  0.54471  1.0000
  C   C387      1.0  0.62794  0.05758  0.69146  1.0000
  H   H687      1.0  0.55163  0.41280  0.64892  1.0000
  H   H688      1.0  0.63059  0.11813  0.64871  1.0000
  H   H689      1.0  0.53623  0.40324  0.77546  1.0000
  H   H690      1.0  0.62689  0.04070  0.70299  1.0000
  H   H691      1.0  0.53931  0.44375  0.75918  1.0000
  H   H692      1.0  0.63353  0.04206  0.53056  1.0000
  H   H693      1.0  0.57154  0.06236  0.93678  1.0000
  H   H694      1.0  0.61468  0.38420  0.73877  1.0000
  C   C388      1.0  0.60485  0.06062  0.50729  1.0000
  C   C389      1.0  0.65327  0.25983  0.50416  1.0000
  H   H695      1.0  0.52117  0.03600  0.62050  1.0000
  C   C390      1.0  0.63692  0.40383  0.70361  1.0000
  S   S90       1.0  0.62369  0.37668  0.49889  1.0000
  C   C391      1.0  0.63889  0.39188  0.63713  1.0000
  C   C392      1.0  0.62365  0.37434  0.64411  1.0000
  C   C393      1.0  0.61493  0.37176  0.68095  1.0000
  C   C394      1.0  0.62141  0.38649  0.71054  1.0000
  C   C395      1.0  0.59124  0.45821  0.71704  1.0000
  C   C396      1.0  0.57451  0.06397  0.96692  1.0000
  H   H696      1.0  0.60305  0.35828  0.68662  1.0000
  H   H697      1.0  0.51599  0.48244  0.65858  1.0000
  C   C397      1.0  0.56582  0.42633  0.72637  1.0000
  H   H698      1.0  0.52829  0.01306  0.58867  1.0000
  H   H699      1.0  0.57260  0.41927  0.94369  1.0000
  C   C398      1.0  0.54922  0.05259  0.56306  1.0000
  H   H700      1.0  0.56687  0.44511  0.78060  1.0000
  C   C399      1.0  0.57029  0.41247  0.64796  1.0000
  C   C400      1.0  0.53661  0.47359  0.92405  1.0000
  C   C401      1.0  0.64563  0.40639  0.66678  1.0000
  H   H701      1.0  0.62989  0.27843  0.53867  1.0000
  H   H702      1.0  0.58095  0.41580  0.73317  1.0000
  C   C402      1.0  0.63199  0.06082  0.65237  1.0000
  C   C403      1.0  0.56009  0.07987  0.51278  1.0000
  C   C404      1.0  0.58123  0.43475  0.66236  1.0000
  H   H703      1.0  0.51835  0.05286  0.85342  1.0000
  H   H704      1.0  0.59566  0.04322  0.55880  1.0000
  H   H705      1.0  0.60488  0.44661  0.72693  1.0000
  H   H706      1.0  0.60904  0.46937  0.66497  1.0000
  C   C405      1.0  0.59432  0.26186  0.98558  1.0000
  H   H707      1.0  0.57606  0.39816  0.66596  1.0000
  H   H708      1.0  0.52338  0.07495  0.50952  1.0000
  C   C406      1.0  0.60241  0.47658  0.69172  1.0000
  H   H709      1.0  0.49905  0.48655  0.89049  1.0000
  H   H710      1.0  0.58686  0.07188  0.59936  1.0000
  H   H711      1.0  0.57897  0.03587  0.51846  1.0000
  H   H712      1.0  0.53490  0.06335  0.57211  1.0000
  H   H713      1.0  0.56867  0.02512  0.59040  1.0000
  H   H714      1.0  0.59019  0.12009  0.61799  1.0000
  H   H715      1.0  0.62354  0.11253  0.71760  1.0000
  C   C407      1.0  0.54925  0.41399  0.78938  1.0000
  H   H716      1.0  0.52649  0.45891  0.91413  1.0000
  C   C408      1.0  0.63454  0.26203  0.52788  1.0000
  H   H717      1.0  0.54214  0.04141  0.54050  1.0000
  C   C409      1.0  0.55517  0.43420  0.76429  1.0000
  C   C410      1.0  0.53092  0.45022  0.67557  1.0000
  H   H718      1.0  0.59263  0.09170  0.56412  1.0000
  H   H719      1.0  0.60749  0.24470  0.55671  1.0000
  S   S91       1.0  0.64653  0.42248  0.73964  1.0000
  N   N23       1.0  0.57229  0.44480  0.69886  1.0000
  H   H720      1.0  0.55346  0.41443  0.71371  1.0000
  H   H721      1.0  0.49611  0.45957  0.66366  1.0000
  C   C411      1.0  0.57858  0.08189  0.57646  1.0000
  H   H722      1.0  0.50458  0.99119  0.93660  1.0000
  S   S92       1.0  0.61188  0.19779  0.53893  1.0000
  H   H723      1.0  0.57180  0.09421  0.50705  1.0000
  C   C412      1.0  0.53552  0.08911  0.51345  1.0000
  H   H724      1.0  0.63568  0.47510  0.71830  1.0000
  C   C413      1.0  0.53459  0.01118  0.97754  1.0000
  H   H725      1.0  0.46944  0.48663  0.93174  1.0000
  C   C414      1.0  0.62226  0.48775  0.71220  1.0000
  H   H726      1.0  0.56321  0.12420  0.64045  1.0000
  H   H727      1.0  0.55678  0.27745  0.55266  1.0000
  H   H728      1.0  0.56143  0.04801  0.62182  1.0000
  H   H729      1.0  0.51124  0.01797  0.88847  1.0000
  S   S93       1.0  0.64650  0.04336  0.85299  1.0000
  H   H730      1.0  0.58021  0.44739  0.63899  1.0000
  H   H731      1.0  0.55838  0.11274  0.57398  1.0000
  H   H732      1.0  0.56990  0.42011  0.58741  1.0000
  H   H733      1.0  0.54244  0.42006  0.81685  1.0000
  H   H734      1.0  0.54774  0.46785  0.94762  1.0000
  H   H735      1.0  0.55804  0.47369  0.66971  1.0000
  H   H736      1.0  0.52062  0.04008  0.91998  1.0000
  C   C415      1.0  0.62195  0.24289  0.53827  1.0000
  H   H737      1.0  0.56452  0.40362  0.79530  1.0000
  H   H738      1.0  0.61765  0.98898  0.97919  1.0000
  C   C416      1.0  0.57719  0.40739  0.60711  1.0000
  H   H739      1.0  0.55972  0.02502  0.91934  1.0000
  C   C417      1.0  0.53481  0.02431  0.61145  1.0000
  C   C418      1.0  0.56282  0.09948  0.59497  1.0000
  H   H740      1.0  0.54723  0.09163  0.60624  1.0000
  H   H741      1.0  0.57931  0.09905  0.65051  1.0000
  C   C419      1.0  0.58653  0.05049  0.53391  1.0000
  C   C420      1.0  0.52601  0.02828  0.89734  1.0000
  H   H742      1.0  0.53969  0.01370  0.63617  1.0000
  H   H743      1.0  0.58527  0.46715  0.74286  1.0000
  H   H744      1.0  0.52543  0.43548  0.69255  1.0000
  H   H745      1.0  0.50784  0.47278  0.70534  1.0000
  H   H746      1.0  0.54686  0.05435  0.87132  1.0000
  H   H747      1.0  0.61140  0.07683  0.51822  1.0000
  H   H748      1.0  0.51840  0.02027  0.97268  1.0000
  H   H749      1.0  0.63435  0.04627  0.63428  1.0000
  Fe  Fe45      1.0  0.65193  0.31758  0.49654  1.0000
  Fe  Fe46      1.0  0.59936  0.99809  0.83545  1.0000
  N   N24       1.0  0.54061  0.99713  0.94332  1.0000
  C   C421      1.0  0.54590  0.01322  0.91124  1.0000
  H   H750      1.0  0.55235  0.00367  0.88637  1.0000
  H   H751      1.0  0.56406  0.30200  0.52497  1.0000
  H   H752      1.0  0.64582  0.31287  0.61636  1.0000
  H   H753      1.0  0.54750  0.47963  0.90049  1.0000
  Fe  Fe47      1.0  0.65161  0.00669  0.83983  1.0000
  C   C422      1.0  0.62488  0.04458  0.50282  1.0000
  H   H754      1.0  0.65211  0.20255  0.49223  1.0000
  H   H755      1.0  0.58562  0.26698  0.95894  1.0000
  C   C423      1.0  0.51161  0.46737  0.67586  1.0000
  H   H756      1.0  0.43246  0.48493  0.97231  1.0000
  C   C424      1.0  0.59823  0.39895  0.97040  1.0000
  H   H757      1.0  0.60569  0.24745  0.97919  1.0000
  C   C425      1.0  0.64708  0.21911  0.50203  1.0000
  H   H758      1.0  0.54192  0.07899  0.97815  1.0000
  C   C426      1.0  0.59523  0.05703  0.98231  1.0000
  H   H759      1.0  0.64544  0.39427  0.60881  1.0000
  H   H760      1.0  0.57330  0.25239  0.50428  1.0000
  H   H761      1.0  0.61918  0.02801  0.49154  1.0000
  Fe  Fe48      1.0  0.35680  0.92011  0.22172  1.0000
  S   S94       1.0  0.34795  0.95486  0.24128  1.0000
  S   S95       1.0  0.36144  0.89038  0.26311  1.0000
  Fe  Fe49      1.0  0.36148  0.93595  0.13782  1.0000
  S   S96       1.0  0.35150  0.97167  0.15384  1.0000
  S   S97       1.0  0.37410  0.93359  0.07592  1.0000
  Fe  Fe50      1.0  0.37572  0.96777  0.20285  1.0000
  H   H762      1.0  0.43236  0.90166  0.21082  1.0000
  S   S98       1.0  0.38592  0.93252  0.18624  1.0000
  H   H763      1.0  0.42059  0.80777  0.46157  1.0000
  Fe  Fe51      1.0  0.37942  0.53489  0.13245  1.0000
  S   S99       1.0  0.35586  0.50510  0.12640  1.0000
  S   S100      1.0  0.40523  0.55101  0.09140  1.0000
  Fe  Fe52      1.0  0.37046  0.53775  0.21969  1.0000
  S   S101      1.0  0.34757  0.50728  0.21920  1.0000
  S   S102      1.0  0.37925  0.56331  0.26642  1.0000
  H   H764      1.0  0.42527  0.50503  0.07195  1.0000
  H   H765      1.0  0.42660  0.88834  0.44132  1.0000
  S   S103      1.0  0.39716  0.52098  0.18410  1.0000
  S   S104      1.0  0.35438  0.55362  0.16843  1.0000
  N   N25       1.0  0.37578  0.77108  0.39359  1.0000
  H   H766      1.0  0.38726  0.80145  0.42222  1.0000
  S   S105      1.0  0.35003  0.57533  0.43995  1.0000
  H   H767      1.0  0.37055  0.85588  0.31842  1.0000
  H   H768      1.0  0.36862  0.79074  0.31673  1.0000
  S   S106      1.0  0.34885  0.88695  0.44345  1.0000
  C   C427      1.0  0.40855  0.77467  0.44281  1.0000
  H   H769      1.0  0.47212  0.92762  0.01718  1.0000
  H   H770      1.0  0.41998  0.96006  0.15190  1.0000
  H   H771      1.0  0.40861  0.89111  0.23691  1.0000
  C   C428      1.0  0.36991  0.56650  0.31410  1.0000
  C   C429      1.0  0.35984  0.54886  0.33435  1.0000
  C   C430      1.0  0.35358  0.55199  0.37261  1.0000
  C   C431      1.0  0.35727  0.57275  0.39113  1.0000
  C   C432      1.0  0.36687  0.59054  0.37062  1.0000
  C   C433      1.0  0.37328  0.58735  0.33246  1.0000
  H   H772      1.0  0.35738  0.53265  0.32082  1.0000
  H   H773      1.0  0.40224  0.97507  0.35839  1.0000
  H   H774      1.0  0.36987  0.60658  0.38442  1.0000
  H   H775      1.0  0.38116  0.60109  0.31717  1.0000
  C   C434      1.0  0.35640  0.88928  0.31296  1.0000
  C   C435      1.0  0.34670  0.90727  0.33279  1.0000
  C   C436      1.0  0.34408  0.90603  0.37255  1.0000
  C   C437      1.0  0.35089  0.88674  0.39303  1.0000
  C   C438      1.0  0.36027  0.86861  0.37315  1.0000
  C   C439      1.0  0.36300  0.86989  0.33341  1.0000
  H   H776      1.0  0.32974  0.56490  0.25555  1.0000
  H   H777      1.0  0.45059  0.53191  0.19450  1.0000
  H   H778      1.0  0.36593  0.85387  0.38857  1.0000
  H   H779      1.0  0.36542  0.74319  0.42890  1.0000
  C   C440      1.0  0.42520  0.56957  0.02810  1.0000
  C   C441      1.0  0.40678  0.55687  0.04183  1.0000
  C   C442      1.0  0.39064  0.54905  0.01586  1.0000
  H   H780      1.0  0.44676  0.93920  0.99639  1.0000
  H   H781      1.0  0.43783  0.57569  0.04786  1.0000
  H   H782      1.0  0.37641  0.53924  0.02583  1.0000
  H   H783      1.0  0.37657  0.95934  0.36502  1.0000
  C   C443      1.0  0.40079  0.87405  0.03644  1.0000
  C   C444      1.0  0.39064  0.89028  0.06032  1.0000
  C   C445      1.0  0.38784  0.91254  0.04789  1.0000
  H   H784      1.0  0.51641  0.98777  0.01456  1.0000
  H   H785      1.0  0.40247  0.85681  0.04625  1.0000
  H   H786      1.0  0.38462  0.88544  0.08809  1.0000
  H   H787      1.0  0.34853  0.73584  0.36153  1.0000
  H   H788      1.0  0.41590  0.93184  0.25040  1.0000
  C   C446      1.0  0.38790  0.96691  0.34335  1.0000
  H   H789      1.0  0.50256  0.53532  0.07758  1.0000
  N   N26       1.0  0.41500  0.93346  0.33122  1.0000
  H   H790      1.0  0.37910  0.69974  0.39806  1.0000
  H   H791      1.0  0.37311  0.78206  0.45202  1.0000
  C   C447      1.0  0.46691  0.52597  0.07794  1.0000
  C   C448      1.0  0.35185  0.77931  0.38774  1.0000
  H   H792      1.0  0.43752  0.95380  0.36607  1.0000
  H   H793      1.0  0.40529  0.93796  0.39000  1.0000
  H   H794      1.0  0.45160  0.96762  0.19742  1.0000
  H   H795      1.0  0.34344  0.87931  0.03431  1.0000
  H   H796      1.0  0.33693  0.92023  0.38760  1.0000
  C   C449      1.0  0.37518  0.74610  0.40245  1.0000
  H   H797      1.0  0.42250  0.95169  0.06814  1.0000
  S   S107      1.0  0.33822  0.64070  0.46078  1.0000
  H   H798      1.0  0.34995  0.70569  0.40958  1.0000
  C   C450      1.0  0.41574  0.90175  0.42887  1.0000
  C   C451      1.0  0.36278  0.70622  0.38668  1.0000
  H   H799      1.0  0.43689  0.51485  0.13392  1.0000
  H   H800      1.0  0.48389  0.55538  0.05512  1.0000
  C   C452      1.0  0.40715  0.92412  0.36891  1.0000
  H   H801      1.0  0.43483  0.78405  0.48302  1.0000
  H   H802      1.0  0.44506  0.92108  0.03763  1.0000
  H   H803      1.0  0.46425  0.53456  0.10550  1.0000
  H   H804      1.0  0.45145  0.93427  0.33642  1.0000
  C   C453      1.0  0.39578  0.91837  0.01149  1.0000
  H   H805      1.0  0.44432  0.92495  0.26528  1.0000
  H   H806      1.0  0.43706  0.88432  0.25211  1.0000
  H   H807      1.0  0.43121  0.90182  0.31647  1.0000
  H   H808      1.0  0.40808  0.79275  0.29220  1.0000
  H   H809      1.0  0.38681  0.49107  0.05250  1.0000
  H   H810      1.0  0.34626  0.53807  0.38822  1.0000
  H   H811      1.0  0.43058  0.98041  0.31460  1.0000
  H   H812      1.0  0.48109  0.62754  0.99258  1.0000
  H   H813      1.0  0.47004  0.94999  0.16918  1.0000
  C   C454      1.0  0.39133  0.68569  0.01862  1.0000
  H   H814      1.0  0.32386  0.80651  0.34112  1.0000
  C   C455      1.0  0.48733  0.53710  0.05928  1.0000
  H   H815      1.0  0.40118  0.72089  0.01042  1.0000
  C   C456      1.0  0.42655  0.91894  0.26438  1.0000
  H   H816      1.0  0.45754  0.65504  0.03027  1.0000
  C   C457      1.0  0.44574  0.97949  0.12183  1.0000
  S   S108      1.0  0.33276  0.92014  0.17147  1.0000
  H   H817      1.0  0.37721  0.72948  0.34719  1.0000
  H   H818      1.0  0.46602  0.94940  0.07576  1.0000
  H   H819      1.0  0.47910  0.51150  0.15569  1.0000
  C   C458      1.0  0.43765  0.95786  0.14240  1.0000
  C   C459      1.0  0.46490  0.50184  0.16813  1.0000
  H   H820      1.0  0.40114  0.95638  0.28874  1.0000
  C   C460      1.0  0.42612  0.89769  0.23970  1.0000
  H   H821      1.0  0.49068  0.52935  0.03122  1.0000
  C   C461      1.0  0.45222  0.95316  0.17742  1.0000
  C   C462      1.0  0.32788  0.59491  0.22135  1.0000
  H   H822      1.0  0.39041  0.62831  0.09806  1.0000
  C   C463      1.0  0.37986  0.77587  0.32014  1.0000
  H   H823      1.0  0.42085  0.88967  0.37258  1.0000
  H   H824      1.0  0.41765  0.62139  0.11801  1.0000
  H   H825      1.0  0.37754  0.71671  0.04174  1.0000
  C   C464      1.0  0.44537  0.49834  0.13914  1.0000
  H   H826      1.0  0.54671  0.98801  0.02247  1.0000
  C   C465      1.0  0.36541  0.73030  0.37153  1.0000
  C   C466      1.0  0.39626  0.94823  0.31582  1.0000
  N   N27       1.0  0.43357  0.98514  0.08537  1.0000
  C   C467      1.0  0.45687  0.51493  0.20288  1.0000
  H   H827      1.0  0.43848  0.94274  0.12395  1.0000
  H   H828      1.0  0.45201  0.52937  0.05962  1.0000
  H   H829      1.0  0.40234  0.90375  0.30277  1.0000
  H   H830      1.0  0.39909  0.79283  0.36303  1.0000
  C   C468      1.0  0.41833  0.91363  0.30494  1.0000
  H   H831      1.0  0.40670  0.61791  0.01402  1.0000
  C   C469      1.0  0.39099  0.77591  0.36015  1.0000
  H   H832      1.0  0.43631  0.62907  0.05745  1.0000
  C   C470      1.0  0.40746  0.62155  0.09147  1.0000
  C   C471      1.0  0.39421  0.70987  0.03308  1.0000
  H   H833      1.0  0.40691  0.75778  0.45621  1.0000
  H   H834      1.0  0.44569  0.93803  0.19223  1.0000
  H   H835      1.0  0.34653  0.59539  0.21770  1.0000
  C   C472      1.0  0.44206  0.96594  0.30932  1.0000
  H   H836      1.0  0.47112  0.51714  0.22315  1.0000
  H   H837      1.0  0.42051  0.65348  0.07335  1.0000
  H   H838      1.0  0.37903  0.68638  0.99482  1.0000
  H   H839      1.0  0.39005  0.91644  0.36588  1.0000
  H   H840      1.0  0.36953  0.76060  0.31501  1.0000
  C   C473      1.0  0.42255  0.90604  0.38772  1.0000
  H   H841      1.0  0.40534  0.76373  0.35984  1.0000
  H   H842      1.0  0.35871  0.97815  0.31063  1.0000
  H   H843      1.0  0.47359  0.49331  0.05406  1.0000
  H   H844      1.0  0.42095  0.77357  0.41937  1.0000
  H   H845      1.0  0.40014  0.97505  0.10356  1.0000
  H   H846      1.0  0.38772  0.63879  0.02964  1.0000
  H   H847      1.0  0.44054  0.91133  0.38743  1.0000
  H   H848      1.0  0.42660  0.97058  0.03022  1.0000
  H   H849      1.0  0.38926  0.77771  0.26079  1.0000
  C   C474      1.0  0.32575  0.81205  0.37106  1.0000
  C   C475      1.0  0.41430  0.67584  0.00546  1.0000
  H   H850      1.0  0.35024  0.81236  0.41583  1.0000
  C   C476      1.0  0.33376  0.87631  0.00770  1.0000
  C   C477      1.0  0.39770  0.77720  0.28900  1.0000
  C   C478      1.0  0.47069  0.50016  0.08298  1.0000
  C   C479      1.0  0.43384  0.96549  0.05808  1.0000
  H   H851      1.0  0.39246  0.73951  0.40808  1.0000
  C   C480      1.0  0.45824  0.65618  0.99899  1.0000
  N   N28       1.0  0.41423  0.65142  0.99299  1.0000
  C   C481      1.0  0.40593  0.63576  0.02372  1.0000
  H   H852      1.0  0.40572  0.60385  0.08140  1.0000
  C   C482      1.0  0.40860  0.87980  0.99998  1.0000
  H   H853      1.0  0.36212  0.81344  0.36895  1.0000
  H   H854      1.0  0.40892  0.76216  0.28998  1.0000
  H   H855      1.0  0.38128  0.93774  0.30809  1.0000
  H   H856      1.0  0.34425  0.77224  0.36156  1.0000
  C   C483      1.0  0.41915  0.63618  0.06163  1.0000
  H   H857      1.0  0.34078  0.77293  0.41088  1.0000
  H   H858      1.0  0.46430  0.97829  0.11718  1.0000
  H   H859      1.0  0.35707  0.69483  0.36352  1.0000
  C   C484      1.0  0.34892  0.80536  0.38664  1.0000
  C   C485      1.0  0.45737  0.95512  0.04952  1.0000
  C   C486      1.0  0.38525  0.78307  0.42807  1.0000
  Fe  Fe53      1.0  0.33173  0.52280  0.16688  1.0000
  C   C487      1.0  0.46627  0.97450  0.31444  1.0000
  H   H860      1.0  0.42634  0.67865  0.02915  1.0000
  C   C488      1.0  0.43691  0.94620  0.33718  1.0000
  H   H861      1.0  0.41774  0.91731  0.44614  1.0000
  H   H862      1.0  0.39787  0.89602  0.43033  1.0000
  H   H863      1.0  0.34139  0.92224  0.31755  1.0000
  H   H864      1.0  0.48699  0.49756  0.09827  1.0000
  H   H865      1.0  0.46918  0.98016  0.34409  1.0000
  H   H866      1.0  0.47858  0.96102  0.30726  1.0000
  H   H867      1.0  0.40572  0.71029  0.05806  1.0000
  H   H868      1.0  0.43985  0.96110  0.27926  1.0000
  H   H869      1.0  0.38406  0.67552  0.04201  1.0000
  H   H870      1.0  0.46836  0.96758  0.03500  1.0000
  H   H871      1.0  0.33680  0.69420  0.48309  1.0000
  C   C489      1.0  0.45511  0.93455  0.02357  1.0000
  H   H872      1.0  0.49483  0.65424  0.00116  1.0000
  H   H873      1.0  0.50559  0.56802  0.99496  1.0000
  Fe  Fe54      1.0  0.37337  0.49168  0.17922  1.0000
  H   H874      1.0  0.45875  0.67434  0.99097  1.0000
  Fe  Fe55      1.0  0.35018  0.60628  0.47915  1.0000
  C   C490      1.0  0.41818  0.79048  0.47312  1.0000
  H   H875      1.0  0.33043  0.59125  0.28115  1.0000
  H   H876      1.0  0.39371  0.93551  0.00146  1.0000
  H   H877      1.0  0.43729  0.51092  0.99863  1.0000
  C   C491      1.0  0.42736  0.57455  0.98910  1.0000
  Fe  Fe56      1.0  0.32430  0.95555  0.19036  1.0000
  H   H878      1.0  0.44314  0.50564  0.21756  1.0000
  H   H879      1.0  0.59722  0.96964  0.99877  1.0000
  H   H880      1.0  0.32396  0.83072  0.37206  1.0000
  H   H881      1.0  0.51110  0.49087  0.27899  1.0000
  C   C492      1.0  0.33228  0.73026  0.48793  1.0000
  H   H882      1.0  0.32446  0.86010  0.01054  1.0000
  C   C493      1.0  0.32218  0.58200  0.25762  1.0000
  C   C494      1.0  0.37447  0.98529  0.32286  1.0000
  H   H883      1.0  0.36238  0.98713  0.07649  1.0000
  S   S109      1.0  0.32720  0.77602  0.48793  1.0000
  Fe  Fe57      1.0  0.45935  0.81840  0.86144  1.0000
  S   S110      1.0  0.42386  0.83184  0.86668  1.0000
  S   S111      1.0  0.46793  0.78154  0.84437  1.0000
  Fe  Fe58      1.0  0.47968  0.86759  0.86608  1.0000
  S   S112      1.0  0.44515  0.88334  0.87110  1.0000
  S   S113      1.0  0.51368  0.88691  0.87208  1.0000
  Fe  Fe59      1.0  0.43739  0.85532  0.91223  1.0000
  S   S114      1.0  0.42009  0.85806  0.97062  1.0000
  Fe  Fe60      1.0  0.43447  0.85866  0.82502  1.0000
  S   S115      1.0  0.41072  0.87055  0.77726  1.0000
  S   S116      1.0  0.47246  0.84025  0.90938  1.0000
  S   S117      1.0  0.46941  0.84458  0.81765  1.0000
  Fe  Fe61      1.0  0.45854  0.64156  0.86559  1.0000
  S   S118      1.0  0.42706  0.62417  0.84369  1.0000
  S   S119      1.0  0.45439  0.67704  0.89276  1.0000
  Fe  Fe62      1.0  0.48745  0.59736  0.85454  1.0000
  S   S120      1.0  0.45757  0.57841  0.83141  1.0000
  S   S121      1.0  0.52137  0.58004  0.87031  1.0000
  Fe  Fe63      1.0  0.44943  0.61001  0.79810  1.0000
  S   S122      1.0  0.44302  0.60998  0.73375  1.0000
  Fe  Fe64      1.0  0.43782  0.59412  0.87918  1.0000
  S   S123      1.0  0.41361  0.57161  0.91337  1.0000
  S   S124      1.0  0.48083  0.62849  0.81857  1.0000
  S   S125      1.0  0.46779  0.61201  0.90368  1.0000
  H   H884      1.0  0.56536  0.97307  0.92371  1.0000
  Fe  Fe65      1.0  0.35155  0.61957  0.56452  1.0000
  H   H885      1.0  0.34004  0.73032  0.57717  1.0000
  S   S126      1.0  0.35432  0.61215  0.62831  1.0000
  H   H886      1.0  0.40165  0.68333  0.74244  1.0000
  H   H887      1.0  0.56425  0.93907  0.70279  1.0000
  S   S127      1.0  0.33881  0.65435  0.55122  1.0000
  C   C495      1.0  0.35006  0.87538  0.97424  1.0000
  Fe  Fe66      1.0  0.36648  0.83917  0.56511  1.0000
  H   H888      1.0  0.48460  0.50184  0.83620  1.0000
  S   S128      1.0  0.39651  0.83511  0.60636  1.0000
  H   H889      1.0  0.34395  0.82054  0.90067  1.0000
  C   C496      1.0  0.47705  0.52689  0.88025  1.0000
  H   H890      1.0  0.41326  0.50841  0.96759  1.0000
  C   C497      1.0  0.37520  0.80799  0.92340  1.0000
  S   S129      1.0  0.34633  0.87028  0.55008  1.0000
  H   H891      1.0  0.55838  0.96988  0.97213  1.0000
  C   C498      1.0  0.52117  0.49257  0.93790  1.0000
  C   C499      1.0  0.50602  0.50166  0.90525  1.0000
  H   H892      1.0  0.51130  0.54461  0.92223  1.0000
  H   H893      1.0  0.48290  0.64857  0.95521  1.0000
  H   H894      1.0  0.44867  0.50547  0.80025  1.0000
  H   H895      1.0  0.46361  0.53187  0.80345  1.0000
  H   H896      1.0  0.57996  0.52165  0.88841  1.0000
  S   S130      1.0  0.37103  0.82936  0.50311  1.0000
  H   H897      1.0  0.43701  0.50776  0.91176  1.0000
  H   H898      1.0  0.36233  0.86164  0.97992  1.0000
  C   C500      1.0  0.53619  0.55494  0.85661  1.0000
  C   C501      1.0  0.55405  0.54704  0.87972  1.0000
  C   C502      1.0  0.56640  0.52739  0.87021  1.0000
  C   C503      1.0  0.56144  0.51555  0.83683  1.0000
  C   C504      1.0  0.54339  0.52326  0.81399  1.0000
  C   C505      1.0  0.53079  0.54269  0.82383  1.0000
  H   H899      1.0  0.55836  0.55623  0.90526  1.0000
  H   H900      1.0  0.33096  0.89856  0.84759  1.0000
  H   H901      1.0  0.53929  0.51432  0.78811  1.0000
  H   H902      1.0  0.51717  0.54845  0.80565  1.0000
  C   C506      1.0  0.41798  0.61021  0.70529  1.0000
  C   C507      1.0  0.42010  0.61140  0.66556  1.0000
  C   C508      1.0  0.40088  0.61179  0.64167  1.0000
  C   C509      1.0  0.37917  0.61129  0.65720  1.0000
  C   C510      1.0  0.37700  0.60995  0.69692  1.0000
  C   C511      1.0  0.39625  0.60936  0.72084  1.0000
  H   H903      1.0  0.43679  0.61189  0.65313  1.0000
  H   H904      1.0  0.40287  0.61237  0.61122  1.0000
  H   H905      1.0  0.36032  0.60934  0.70931  1.0000
  H   H906      1.0  0.39430  0.60836  0.75128  1.0000
  H   H907      1.0  0.60552  0.96730  0.94951  1.0000
  C   C512      1.0  0.62953  0.53688  0.86045  1.0000
  H   H908      1.0  0.41214  0.90696  0.95993  1.0000
  C   C513      1.0  0.52755  0.91297  0.86053  1.0000
  C   C514      1.0  0.51685  0.93031  0.84029  1.0000
  C   C515      1.0  0.52898  0.94992  0.82971  1.0000
  C   C516      1.0  0.55188  0.95287  0.83992  1.0000
  C   C517      1.0  0.56239  0.93588  0.86127  1.0000
  C   C518      1.0  0.55036  0.91606  0.87119  1.0000
  H   H909      1.0  0.49925  0.92855  0.83266  1.0000
  H   H910      1.0  0.52055  0.96296  0.81346  1.0000
  H   H911      1.0  0.57996  0.93774  0.86934  1.0000
  H   H912      1.0  0.55890  0.90286  0.88692  1.0000
  C   C519      1.0  0.40663  0.85965  0.73038  1.0000
  C   C520      1.0  0.38859  0.86797  0.70817  1.0000
  C   C521      1.0  0.38492  0.86032  0.67064  1.0000
  C   C522      1.0  0.39947  0.84440  0.65446  1.0000
  C   C523      1.0  0.41750  0.83605  0.67669  1.0000
  C   C524      1.0  0.42102  0.84351  0.71440  1.0000
  H   H913      1.0  0.37734  0.88047  0.72005  1.0000
  H   H914      1.0  0.37103  0.86700  0.65405  1.0000
  H   H915      1.0  0.42879  0.82364  0.66466  1.0000
  H   H916      1.0  0.43492  0.83684  0.73098  1.0000
  C   C525      1.0  0.46326  0.75262  0.85817  1.0000
  C   C526      1.0  0.45324  0.74651  0.89265  1.0000
  C   C527      1.0  0.45063  0.72342  0.90251  1.0000
  C   C528      1.0  0.45770  0.70597  0.87802  1.0000
  C   C529      1.0  0.46744  0.71207  0.84334  1.0000
  C   C530      1.0  0.47029  0.73515  0.83369  1.0000
  H   H917      1.0  0.44781  0.75958  0.91197  1.0000
  H   H918      1.0  0.44314  0.71908  0.92946  1.0000
  H   H919      1.0  0.47307  0.69904  0.82413  1.0000
  H   H920      1.0  0.47810  0.73951  0.80699  1.0000
  C   C531      1.0  0.39155  0.91332  0.85464  1.0000
  H   H921      1.0  0.37910  0.92733  0.85329  1.0000
  H   H922      1.0  0.40327  0.91612  0.87890  1.0000
  H   H923      1.0  0.40150  0.91343  0.82803  1.0000
  C   C532      1.0  0.51944  0.95823  0.94767  1.0000
  H   H924      1.0  0.47567  0.50450  0.97039  1.0000
  H   H925      1.0  0.34816  0.70295  0.65028  1.0000
  H   H926      1.0  0.38168  0.85351  0.92658  1.0000
  H   H927      1.0  0.60587  0.57147  0.78949  1.0000
  S   S131      1.0  0.38412  0.68599  0.49918  1.0000
  C   C533      1.0  0.43759  0.64449  0.97977  1.0000
  C   C534      1.0  0.48057  0.64587  0.98614  1.0000
  H   H928      1.0  0.59692  0.54952  0.73147  1.0000
  N   N29       1.0  0.64211  0.54478  0.82546  1.0000
  S   S132      1.0  0.57766  0.49176  0.82125  1.0000
  H   H929      1.0  0.43963  0.64814  0.94905  1.0000
  H   H930      1.0  0.47156  0.56279  0.92915  1.0000
  N   N30       1.0  0.50362  0.89019  0.73635  1.0000
  C   C535      1.0  0.52012  0.89964  0.70785  1.0000
  C   C536      1.0  0.48864  0.87234  0.71828  1.0000
  C   C537      1.0  0.48858  0.90938  0.74894  1.0000
  C   C538      1.0  0.51557  0.88096  0.77088  1.0000
  C   C539      1.0  0.53275  0.86174  0.76411  1.0000
  C   C540      1.0  0.53639  0.91839  0.72250  1.0000
  C   C541      1.0  0.46893  0.90295  0.77604  1.0000
  C   C542      1.0  0.49896  0.85771  0.68621  1.0000
  C   C543      1.0  0.48298  0.83851  0.67502  1.0000
  C   C544      1.0  0.54526  0.85571  0.80078  1.0000
  C   C545      1.0  0.55300  0.92554  0.69165  1.0000
  C   C546      1.0  0.45324  0.92304  0.78258  1.0000
  H   H931      1.0  0.51067  0.90663  0.68306  1.0000
  H   H932      1.0  0.53104  0.88617  0.69612  1.0000
  H   H933      1.0  0.48191  0.86070  0.74036  1.0000
  H   H934      1.0  0.47336  0.88022  0.70509  1.0000
  H   H935      1.0  0.48105  0.91794  0.72368  1.0000
  H   H936      1.0  0.49851  0.92247  0.76422  1.0000
  H   H937      1.0  0.52420  0.89472  0.78669  1.0000
  H   H938      1.0  0.50320  0.87410  0.79136  1.0000
  H   H939      1.0  0.54564  0.86655  0.74288  1.0000
  H   H940      1.0  0.52376  0.84627  0.75472  1.0000
  H   H941      1.0  0.52700  0.93376  0.73102  1.0000
  H   H942      1.0  0.54657  0.91242  0.74704  1.0000
  H   H943      1.0  0.47566  0.89774  0.80411  1.0000
  H   H944      1.0  0.45845  0.88896  0.76465  1.0000
  H   H945      1.0  0.50171  0.86824  0.66052  1.0000
  H   H946      1.0  0.51536  0.85019  0.69449  1.0000
  H   H947      1.0  0.49064  0.82833  0.65199  1.0000
  H   H948      1.0  0.47976  0.82722  0.69963  1.0000
  H   H949      1.0  0.46662  0.84540  0.66459  1.0000
  H   H950      1.0  0.55448  0.87063  0.81214  1.0000
  H   H951      1.0  0.53316  0.84961  0.82256  1.0000
  H   H952      1.0  0.55766  0.84206  0.79524  1.0000
  H   H953      1.0  0.38058  0.61039  0.89143  1.0000
  H   H954      1.0  0.56371  0.91105  0.68297  1.0000
  C   C547      1.0  0.40623  0.90220  0.98779  1.0000
  H   H955      1.0  0.44506  0.92825  0.75554  1.0000
  H   H956      1.0  0.43975  0.91809  0.80273  1.0000
  H   H957      1.0  0.46272  0.93752  0.79480  1.0000
  H   H958      1.0  0.32533  0.84912  0.87445  1.0000
  C   C548      1.0  0.44518  0.51318  0.93865  1.0000
  H   H959      1.0  0.63137  0.57933  0.83383  1.0000
  H   H960      1.0  0.42970  0.76407  0.62765  1.0000
  C   C549      1.0  0.62944  0.52504  0.92986  1.0000
  H   H961      1.0  0.36749  0.79224  0.93455  1.0000
  H   H962      1.0  0.39944  0.65616  0.71937  1.0000
  H   H963      1.0  0.59433  0.54949  0.81866  1.0000
  H   H964      1.0  0.37281  0.76742  0.51632  1.0000
  H   H965      1.0  0.32566  0.91994  0.51225  1.0000
  C   C550      1.0  0.62690  0.54074  0.79156  1.0000
  H   H966      1.0  0.46984  0.54852  0.97449  1.0000
  H   H967      1.0  0.65276  0.57615  0.79952  1.0000
  H   H968      1.0  0.42521  0.63762  0.55961  1.0000
  C   C551      1.0  0.36549  0.88974  0.89563  1.0000
  H   H969      1.0  0.41112  0.77738  0.59370  1.0000
  C   C552      1.0  0.35725  0.82649  0.92053  1.0000
  H   H970      1.0  0.44152  0.58436  0.97906  1.0000
  C   C553      1.0  0.39816  0.64962  0.95966  1.0000
  H   H971      1.0  0.35967  0.73013  0.63842  1.0000
  C   C554      1.0  0.33717  0.87183  0.93625  1.0000
  N   N31       1.0  0.48712  0.51751  0.91643  1.0000
  H   H972      1.0  0.41391  0.62150  0.92822  1.0000
  H   H973      1.0  0.62370  0.52228  0.78829  1.0000
  H   H974      1.0  0.35454  0.90500  0.89693  1.0000
  H   H975      1.0  0.37793  0.89191  0.91914  1.0000
  S   S133      1.0  0.32500  0.60338  0.52706  1.0000
  H   H976      1.0  0.42631  0.66570  0.73733  1.0000
  C   C555      1.0  0.41129  0.56662  0.96311  1.0000
  H   H977      1.0  0.52155  0.95803  0.97883  1.0000
  H   H978      1.0  0.46037  0.49476  0.86443  1.0000
  C   C556      1.0  0.37949  0.89062  0.85857  1.0000
  H   H979      1.0  0.32953  0.70214  0.58500  1.0000
  C   C557      1.0  0.36499  0.75152  0.50879  1.0000
  H   H980      1.0  0.48943  0.53817  0.86589  1.0000
  N   N32       1.0  0.35175  0.86857  0.90168  1.0000
  H   H981      1.0  0.38041  0.54758  0.95698  1.0000
  C   C558      1.0  0.33666  0.86362  0.86807  1.0000
  H   H982      1.0  0.58561  0.52687  0.76028  1.0000
  H   H983      1.0  0.36877  0.88838  0.83298  1.0000
  Fe  Fe67      1.0  0.36334  0.65398  0.50340  1.0000
  H   H984      1.0  0.53239  0.50618  0.94879  1.0000
  H   H985      1.0  0.34686  0.85798  0.84331  1.0000
  H   H986      1.0  0.32521  0.85744  0.93962  1.0000
  C   C559      1.0  0.37777  0.73151  0.50915  1.0000
  C   C560      1.0  0.34243  0.75103  0.49669  1.0000
  H   H987      1.0  0.48269  0.95625  0.95214  1.0000
  C   C561      1.0  0.39295  0.55384  0.97678  1.0000
  H   H988      1.0  0.38522  0.64028  0.88557  1.0000
  Fe  Fe68      1.0  0.33884  0.80963  0.51130  1.0000
  H   H989      1.0  0.61804  0.52250  0.85331  1.0000
  H   H990      1.0  0.54380  0.93222  0.66650  1.0000
  C   C562      1.0  0.58878  0.54534  0.75892  1.0000
  H   H991      1.0  0.39257  0.87720  0.85865  1.0000
  S   S134      1.0  0.56643  0.97773  0.82414  1.0000
  N   N33       1.0  0.39641  0.70079  0.62675  1.0000
  C   C563      1.0  0.40440  0.72433  0.63664  1.0000
  C   C564      1.0  0.39352  0.68751  0.66292  1.0000
  C   C565      1.0  0.41372  0.69007  0.60111  1.0000
  C   C566      1.0  0.37406  0.70127  0.60612  1.0000
  H   H992      1.0  0.53294  0.94751  0.93521  1.0000
  C   C567      1.0  0.40360  0.74196  0.60400  1.0000
  C   C568      1.0  0.40962  0.66488  0.59105  1.0000
  C   C569      1.0  0.41559  0.68227  0.68527  1.0000
  C   C570      1.0  0.41034  0.67122  0.72341  1.0000
  S   S135      1.0  0.37773  0.61975  0.51829  1.0000
  C   C571      1.0  0.41192  0.76508  0.61750  1.0000
  C   C572      1.0  0.42862  0.65564  0.56632  1.0000
  H   H993      1.0  0.42224  0.72390  0.64677  1.0000
  H   H994      1.0  0.39474  0.73127  0.66103  1.0000
  H   H995      1.0  0.38212  0.69673  0.68260  1.0000
  H   H996      1.0  0.38475  0.67115  0.65732  1.0000
  H   H997      1.0  0.43098  0.69156  0.61361  1.0000
  H   H998      1.0  0.41449  0.69925  0.57359  1.0000
  H   H999      1.0  0.37616  0.70858  0.57738  1.0000
  H   H1000     1.0  0.36784  0.68383  0.60094  1.0000
  H   H1001     1.0  0.62956  0.50123  0.69407  1.0000
  H   H1002     1.0  0.51745  0.51002  0.88445  1.0000
  H   H1003     1.0  0.41451  0.73662  0.58015  1.0000
  H   H1004     1.0  0.38615  0.74435  0.59310  1.0000
  H   H1005     1.0  0.39360  0.66263  0.57507  1.0000
  H   H1006     1.0  0.40888  0.65437  0.61689  1.0000
  H   H1007     1.0  0.42652  0.67048  0.66920  1.0000
  H   H1008     1.0  0.42540  0.69784  0.69119  1.0000
  H   H1009     1.0  0.37642  0.84524  0.87943  1.0000
  H   H1010     1.0  0.50576  0.53006  0.96511  1.0000
  C   C573      1.0  0.35447  0.71359  0.62660  1.0000
  H   H1011     1.0  0.44510  0.65672  0.58143  1.0000
  H   H1012     1.0  0.34972  0.82838  0.94910  1.0000
  H   H1013     1.0  0.61530  0.51314  0.92424  1.0000
  C   C574      1.0  0.49677  0.94710  0.93822  1.0000
  H   H1014     1.0  0.43899  0.52678  0.83280  1.0000
  H   H1015     1.0  0.40109  0.77155  0.64076  1.0000
  H   H1016     1.0  0.42956  0.66516  0.53921  1.0000
  C   C575      1.0  0.47011  0.50475  0.94017  1.0000
  H   H1017     1.0  0.46243  0.53805  0.88600  1.0000
  C   C576      1.0  0.60365  0.55292  0.79214  1.0000
  H   H1018     1.0  0.43979  0.62587  0.98221  1.0000
  H   H1019     1.0  0.44379  0.53175  0.93992  1.0000
  C   C577      1.0  0.39714  0.62636  0.93946  1.0000
  C   C578      1.0  0.49757  0.53656  0.93892  1.0000
  H   H1020     1.0  0.38244  0.80433  0.89504  1.0000
  C   C579      1.0  0.46952  0.50890  0.85070  1.0000
  H   H1021     1.0  0.57221  0.55414  0.76027  1.0000
  C   C580      1.0  0.36770  0.71078  0.49967  1.0000
  H   H1022     1.0  0.38906  0.81321  0.94295  1.0000
  H   H1023     1.0  0.40260  0.66250  0.93773  1.0000
  C   C581      1.0  0.38044  0.62695  0.90624  1.0000
  C   C582      1.0  0.43130  0.50364  0.97138  1.0000
  H   H1024     1.0  0.36302  0.63018  0.91651  1.0000
  S   S136      1.0  0.33562  0.81739  0.57319  1.0000
  H   H1025     1.0  0.61818  0.55048  0.87107  1.0000
  H   H1026     1.0  0.63509  0.54642  0.76493  1.0000
  H   H1027     1.0  0.35934  0.89165  0.97378  1.0000
  C   C583      1.0  0.48149  0.55537  0.95276  1.0000
  H   H1028     1.0  0.62246  0.54150  0.93933  1.0000
  H   H1029     1.0  0.50566  0.58319  0.95046  1.0000
  C   C584      1.0  0.49479  0.57451  0.97156  1.0000
  H   H1030     1.0  0.49681  0.92933  0.94845  1.0000
  C   C585      1.0  0.36781  0.84901  0.90668  1.0000
  H   H1031     1.0  0.39550  0.73204  0.51674  1.0000
  C   C586      1.0  0.33485  0.71799  0.59924  1.0000
  C   C587      1.0  0.45425  0.51896  0.82004  1.0000
  H   H1032     1.0  0.39129  0.61290  0.95895  1.0000
  C   C588      1.0  0.64389  0.52814  0.89441  1.0000
  H   H1033     1.0  0.49387  0.94687  0.90708  1.0000
  H   H1034     1.0  0.61650  0.49544  0.73915  1.0000
  H   H1035     1.0  0.38053  0.65324  0.96852  1.0000
  C   C589      1.0  0.60196  0.97928  0.97297  1.0000
  C   C590      1.0  0.52089  0.98247  0.93092  1.0000
  H   H1036     1.0  0.42053  0.68670  0.98177  1.0000
  C   C591      1.0  0.56136  0.98280  0.94997  1.0000
  C   C592      1.0  0.34475  0.71013  0.49018  1.0000
  H   H1037     1.0  0.40670  0.79127  0.49794  1.0000
  H   H1038     1.0  0.64000  0.51794  0.95313  1.0000
  H   H1039     1.0  0.59013  0.49010  0.68463  1.0000
  C   C593      1.0  0.64709  0.56974  0.82760  1.0000
  H   H1040     1.0  0.32623  0.88695  0.93270  1.0000
  H   H1041     1.0  0.65135  0.51146  0.88726  1.0000
  Fe  Fe69      1.0  0.34839  0.85899  0.48881  1.0000
  H   H1042     1.0  0.52131  0.97978  0.89958  1.0000
  H   H1043     1.0  0.65479  0.61291  0.85596  1.0000
  H   H1044     1.0  0.48287  0.58707  0.98345  1.0000
  C   C594      1.0  0.90176  0.41900  0.29064  1.0000
  S   S137      1.0  0.94476  0.39153  0.19104  1.0000
  Fe  Fe70      1.0  0.95582  0.32871  0.16310  1.0000
  S   S138      1.0  0.92085  0.34360  0.16740  1.0000
  S   S139      1.0  0.96480  0.29318  0.14072  1.0000
  Fe  Fe71      1.0  0.93412  0.37433  0.13671  1.0000
  S   S140      1.0  0.91679  0.39951  0.09594  1.0000
  Fe  Fe72      1.0  0.93389  0.35967  0.22151  1.0000
  S   S141      1.0  0.90693  0.35739  0.26849  1.0000
  S   S142      1.0  0.96804  0.35830  0.12822  1.0000
  S   S143      1.0  0.96875  0.34393  0.21767  1.0000
  Fe  Fe73      1.0  0.95707  0.15471  0.19076  1.0000
  S   S144      1.0  0.92313  0.13804  0.18274  1.0000
  S   S145      1.0  0.95523  0.19243  0.20709  1.0000
  H   H1045     1.0  0.70139  0.12447  0.31540  1.0000
  S   S146      1.0  0.94916  0.08914  0.17746  1.0000
  Fe  Fe74      1.0  0.93944  0.11695  0.13704  1.0000
  S   S147      1.0  0.92689  0.11498  0.07536  1.0000
  Fe  Fe75      1.0  0.93574  0.11198  0.22399  1.0000
  S   S148      1.0  0.91388  0.09750  0.27173  1.0000
  S   S149      1.0  0.97275  0.13527  0.14269  1.0000
  S   S150      1.0  0.96920  0.12903  0.23401  1.0000
  H   H1046     1.0  0.97334  0.05333  0.23751  1.0000
  S   S151      1.0  0.88555  0.14389  0.42883  1.0000
  S   S152      1.0  0.83003  0.15074  0.48692  1.0000
  S   S153      1.0  0.82901  0.33869  0.45359  1.0000
  H   H1047     1.0  0.67413  0.23643  0.47330  1.0000
  S   S154      1.0  0.89474  0.35088  0.44885  1.0000
  H   H1048     1.0  0.93275  0.44043  0.17879  1.0000
  H   H1049     1.0  0.89104  0.39601  0.35822  1.0000
  H   H1050     1.0  0.69861  0.13442  0.24651  1.0000
  C   C595      1.0  0.86583  0.24516  0.43167  1.0000
  C   C596      1.0  0.70402  0.08464  0.38177  1.0000
  C   C597      1.0  0.89673  0.05976  0.99701  1.0000
  C   C598      1.0  0.85418  0.19966  0.39434  1.0000
  H   H1051     1.0  0.81579  0.37925  0.05458  1.0000
  H   H1052     1.0  0.82694  0.40745  0.05603  1.0000
  C   C599      1.0  0.93022  0.19314  0.09713  1.0000
  H   H1053     1.0  0.86896  0.19302  0.37854  1.0000
  C   C600      1.0  0.90901  0.07212  0.06045  1.0000
  C   C601      1.0  0.91503  0.09333  0.04621  1.0000
  H   H1054     1.0  0.93084  0.03557  0.27780  1.0000
  H   H1055     1.0  0.91095  0.06861  0.09037  1.0000
  H   H1056     1.0  0.87899  0.15940  0.14855  1.0000
  C   C602      1.0  0.89267  0.13067  0.38502  1.0000
  C   C603      1.0  0.88653  0.10841  0.37644  1.0000
  C   C604      1.0  0.89302  0.09863  0.34159  1.0000
  C   C605      1.0  0.90566  0.11093  0.31480  1.0000
  C   C606      1.0  0.91170  0.13322  0.32330  1.0000
  C   C607      1.0  0.90525  0.14297  0.35817  1.0000
  H   H1057     1.0  0.87690  0.09869  0.39672  1.0000
  H   H1058     1.0  0.88823  0.08139  0.33538  1.0000
  H   H1059     1.0  0.92142  0.14292  0.30310  1.0000
  H   H1060     1.0  0.91015  0.16016  0.36447  1.0000
  C   C608      1.0  0.90497  0.35347  0.31862  1.0000
  C   C609      1.0  0.88403  0.34692  0.33404  1.0000
  C   C610      1.0  0.88085  0.34535  0.37365  1.0000
  C   C611      1.0  0.89852  0.35066  0.39859  1.0000
  C   C612      1.0  0.91963  0.35674  0.38324  1.0000
  C   C613      1.0  0.92289  0.35809  0.34354  1.0000
  H   H1061     1.0  0.87006  0.34326  0.31512  1.0000
  H   H1062     1.0  0.86459  0.34045  0.38487  1.0000
  H   H1063     1.0  0.93349  0.36078  0.40220  1.0000
  H   H1064     1.0  0.93908  0.36324  0.33231  1.0000
  C   C614      1.0  0.96202  0.26534  0.15992  1.0000
  H   H1065     1.0  0.86159  0.21165  0.09325  1.0000
  H   H1066     1.0  0.87167  0.39938  0.29755  1.0000
  C   C615      1.0  0.95862  0.22029  0.18823  1.0000
  C   C616      1.0  0.96860  0.22449  0.15299  1.0000
  C   C617      1.0  0.97023  0.24682  0.13897  1.0000
  C   C618      1.0  0.69182  0.10782  0.38301  1.0000
  H   H1067     1.0  0.87595  0.23157  0.18597  1.0000
  H   H1068     1.0  0.95650  0.02298  0.99125  1.0000
  C   C619      1.0  0.91450  0.38198  0.02226  1.0000
  C   C620      1.0  0.91166  0.40067  0.04602  1.0000
  C   C621      1.0  0.90371  0.42100  0.03000  1.0000
  H   H1069     1.0  0.92055  0.36621  0.03402  1.0000
  H   H1070     1.0  0.90147  0.43561  0.04799  1.0000
  N   N34       1.0  0.86044  0.41285  0.37664  1.0000
  H   H1071     1.0  0.69426  0.09583  0.30823  1.0000
  C   C622      1.0  0.84437  0.39576  0.35953  1.0000
  H   H1072     1.0  0.96455  0.99745  0.04864  1.0000
  H   H1073     1.0  0.94184  0.02612  0.23292  1.0000
  C   C623      1.0  0.67179  0.11848  0.27938  1.0000
  C   C624      1.0  0.82249  0.39057  0.38167  1.0000
  C   C625      1.0  0.80948  0.37098  0.36361  1.0000
  C   C626      1.0  0.79314  0.30043  0.38977  1.0000
  H   H1074     1.0  0.98740  0.27579  0.24716  1.0000
  H   H1075     1.0  0.77765  0.13910  0.46226  1.0000
  S   S155      1.0  0.79065  0.39144  0.46449  1.0000
  H   H1076     1.0  0.85329  0.37947  0.35549  1.0000
  H   H1077     1.0  0.70550  0.36540  0.34313  1.0000
  H   H1078     1.0  0.83990  0.43821  0.34866  1.0000
  H   H1079     1.0  0.97517  0.21055  0.13667  1.0000
  H   H1080     1.0  0.84519  0.20650  0.45281  1.0000
  H   H1081     1.0  0.96575  0.11651  0.01876  1.0000
  C   C627      1.0  0.89860  0.42265  0.99091  1.0000
  H   H1082     1.0  0.80210  0.23438  0.46966  1.0000
  H   H1083     1.0  0.81109  0.40540  0.38129  1.0000
  H   H1084     1.0  0.79373  0.36793  0.37989  1.0000
  H   H1085     1.0  0.80484  0.37501  0.33381  1.0000
  H   H1086     1.0  0.81979  0.35530  0.36430  1.0000
  H   H1087     1.0  0.72812  0.06508  0.41491  1.0000
  H   H1088     1.0  0.89939  0.41933  0.25937  1.0000
  H   H1089     1.0  0.74956  0.29730  0.36678  1.0000
  C   C628      1.0  0.85053  0.43637  0.37465  1.0000
  C   C629      1.0  0.87900  0.41503  0.30996  1.0000
  C   C630      1.0  0.83088  0.38977  0.04827  1.0000
  H   H1090     1.0  0.71324  0.32333  0.46262  1.0000
  H   H1091     1.0  0.71887  0.28361  0.47809  1.0000
  H   H1092     1.0  0.95793  0.04047  0.16527  1.0000
  H   H1093     1.0  0.96829  0.07342  0.99813  1.0000
  C   C631      1.0  0.94735  0.45113  0.18735  1.0000
  H   H1094     1.0  0.92026  0.23071  0.14095  1.0000
  H   H1095     1.0  0.70882  0.08154  0.44296  1.0000
  H   H1096     1.0  0.89381  0.42572  0.36291  1.0000
  H   H1097     1.0  0.96606  0.41250  0.04165  1.0000
  H   H1098     1.0  0.80735  0.42610  0.01024  1.0000
  H   H1099     1.0  0.88554  0.43713  0.42896  1.0000
  H   H1100     1.0  0.90341  0.22410  0.20510  1.0000
  H   H1101     1.0  0.95533  0.42841  0.12198  1.0000
  N   N35       1.0  0.72906  0.31124  0.41136  1.0000
  H   H1102     1.0  0.71932  0.26423  0.42611  1.0000
  H   H1103     1.0  0.90675  0.19152  0.16079  1.0000
  H   H1104     1.0  0.74264  0.32864  0.46024  1.0000
  Fe  Fe76      1.0  0.97860  0.37491  0.18289  1.0000
  H   H1105     1.0  0.81151  0.46371  0.37675  1.0000
  H   H1106     1.0  0.95167  0.05752  0.03044  1.0000
  C   C632      1.0  0.98157  0.12197  0.03321  1.0000
  S   S156      1.0  0.69564  0.14992  0.45507  1.0000
  C   C633      1.0  0.86088  0.22293  0.03560  1.0000
  H   H1107     1.0  0.72099  0.19837  0.42920  1.0000
  H   H1108     1.0  0.89850  0.25210  0.18683  1.0000
  H   H1109     1.0  0.77287  0.33020  0.39242  1.0000
  H   H1110     1.0  0.69508  0.10445  0.23775  1.0000
  H   H1111     1.0  0.79133  0.29828  0.35862  1.0000
  C   C634      1.0  0.67815  0.15596  0.35459  1.0000
  H   H1112     1.0  0.96015  0.08434  0.27234  1.0000
  H   H1113     1.0  0.95885  0.44128  0.20607  1.0000
  C   C635      1.0  0.88667  0.41875  0.43476  1.0000
  H   H1114     1.0  0.70080  0.35036  0.42617  1.0000
  H   H1115     1.0  0.69422  0.30073  0.41951  1.0000
  C   C636      1.0  0.95151  0.03212  0.13920  1.0000
  H   H1116     1.0  0.95965  0.47230  0.07685  1.0000
  H   H1117     1.0  0.97345  0.47112  0.16245  1.0000
  C   C637      1.0  0.75063  0.30027  0.39796  1.0000
  H   H1118     1.0  0.97427  0.17663  0.08958  1.0000
  C   C638      1.0  0.72568  0.21275  0.44790  1.0000
  C   C639      1.0  0.68675  0.11264  0.31437  1.0000
  C   C640      1.0  0.96796  0.04285  0.35970  1.0000
  H   H1119     1.0  0.86525  0.39274  0.07028  1.0000
  H   H1120     1.0  0.68958  0.33613  0.38536  1.0000
  C   C641      1.0  0.96338  0.09919  0.36188  1.0000
  H   H1121     1.0  0.95985  0.03182  0.33815  1.0000
  H   H1122     1.0  0.92558  0.22729  0.33594  1.0000
  Fe  Fe77      1.0  0.66276  0.13991  0.48272  1.0000
  H   H1123     1.0  0.94083  0.46575  0.20367  1.0000
  C   C642      1.0  0.96432  0.04860  0.26384  1.0000
  C   C643      1.0  0.76134  0.13350  0.47237  1.0000
  H   H1124     1.0  0.74923  0.28612  0.47266  1.0000
  H   H1125     1.0  0.86413  0.44925  0.37138  1.0000
  H   H1126     1.0  0.72341  0.26614  0.37588  1.0000
  H   H1127     1.0  0.91615  0.11404  0.99589  1.0000
  C   C644      1.0  0.87790  0.26712  0.44484  1.0000
  H   H1128     1.0  0.94670  0.09495  0.34945  1.0000
  H   H1129     1.0  0.95815  0.01458  0.13818  1.0000
  H   H1130     1.0  0.67750  0.26222  0.41585  1.0000
  C   C645      1.0  0.71912  0.08149  0.41669  1.0000
  H   H1131     1.0  0.85483  0.36406  0.06758  1.0000
  H   H1132     1.0  0.83851  0.36886  0.00071  1.0000
  C   C646      1.0  0.68948  0.25875  0.39245  1.0000
  H   H1133     1.0  0.93276  0.03136  0.14070  1.0000
  H   H1134     1.0  0.70291  0.30122  0.37131  1.0000
  H   H1135     1.0  0.89259  0.23661  0.12227  1.0000
  H   H1136     1.0  0.71103  0.22439  0.44945  1.0000
  C   C647      1.0  0.90213  0.22645  0.14337  1.0000
  H   H1137     1.0  0.67494  0.12436  0.21890  1.0000
  C   C648      1.0  0.86650  0.40582  0.41659  1.0000
  H   H1138     1.0  0.86820  0.18780  0.44610  1.0000
  N   N36       1.0  0.98293  0.44592  0.09393  1.0000
  H   H1139     1.0  0.68181  0.26435  0.36521  1.0000
  H   H1140     1.0  0.87961  0.19824  0.14295  1.0000
  H   H1141     1.0  0.94998  0.06184  0.10445  1.0000
  H   H1142     1.0  0.69187  0.07040  0.38108  1.0000
  H   H1143     1.0  0.70542  0.12079  0.38250  1.0000
  H   H1144     1.0  0.82626  0.38554  0.41123  1.0000
  H   H1145     1.0  0.82022  0.18728  0.40701  1.0000
  H   H1146     1.0  0.73195  0.09519  0.41851  1.0000
  H   H1147     1.0  0.71696  0.42294  0.43531  1.0000
  C   C649      1.0  0.71196  0.27085  0.39949  1.0000
  H   H1148     1.0  0.94319  0.23591  0.23687  1.0000
  H   H1149     1.0  0.84775  0.21510  0.38026  1.0000
  Fe  Fe78      1.0  0.98189  0.10790  0.18490  1.0000
  H   H1150     1.0  0.97181  0.20274  0.06312  1.0000
  C   C650      1.0  0.88191  0.41225  0.35347  1.0000
  S   S157      1.0  0.68361  0.39464  0.46631  1.0000
  H   H1151     1.0  0.69227  0.24023  0.39098  1.0000
  H   H1152     1.0  0.68779  0.37762  0.37923  1.0000
  C   C651      1.0  0.72025  0.13676  0.47234  1.0000
  C   C652      1.0  0.74146  0.14409  0.45956  1.0000
  N   N37       1.0  0.67472  0.11220  0.35196  1.0000
  C   C653      1.0  0.95227  0.26116  0.19532  1.0000
  C   C654      1.0  0.90017  0.05541  0.03592  1.0000
  H   H1153     1.0  0.95123  0.44497  0.06296  1.0000
  H   H1154     1.0  0.88473  0.12248  0.11823  1.0000
  C   C655      1.0  0.89447  0.23393  0.18275  1.0000
  H   H1155     1.0  0.97804  0.37256  0.04000  1.0000
  H   H1156     1.0  0.91375  0.40514  0.29763  1.0000
  C   C656      1.0  0.90219  0.22870  0.38318  1.0000
  N   N38       1.0  0.90475  0.19121  0.09958  1.0000
  C   C657      1.0  0.95077  0.23884  0.20943  1.0000
  H   H1157     1.0  0.94592  0.27512  0.21192  1.0000
  H   H1158     1.0  0.83880  0.40115  0.33074  1.0000
  N   N39       1.0  0.98467  0.07338  0.31394  1.0000
  H   H1159     1.0  0.89772  0.16087  0.06688  1.0000
  H   H1160     1.0  0.98121  0.10968  0.31123  1.0000
  H   H1161     1.0  0.79473  0.28357  0.40338  1.0000
  H   H1162     1.0  0.95243  0.03533  0.07913  1.0000
  H   H1163     1.0  0.86775  0.42946  0.30308  1.0000
  H   H1164     1.0  0.71502  0.08351  0.35643  1.0000
  H   H1165     1.0  0.94772  0.46937  0.13512  1.0000
  C   C658      1.0  0.70401  0.34630  0.39604  1.0000
  H   H1166     1.0  0.93553  0.21114  0.09621  1.0000
  H   H1167     1.0  0.74009  0.34579  0.40162  1.0000
  H   H1168     1.0  0.92312  0.20120  0.36188  1.0000
  C   C659      1.0  0.73346  0.29528  0.47974  1.0000
  H   H1169     1.0  0.71805  0.37960  0.38356  1.0000
  N   N40       1.0  0.87708  0.22333  0.44349  1.0000
  H   H1170     1.0  0.90284  0.41241  0.42285  1.0000
  C   C660      1.0  0.70877  0.29690  0.40053  1.0000
  H   H1171     1.0  0.80896  0.30997  0.39530  1.0000
  H   H1172     1.0  0.87085  0.38758  0.41723  1.0000
  H   H1173     1.0  0.93789  0.16334  0.06139  1.0000
  H   H1174     1.0  0.79076  0.39131  0.00908  1.0000
  C   C661      1.0  0.92378  0.21987  0.36473  1.0000
  C   C662      1.0  0.96716  0.18456  0.06358  1.0000
  H   H1175     1.0  0.96669  0.08566  0.06599  1.0000
  C   C663      1.0  0.98283  0.09613  0.33308  1.0000
  C   C664      1.0  0.97726  0.40611  0.06459  1.0000
  C   C665      1.0  0.86092  0.20404  0.43614  1.0000
  H   H1176     1.0  0.74253  0.15788  0.43953  1.0000
  H   H1177     1.0  0.91369  0.22668  0.44072  1.0000
  H   H1178     1.0  0.74036  0.22169  0.43529  1.0000
  H   H1179     1.0  0.90200  0.22154  0.06561  1.0000
  C   C666      1.0  0.89862  0.16639  0.09707  1.0000
  C   C667      1.0  0.83630  0.44433  0.40912  1.0000
  H   H1180     1.0  0.82364  0.43168  0.41802  1.0000
  H   H1181     1.0  0.86923  0.13155  0.07657  1.0000
  H   H1182     1.0  0.94843  0.06788  0.30874  1.0000
  H   H1183     1.0  0.84211  0.22345  0.03464  1.0000
  H   H1184     1.0  0.86354  0.24609  0.40052  1.0000
  C   C668      1.0  0.97555  0.46135  0.02591  1.0000
  C   C669      1.0  0.87671  0.15843  0.11728  1.0000
  C   C670      1.0  0.72953  0.31579  0.45341  1.0000
  C   C671      1.0  0.68608  0.12054  0.24355  1.0000
  H   H1185     1.0  0.81427  0.47182  0.42577  1.0000
  H   H1186     1.0  0.93549  0.18937  0.03539  1.0000
  H   H1187     1.0  0.90920  0.43535  0.29974  1.0000
  H   H1188     1.0  0.69396  0.15505  0.37146  1.0000
  H   H1189     1.0  0.98079  0.42947  0.14877  1.0000
  H   H1190     1.0  0.67615  0.19232  0.36155  1.0000
  C   C672      1.0  0.96630  0.05649  0.01121  1.0000
  H   H1191     1.0  0.93823  0.18581  0.12310  1.0000
  H   H1192     1.0  0.97481  0.17624  0.03851  1.0000
  C   C673      1.0  0.96361  0.06938  0.29060  1.0000
  C   C674      1.0  0.87115  0.13386  0.10770  1.0000
  C   C675      1.0  0.95855  0.04523  0.10376  1.0000
  H   H1193     1.0  0.97797  0.24979  0.11168  1.0000
  C   C676      1.0  0.89947  0.21924  0.42404  1.0000
  H   H1194     1.0  0.86121  0.18941  0.05804  1.0000
  C   C677      1.0  0.71330  0.39211  0.46699  1.0000
  H   H1195     1.0  0.85509  0.12886  0.12158  1.0000
  H   H1196     1.0  0.83107  0.17891  0.36137  1.0000
  H   H1197     1.0  0.68390  0.10972  0.41142  1.0000
  H   H1198     1.0  0.75293  0.28333  0.41088  1.0000
  C   C678      1.0  0.94148  0.18171  0.06230  1.0000
  C   C679      1.0  0.89469  0.20421  0.06683  1.0000
  H   H1199     1.0  0.91225  0.15594  0.10994  1.0000
  C   C680      1.0  0.82378  0.46629  0.40031  1.0000
  H   H1200     1.0  0.82528  0.46466  0.02287  1.0000
  H   H1201     1.0  0.90333  0.24741  0.38380  1.0000
  H   H1202     1.0  0.86190  0.16884  0.10957  1.0000
  H   H1203     1.0  0.89944  0.19629  0.03943  1.0000
  C   C681      1.0  0.72693  0.33377  0.39134  1.0000
  H   H1204     1.0  0.90317  0.20076  0.42327  1.0000
  H   H1205     1.0  0.77575  0.31537  0.43689  1.0000
  C   C682      1.0  0.89786  0.20081  0.13751  1.0000
  H   H1206     1.0  0.96645  0.08854  0.38727  1.0000
  C   C683      1.0  0.83559  0.18176  0.39159  1.0000
  H   H1207     1.0  0.94456  0.45276  0.99521  1.0000
  H   H1208     1.0  0.93886  0.22464  0.38185  1.0000
  C   C684      1.0  0.77293  0.31330  0.40592  1.0000
  H   H1209     1.0  0.88783  0.22417  0.36451  1.0000
  H   H1210     1.0  0.89568  0.03903  0.04725  1.0000
  C   C685      1.0  0.86861  0.20602  0.06577  1.0000
  C   C686      1.0  0.85015  0.38181  0.07402  1.0000
  H   H1211     1.0  0.86711  0.21788  0.00715  1.0000
  H   H1212     1.0  0.84157  0.16547  0.40365  1.0000
  H   H1213     1.0  0.96655  0.39990  0.08797  1.0000
  H   H1214     1.0  0.94798  0.12537  0.39617  1.0000
  H   H1215     1.0  0.97338  0.03416  0.27696  1.0000
  C   C687      1.0  0.94062  0.04077  0.25243  1.0000
  C   C688      1.0  0.70393  0.36855  0.37404  1.0000
  H   H1216     1.0  0.72985  0.33166  0.36032  1.0000
  H   H1217     1.0  0.95935  0.01905  0.40419  1.0000
  C   C689      1.0  0.74928  0.40835  0.44856  1.0000
  H   H1218     1.0  0.95883  0.13526  0.35150  1.0000
  C   C690      1.0  0.96640  0.45605  0.06598  1.0000
  H   H1219     1.0  0.84489  0.38281  0.10417  1.0000
  C   C691      1.0  0.91166  0.09769  0.00731  1.0000
  H   H1220     1.0  0.75858  0.42164  0.43442  1.0000
  H   H1221     1.0  0.93139  0.05455  0.23763  1.0000
  C   C692      1.0  0.95625  0.46735  0.99869  1.0000
  H   H1222     1.0  0.84749  0.44757  0.43390  1.0000
  C   C693      1.0  0.72569  0.40909  0.44906  1.0000
  Fe  Fe79      1.0  0.86364  0.13302  0.47954  1.0000
  H   H1223     1.0  0.87198  0.28685  0.39339  1.0000
  H   H1224     1.0  0.66394  0.07800  0.33887  1.0000
  C   C694      1.0  0.98849  0.04935  0.03195  1.0000
  C   C695      1.0  0.95996  0.45954  0.15236  1.0000
  H   H1225     1.0  0.98713  0.01497  0.38448  1.0000
  C   C696      1.0  0.96209  0.12363  0.37566  1.0000
  C   C697      1.0  0.96988  0.43954  0.12918  1.0000
  H   H1226     1.0  0.85187  0.40721  0.43599  1.0000
  C   C698      1.0  0.83602  0.46170  0.99761  1.0000
  C   C699      1.0  0.98449  0.04812  0.10229  1.0000
  H   H1227     1.0  0.68281  0.15823  0.32439  1.0000
  H   H1228     1.0  0.98182  0.03825  0.41661  1.0000
  H   H1229     1.0  0.89640  0.26622  0.43999  1.0000
  H   H1230     1.0  0.86720  0.24014  0.04242  1.0000
  H   H1231     1.0  0.85491  0.39371  0.00166  1.0000
  C   C700      1.0  0.97458  0.02788  0.39328  1.0000
  C   C701      1.0  0.83735  0.38734  0.00587  1.0000
  H   H1232     1.0  0.84952  0.43071  0.01896  1.0000
  C   C702      1.0  0.76092  0.39078  0.46644  1.0000
  H   H1233     1.0  0.95496  0.05486  0.36955  1.0000
  C   C703      1.0  0.98524  0.08505  0.07037  1.0000
  C   C704      1.0  0.66334  0.13450  0.35999  1.0000
  H   H1234     1.0  0.83590  0.47984  0.39246  1.0000
  Fe  Fe80      1.0  0.86158  0.34756  0.48230  1.0000
  H   H1235     1.0  0.98704  0.47615  0.02722  1.0000
  H   H1236     1.0  0.98801  0.03074  0.03629  1.0000
  H   H1237     1.0  0.97717  0.13104  0.05966  1.0000
  H   H1238     1.0  0.85222  0.47094  0.00149  1.0000
  H   H1239     1.0  0.84833  0.24594  0.44325  1.0000
  H   H1240     1.0  0.74578  0.19185  0.48402  1.0000
  H   H1241     1.0  0.97806  0.12863  0.39007  1.0000
  H   H1242     1.0  0.94660  0.48212  0.00933  1.0000
  S   S158      1.0  0.80782  0.28140  0.48676  1.0000
  C   C705      1.0  0.73155  0.20386  0.48738  1.0000
  C   C706      1.0  0.66551  0.17720  0.36691  1.0000
  H   H1243     1.0  0.66262  0.13463  0.28309  1.0000
  H   H1244     1.0  0.85005  0.28940  0.42900  1.0000
  C   C707      1.0  0.86856  0.28786  0.42429  1.0000
  H   H1245     1.0  0.87687  0.30331  0.43554  1.0000
  H   H1246     1.0  0.87506  0.26978  0.47568  1.0000
  H   H1247     1.0  0.98465  0.44684  0.01341  1.0000
  H   H1248     1.0  0.65910  0.10497  0.27428  1.0000
  H   H1249     1.0  0.66181  0.17651  0.39773  1.0000
  C   C708      1.0  0.88775  0.41529  0.47766  1.0000
  C   C709      1.0  0.84079  0.43650  0.99282  1.0000
  H   H1250     1.0  0.65708  0.13486  0.38973  1.0000
  C   C710      1.0  0.65689  0.09395  0.35062  1.0000
  H   H1251     1.0  0.65758  0.08210  0.41007  1.0000
  H   H1252     1.0  0.98779  0.09228  0.09929  1.0000
  C   C711      1.0  0.88117  0.22453  0.48581  1.0000
  C   C712      1.0  0.74870  0.37367  0.48488  1.0000
  C   C713      1.0  0.72478  0.37426  0.48496  1.0000
  H   H1253     1.0  0.88987  0.39709  0.48446  1.0000
  Fe  Fe81      1.0  0.65960  0.36734  0.48432  1.0000
  Fe  Fe82      1.0  0.83125  0.45594  0.86630  1.0000
  S   S159      1.0  0.84714  0.42409  0.84416  1.0000
  S   S160      1.0  0.79475  0.44752  0.88474  1.0000
  H   H1254     1.0  0.74144  0.34586  0.60448  1.0000
  S   S161      1.0  0.89482  0.45138  0.83434  1.0000
  Fe  Fe83      1.0  0.86290  0.44579  0.79952  1.0000
  S   S162      1.0  0.85949  0.44020  0.73508  1.0000
  Fe  Fe84      1.0  0.87722  0.43234  0.88146  1.0000
  S   S163      1.0  0.89376  0.40453  0.91798  1.0000
  S   S164      1.0  0.84624  0.47783  0.82040  1.0000
  S   S165      1.0  0.86063  0.46294  0.90589  1.0000
  H   H1255     1.0  0.67063  0.08647  0.74116  1.0000
  C   C714      1.0  0.79213  0.39466  0.81199  1.0000
  S   S166      1.0  0.89083  0.02865  0.85274  1.0000
  Fe  Fe85      1.0  0.82592  0.01691  0.86949  1.0000
  S   S167      1.0  0.84221  0.05091  0.87776  1.0000
  H   H1256     1.0  0.67256  0.05721  0.78155  1.0000
  Fe  Fe86      1.0  0.86031  0.04370  0.82256  1.0000
  S   S168      1.0  0.85678  0.07248  0.77898  1.0000
  Fe  Fe87      1.0  0.87120  0.03332  0.90722  1.0000
  S   S169      1.0  0.88595  0.03766  0.96757  1.0000
  Fe  Fe88      1.0  0.87732  0.48211  0.85777  1.0000
  H   H1257     1.0  0.70836  0.09717  0.82891  1.0000
  H   H1258     1.0  0.84793  0.40299  0.93682  1.0000
  C   C715      1.0  0.75795  0.38294  0.95793  1.0000
  H   H1259     1.0  0.94461  0.04602  0.96466  1.0000
  S   S170      1.0  0.87687  0.14306  0.53744  1.0000
  H   H1260     1.0  0.82688  0.05390  0.66261  1.0000
  S   S171      1.0  0.82818  0.12810  0.57254  1.0000
  S   S172      1.0  0.85364  0.99952  0.90272  1.0000
  Fe  Fe89      1.0  0.84271  0.15904  0.54523  1.0000
  S   S173      1.0  0.83865  0.19291  0.57419  1.0000
  Fe  Fe90      1.0  0.86099  0.11114  0.56013  1.0000
  S   S174      1.0  0.87560  0.08472  0.60107  1.0000
  H   H1261     1.0  0.77845  0.26347  0.62249  1.0000
  Fe  Fe91      1.0  0.83862  0.35065  0.56162  1.0000
  C   C716      1.0  0.90097  0.40383  0.96726  1.0000
  S   S175      1.0  0.83941  0.35520  0.62654  1.0000
  H   H1262     1.0  0.69547  0.04932  0.85712  1.0000
  C   C717      1.0  0.80970  0.06907  0.60285  1.0000
  H   H1263     1.0  0.76067  0.41129  0.80167  1.0000
  H   H1264     1.0  0.78391  0.37838  0.81935  1.0000
  S   S176      1.0  0.85674  0.32249  0.53017  1.0000
  S   S177      1.0  0.80445  0.34120  0.53732  1.0000
  C   C718      1.0  0.83068  0.21725  0.54868  1.0000
  C   C719      1.0  0.83619  0.23859  0.56336  1.0000
  C   C720      1.0  0.82995  0.25837  0.54391  1.0000
  H   H1265     1.0  0.69668  0.06633  0.92056  1.0000
  H   H1266     1.0  0.84551  0.23982  0.58977  1.0000
  H   H1267     1.0  0.83432  0.27473  0.55550  1.0000
  H   H1268     1.0  0.80027  0.13873  0.64796  1.0000
  H   H1269     1.0  0.79556  0.40405  0.83868  1.0000
  H   H1270     1.0  0.67761  0.10895  0.77320  1.0000
  C   C721      1.0  0.72113  0.47233  0.86554  1.0000
  H   H1271     1.0  0.74205  0.32293  0.63763  1.0000
  C   C722      1.0  0.70188  0.37812  0.63637  1.0000
  H   H1272     1.0  0.79866  0.47590  0.79789  1.0000
  Fe  Fe92      1.0  0.81818  0.11826  0.51348  1.0000
  Fe  Fe93      1.0  0.87232  0.99542  0.84772  1.0000
  C   C723      1.0  0.73874  0.22329  0.51419  1.0000
  H   H1273     1.0  0.72766  0.43856  0.72063  1.0000
  C   C724      1.0  0.72574  0.45021  0.87733  1.0000
  C   C725      1.0  0.81858  0.21579  0.51460  1.0000
  H   H1274     1.0  0.77838  0.41240  0.94957  1.0000
  C   C726      1.0  0.86214  0.07521  0.72939  1.0000
  C   C727      1.0  0.85544  0.09519  0.71075  1.0000
  C   C728      1.0  0.85920  0.09827  0.67156  1.0000
  C   C729      1.0  0.86992  0.08145  0.65042  1.0000
  C   C730      1.0  0.87655  0.06142  0.66898  1.0000
  C   C731      1.0  0.87260  0.05824  0.70814  1.0000
  H   H1275     1.0  0.84745  0.10848  0.72688  1.0000
  H   H1276     1.0  0.85423  0.11386  0.65788  1.0000
  H   H1277     1.0  0.88496  0.04832  0.65299  1.0000
  H   H1278     1.0  0.87793  0.04282  0.72198  1.0000
  C   C732      1.0  0.76209  0.20114  0.55973  1.0000
  C   C733      1.0  0.78078  0.10890  0.63201  1.0000
  C   C734      1.0  0.77662  0.40837  0.78596  1.0000
  H   H1279     1.0  0.75330  0.08806  0.77721  1.0000
  C   C735      1.0  0.71920  0.00975  0.87812  1.0000
  C   C736      1.0  0.74157  0.01407  0.89044  1.0000
  C   C737      1.0  0.69209  0.04167  0.73679  1.0000
  C   C738      1.0  0.83342  0.37055  0.92458  1.0000
  H   H1280     1.0  0.67803  0.38213  0.76059  1.0000
  H   H1281     1.0  0.74443  0.02052  0.91878  1.0000
  C   C739      1.0  0.75515  0.05852  0.66104  1.0000
  C   C740      1.0  0.79847  0.38712  0.98120  1.0000
  H   H1282     1.0  0.80844  0.39100  0.79767  1.0000
  H   H1283     1.0  0.83227  0.03284  0.53408  1.0000
  C   C741      1.0  0.73325  0.35533  0.66407  1.0000
  H   H1284     1.0  0.80086  0.07923  0.58089  1.0000
  H   H1285     1.0  0.84496  0.05803  0.55311  1.0000
  H   H1286     1.0  0.81328  0.07096  0.71902  1.0000
  C   C742      1.0  0.85468  0.41601  0.70574  1.0000
  C   C743      1.0  0.85591  0.41847  0.66604  1.0000
  C   C744      1.0  0.85168  0.40007  0.64144  1.0000
  C   C745      1.0  0.84581  0.37892  0.65618  1.0000
  C   C746      1.0  0.84445  0.37648  0.69591  1.0000
  C   C747      1.0  0.84894  0.39482  0.72054  1.0000
  H   H1287     1.0  0.86030  0.43473  0.65417  1.0000
  H   H1288     1.0  0.85282  0.40231  0.61106  1.0000
  H   H1289     1.0  0.84005  0.36021  0.70772  1.0000
  H   H1290     1.0  0.84792  0.39257  0.75092  1.0000
  C   C748      1.0  0.76671  0.45746  0.87539  1.0000
  H   H1291     1.0  0.70924  0.03504  0.73107  1.0000
  H   H1292     1.0  0.77739  0.33964  0.66716  1.0000
  H   H1293     1.0  0.76265  0.10409  0.63189  1.0000
  S   S178      1.0  0.66915  0.28366  0.49034  1.0000
  H   H1294     1.0  0.77720  0.13213  0.67973  1.0000
  H   H1295     1.0  0.78527  0.07599  0.81555  1.0000
  C   C749      1.0  0.65957  0.23831  0.49140  1.0000
  C   C750      1.0  0.70744  0.37964  0.72357  1.0000
  C   C751      1.0  0.76985  0.25062  0.56630  1.0000
  H   H1296     1.0  0.68135  0.08489  0.82343  1.0000
  H   H1297     1.0  0.78634  0.11014  0.60219  1.0000
  H   H1298     1.0  0.71187  0.43884  0.88331  1.0000
  C   C752      1.0  0.69972  0.08069  0.82428  1.0000
  H   H1299     1.0  0.82606  0.07792  0.60815  1.0000
  C   C753      1.0  0.78259  0.13243  0.64959  1.0000
  H   H1300     1.0  0.81245  0.09838  0.65837  1.0000
  H   H1301     1.0  0.71897  0.05420  0.66845  1.0000
  C   C754      1.0  0.69035  0.05154  0.77747  1.0000
  H   H1302     1.0  0.74749  0.46942  0.74925  1.0000
  H   H1303     1.0  0.77148  0.14433  0.63393  1.0000
  C   C755      1.0  0.82862  0.04947  0.54724  1.0000
  H   H1304     1.0  0.91115  0.36890  0.96526  1.0000
  C   C756      1.0  0.77503  0.27006  0.59352  1.0000
  H   H1305     1.0  0.69243  0.03721  0.79748  1.0000
  C   C757      1.0  0.77110  0.06389  0.81141  1.0000
  C   C758      1.0  0.80819  0.05219  0.66607  1.0000
  C   C759      1.0  0.68528  0.11547  0.71474  1.0000
  C   C760      1.0  0.79499  0.09155  0.65497  1.0000
  C   C761      1.0  0.78756  0.43125  0.77559  1.0000
  H   H1306     1.0  0.78623  0.05759  0.71640  1.0000
  H   H1307     1.0  0.78784  0.09178  0.68392  1.0000
  C   C762      1.0  0.77285  0.05897  0.62885  1.0000
  H   H1308     1.0  0.79032  0.27925  0.58372  1.0000
  H   H1309     1.0  0.80536  0.42820  0.76662  1.0000
  H   H1310     1.0  0.82779  0.37770  0.86464  1.0000
  H   H1311     1.0  0.77319  0.39796  0.76049  1.0000
  C   C763      1.0  0.69659  0.37941  0.76289  1.0000
  C   C764      1.0  0.81544  0.04606  0.58395  1.0000
  H   H1312     1.0  0.71416  0.08158  0.73018  1.0000
  C   C765      1.0  0.70362  0.06604  0.86023  1.0000
  H   H1313     1.0  0.71833  0.10233  0.76551  1.0000
  C   C766      1.0  0.69387  0.07737  0.89548  1.0000
  H   H1314     1.0  0.77787  0.39868  0.65679  1.0000
  H   H1315     1.0  0.80424  0.03429  0.65897  1.0000
  H   H1316     1.0  0.80366  0.02004  0.72585  1.0000
  C   C767      1.0  0.84064  0.36955  0.88311  1.0000
  N   N41       1.0  0.82135  0.39819  0.97786  1.0000
  H   H1317     1.0  0.75878  0.04419  0.68046  1.0000
  H   H1318     1.0  0.76575  0.06862  0.60435  1.0000
  C   C768      1.0  0.70693  0.08823  0.75704  1.0000
  H   H1319     1.0  0.78915  0.44059  0.80276  1.0000
  N   N42       1.0  0.79599  0.06791  0.63896  1.0000
  H   H1320     1.0  0.78452  0.23902  0.56730  1.0000
  H   H1321     1.0  0.82603  0.03545  0.60295  1.0000
  H   H1322     1.0  0.73481  0.41939  0.75826  1.0000
  C   C769      1.0  0.71042  0.44464  0.77282  1.0000
  H   H1323     1.0  0.79992  0.03656  0.57643  1.0000
  C   C770      1.0  0.80425  0.05555  0.70922  1.0000
  N   N43       1.0  0.70684  0.07018  0.78719  1.0000
  C   C771      1.0  0.75221  0.45261  0.76114  1.0000
  H   H1324     1.0  0.75940  0.36423  0.95803  1.0000
  C   C772      1.0  0.73020  0.06007  0.79011  1.0000
  C   C773      1.0  0.79479  0.42462  0.69046  1.0000
  H   H1325     1.0  0.74493  0.08717  0.82615  1.0000
  H   H1326     1.0  0.78034  0.33196  0.61806  1.0000
  H   H1327     1.0  0.69982  0.36309  0.77749  1.0000
  C   C774      1.0  0.73159  0.43733  0.75142  1.0000
  H   H1328     1.0  0.80331  0.41203  0.70892  1.0000
  H   H1329     1.0  0.73656  0.28789  0.53965  1.0000
  H   H1330     1.0  0.80674  0.43862  0.68460  1.0000
  S   S179      1.0  0.84306  0.01022  0.81379  1.0000
  H   H1331     1.0  0.72192  0.06335  0.86562  1.0000
  C   C775      1.0  0.74943  0.07665  0.80135  1.0000
  H   H1332     1.0  0.76175  0.41807  0.71184  1.0000
  N   N44       1.0  0.77519  0.44535  0.74654  1.0000
  H   H1333     1.0  0.90004  0.08471  0.95307  1.0000
  H   H1334     1.0  0.74821  0.23467  0.60811  1.0000
  C   C776      1.0  0.77270  0.43317  0.70912  1.0000
  H   H1335     1.0  0.73745  0.34700  0.69160  1.0000
  H   H1336     1.0  0.77573  0.05192  0.78855  1.0000
  H   H1337     1.0  0.73027  0.04555  0.81021  1.0000
  H   H1338     1.0  0.80535  0.40658  0.63990  1.0000
  H   H1339     1.0  0.67514  0.19410  0.56657  1.0000
  H   H1340     1.0  0.70377  0.39317  0.78060  1.0000
  H   H1341     1.0  0.78187  0.42531  0.63234  1.0000
  C   C777      1.0  0.73380  0.99657  0.81833  1.0000
  C   C778      1.0  0.73136  0.05492  0.64499  1.0000
  C   C779      1.0  0.78954  0.41312  0.65260  1.0000
  H   H1342     1.0  0.75491  0.07439  0.67761  1.0000
  C   C780      1.0  0.75618  0.00136  0.83037  1.0000
  H   H1343     1.0  0.76397  0.44438  0.68828  1.0000
  H   H1344     1.0  0.71665  0.19057  0.55879  1.0000
  S   S180      1.0  0.78816  0.01397  0.88568  1.0000
  S   S181      1.0  0.84629  0.37619  0.51610  1.0000
  C   C781      1.0  0.96011  0.04000  0.97949  1.0000
  H   H1345     1.0  0.70863  0.40078  0.54581  1.0000
  C   C782      1.0  0.76215  0.47945  0.86292  1.0000
  H   H1346     1.0  0.91355  0.21725  0.54418  1.0000
  H   H1347     1.0  0.76884  0.05434  0.83825  1.0000
  H   H1348     1.0  0.80702  0.46172  0.73275  1.0000
  H   H1349     1.0  0.70516  0.01281  0.89701  1.0000
  H   H1350     1.0  0.73537  0.05264  0.76259  1.0000
  S   S182      1.0  0.85055  0.09964  0.50145  1.0000
  C   C783      1.0  0.74608  0.34114  0.63386  1.0000
  H   H1351     1.0  0.75113  0.38869  0.98559  1.0000
  C   C784      1.0  0.75721  0.17537  0.55889  1.0000
  C   C785      1.0  0.73876  0.10778  0.50985  1.0000
  C   C786      1.0  0.74832  0.44291  0.88235  1.0000
  H   H1352     1.0  0.70349  0.41502  0.58979  1.0000
  H   H1353     1.0  0.70230  0.09385  0.90074  1.0000
  H   H1354     1.0  0.85722  0.37807  0.87924  1.0000
  H   H1355     1.0  0.69811  0.12878  0.72030  1.0000
  H   H1356     1.0  0.77027  0.99795  0.81183  1.0000
  C   C787      1.0  0.73538  0.30291  0.52104  1.0000
  H   H1357     1.0  0.74580  0.38793  0.93530  1.0000
  N   N45       1.0  0.70784  0.35754  0.65949  1.0000
  H   H1358     1.0  0.68188  0.20222  0.61486  1.0000
  H   H1359     1.0  0.68790  0.05465  0.71522  1.0000
  N   N46       1.0  0.74217  0.21704  0.55531  1.0000
  H   H1360     1.0  0.69560  0.22720  0.54195  1.0000
  H   H1361     1.0  0.67538  0.08008  0.89224  1.0000
  C   C788      1.0  0.77917  0.16196  0.55617  1.0000
  H   H1362     1.0  0.82070  0.40493  0.91729  1.0000
  H   H1363     1.0  0.84665  0.36167  0.94129  1.0000
  H   H1364     1.0  0.77549  0.14364  0.55849  1.0000
  H   H1365     1.0  0.75077  0.31344  0.52523  1.0000
  H   H1366     1.0  0.74126  0.37237  0.66545  1.0000
  C   C789      1.0  0.78920  0.46631  0.73942  1.0000
  H   H1367     1.0  0.79105  0.16673  0.57934  1.0000
  H   H1368     1.0  0.77506  0.20479  0.53778  1.0000
  C   C790      1.0  0.69949  0.22164  0.57125  1.0000
  C   C791      1.0  0.71059  0.37887  0.59515  1.0000
  H   H1369     1.0  0.78262  0.47556  0.71411  1.0000
  H   H1370     1.0  0.71232  0.44099  0.80350  1.0000
  H   H1371     1.0  0.66866  0.12377  0.71011  1.0000
  H   H1372     1.0  0.68330  0.38061  0.63583  1.0000
  C   C792      1.0  0.67195  0.33528  0.63790  1.0000
  C   C793      1.0  0.67552  0.02221  0.73100  1.0000
  H   H1373     1.0  0.90221  0.19042  0.55914  1.0000
  C   C794      1.0  0.75999  0.11512  0.49718  1.0000
  H   H1374     1.0  0.72925  0.38102  0.59512  1.0000
  C   C795      1.0  0.67894  0.20856  0.58561  1.0000
  C   C796      1.0  0.89801  0.20674  0.54523  1.0000
  H   H1375     1.0  0.66392  0.21982  0.58591  1.0000
  H   H1376     1.0  0.78643  0.38827  0.92177  1.0000
  C   C797      1.0  0.70053  0.39907  0.57395  1.0000
  H   H1377     1.0  0.70392  0.39645  0.71096  1.0000
  H   H1378     1.0  0.87433  0.19066  0.50806  1.0000
  C   C798      1.0  0.68366  0.09923  0.74832  1.0000
  H   H1379     1.0  0.77396  0.04127  0.61860  1.0000
  C   C799      1.0  0.71894  0.11875  0.49785  1.0000
  H   H1380     1.0  0.70136  0.23674  0.58958  1.0000
  H   H1381     1.0  0.70606  0.36345  0.57909  1.0000
  Fe  Fe94      1.0  0.82309  0.31532  0.50284  1.0000
  C   C800      1.0  0.81751  0.25694  0.51022  1.0000
  S   S183      1.0  0.68732  0.99297  0.82629  1.0000
  H   H1382     1.0  0.73041  0.03880  0.62893  1.0000
  H   H1383     1.0  0.70870  0.39360  0.65002  1.0000
  H   H1384     1.0  0.76077  0.28222  0.59462  1.0000
  H   H1385     1.0  0.74859  0.17021  0.58547  1.0000
  H   H1386     1.0  0.69886  0.34436  0.71474  1.0000
  C   C801      1.0  0.77171  0.34369  0.63786  1.0000
  S   S184      1.0  0.69285  0.48282  0.86042  1.0000
  H   H1387     1.0  0.81866  0.05973  0.52674  1.0000
  H   H1388     1.0  0.84249  0.35167  0.87418  1.0000
  C   C802      1.0  0.71511  0.00070  0.84209  1.0000
  H   H1389     1.0  0.81737  0.36103  0.92694  1.0000
  H   H1390     1.0  0.66839  0.29862  0.64110  1.0000
  H   H1391     1.0  0.77707  0.36113  0.63056  1.0000
  H   H1392     1.0  0.68207  0.39669  0.56946  1.0000
  H   H1393     1.0  0.77089  0.20396  0.58740  1.0000
  H   H1394     1.0  0.73765  0.09352  0.52895  1.0000
  H   H1395     1.0  0.78743  0.16510  0.52847  1.0000
  H   H1396     1.0  0.75280  0.45493  0.79250  1.0000
  H   H1397     1.0  0.67571  0.01672  0.70090  1.0000
  H   H1398     1.0  0.83156  0.03268  0.72553  1.0000
  H   H1399     1.0  0.76863  0.25785  0.53731  1.0000
  H   H1400     1.0  0.70504  0.33287  0.61395  1.0000
  H   H1401     1.0  0.89423  0.23750  0.49248  1.0000
  C   C803      1.0  0.79060  0.48356  0.77258  1.0000
  H   H1402     1.0  0.75152  0.42590  0.89215  1.0000
  H   H1403     1.0  0.73391  0.25114  0.57314  1.0000
  H   H1404     1.0  0.81215  0.03936  0.76285  1.0000
  C   C804      1.0  0.69751  0.36045  0.69839  1.0000
  C   C805      1.0  0.90909  0.38355  0.98323  1.0000
  H   H1405     1.0  0.72634  0.23733  0.51138  1.0000
  H   H1406     1.0  0.68025  0.00758  0.74905  1.0000
  H   H1407     1.0  0.69550  0.43511  0.76220  1.0000
  H   H1408     1.0  0.70263  0.11296  0.50773  1.0000
  H   H1409     1.0  0.67912  0.36428  0.69605  1.0000
  C   C806      1.0  0.88894  0.20232  0.50526  1.0000
  H   H1410     1.0  0.81001  0.43152  0.96125  1.0000
  H   H1411     1.0  0.85255  0.43437  0.96887  1.0000
  C   C807      1.0  0.72114  0.20683  0.57252  1.0000
  C   C808      1.0  0.83086  0.39532  0.93850  1.0000
  H   H1412     1.0  0.72444  0.20245  0.60281  1.0000
  H   H1413     1.0  0.89286  0.43851  0.97907  1.0000
  S   S185      1.0  0.65695  0.42537  0.85164  1.0000
  C   C809      1.0  0.81345  0.03562  0.73208  1.0000
  S   S186      1.0  0.65610  0.14781  0.54387  1.0000
  H   H1414     1.0  0.68974  0.10614  0.68848  1.0000
  S   S187      1.0  0.66512  0.34501  0.53470  1.0000
  H   H1415     1.0  0.70313  0.32140  0.66024  1.0000
  C   C810      1.0  0.69806  0.33618  0.64254  1.0000
  H   H1416     1.0  0.72654  0.06910  0.62592  1.0000
  H   H1417     1.0  0.72596  0.37787  0.72758  1.0000
  H   H1418     1.0  0.72019  0.31272  0.52946  1.0000
  C   C811      1.0  0.76027  0.00976  0.86691  1.0000
  H   H1419     1.0  0.71647  0.19470  0.49786  1.0000
  H   H1420     1.0  0.80006  0.36839  0.98138  1.0000
  C   C812      1.0  0.78091  0.39384  0.95031  1.0000
  C   C813      1.0  0.66440  0.31263  0.62121  1.0000
  H   H1421     1.0  0.74629  0.17033  0.53479  1.0000
  C   C814      1.0  0.74751  0.23840  0.57710  1.0000
  Fe  Fe95      1.0  0.81325  0.36504  0.49050  1.0000
  H   H1422     1.0  0.88508  0.21543  0.56269  1.0000
  H   H1423     1.0  0.81414  0.19942  0.50324  1.0000
  C   C815      1.0  0.81865  0.42313  0.98559  1.0000
  C   C816      1.0  0.81178  0.23560  0.49566  1.0000
  S   S188      1.0  0.78434  0.10039  0.51183  1.0000
  Fe  Fe96      1.0  0.65935  0.46292  0.85758  1.0000
  H   H1424     1.0  0.97399  0.03883  0.95847  1.0000
  H   H1425     1.0  0.75469  0.23015  0.50209  1.0000
  H   H1426     1.0  0.66315  0.33708  0.66541  1.0000
  H   H1427     1.0  0.86561  0.23020  0.50059  1.0000
  H   H1428     1.0  0.82734  0.46858  0.97207  1.0000
  H   H1429     1.0  0.75768  0.36023  0.49920  1.0000
  C   C817      1.0  0.90249  0.08109  0.98288  1.0000
  H   H1430     1.0  0.71527  0.36126  0.49936  1.0000
  H   H1431     1.0  0.65813  0.02762  0.73821  1.0000
  H   H1432     1.0  0.67278  0.30935  0.59363  1.0000
  C   C818      1.0  0.73954  0.48683  0.85825  1.0000
  H   H1433     1.0  0.70709  0.46295  0.76890  1.0000
  H   H1434     1.0  0.66604  0.34883  0.61859  1.0000
  H   H1435     1.0  0.96322  0.47167  0.97039  1.0000
  H   H1436     1.0  0.90236  0.19376  0.48874  1.0000
  H   H1437     1.0  0.87215  0.42171  0.49137  1.0000
  H   H1438     1.0  0.65756  0.41981  0.66105  1.0000
  H   H1439     1.0  0.73093  0.98945  0.79048  1.0000
  H   H1440     1.0  0.90248  0.42458  0.48954  1.0000
  H   H1441     1.0  0.97772  0.85977  0.99833  1.0000
  C   C819      1.0  0.98750  0.94434  0.02813  1.0000
  C   C820      1.0  0.98640  0.97055  0.02843  1.0000
  C   C821      1.0  0.96499  0.97872  0.04835  1.0000
  H   H1442     1.0  0.96461  0.97265  0.07817  1.0000
  H   H1443     1.0  0.98634  0.93849  0.05807  1.0000
  H   H1444     1.0  0.97155  0.93832  0.01458  1.0000
  H   H1445     1.0  0.98612  0.86984  0.04457  1.0000
  H   H1446     1.0  0.94965  0.97259  0.03318  1.0000
  H   H1447     1.0  0.98612  0.97748  0.99921  1.0000
  H   H1448     1.0  0.97263  0.90123  0.00336  1.0000
  H   H1449     1.0  0.68044  0.56774  0.85631  1.0000
  S   S189      1.0  0.97613  0.57916  0.81733  1.0000
  S   S190      1.0  0.89630  0.51447  0.87681  1.0000
  S   S191      1.0  0.88827  0.96185  0.82786  1.0000
  C   C822      1.0  0.92017  0.53013  0.85971  1.0000
  C   C823      1.0  0.92445  0.53302  0.82096  1.0000
  C   C824      1.0  0.94176  0.54783  0.80871  1.0000
  C   C825      1.0  0.95551  0.55958  0.83485  1.0000
  C   C826      1.0  0.95175  0.55612  0.87360  1.0000
  C   C827      1.0  0.93397  0.54188  0.88585  1.0000
  H   H1450     1.0  0.91390  0.52443  0.80039  1.0000
  H   H1451     1.0  0.94437  0.55030  0.77865  1.0000
  H   H1452     1.0  0.96220  0.56477  0.89416  1.0000
  H   H1453     1.0  0.93080  0.53998  0.91587  1.0000
  C   C828      1.0  0.94779  0.91801  0.87334  1.0000
  C   C829      1.0  0.93741  0.91327  0.83846  1.0000
  C   C830      1.0  0.91954  0.92703  0.82485  1.0000
  C   C831      1.0  0.91191  0.94592  0.84550  1.0000
  C   C832      1.0  0.92265  0.95094  0.87998  1.0000
  C   C833      1.0  0.94023  0.93695  0.89392  1.0000
  H   H1454     1.0  0.94271  0.89866  0.82244  1.0000
  H   H1455     1.0  0.91141  0.92286  0.79822  1.0000
  H   H1456     1.0  0.91711  0.96536  0.89630  1.0000
  H   H1457     1.0  0.94793  0.94080  0.92101  1.0000
  C   C834      1.0  0.80303  0.89983  0.89062  1.0000
  C   C835      1.0  0.77077  0.95162  0.90063  1.0000
  H   H1458     1.0  0.76370  0.93436  0.89758  1.0000
  C   C836      1.0  0.66327  0.53091  0.81980  1.0000
  H   H1459     1.0  0.79298  0.86524  0.90213  1.0000
  H   H1460     1.0  0.84155  0.95826  0.86709  1.0000
  C   C837      1.0  0.66440  0.57731  0.85807  1.0000
  H   H1461     1.0  0.93735  0.61169  0.80864  1.0000
  H   H1462     1.0  0.95042  0.63994  0.74398  1.0000
  H   H1463     1.0  0.79102  0.96064  0.75803  1.0000
  C   C838      1.0  0.93330  0.61184  0.91989  1.0000
  H   H1464     1.0  0.81023  0.91105  0.83459  1.0000
  H   H1465     1.0  0.68228  0.60748  0.87621  1.0000
  H   H1466     1.0  0.78284  0.91846  0.84952  1.0000
  C   C839      1.0  0.95270  0.60799  0.94794  1.0000
  H   H1467     1.0  0.96421  0.91677  0.75506  1.0000
  H   H1468     1.0  0.76730  0.97930  0.94102  1.0000
  H   H1469     1.0  0.88229  0.57974  0.88786  1.0000
  C   C840      1.0  0.81767  0.95256  0.79881  1.0000
  H   H1470     1.0  0.69554  0.50448  0.78282  1.0000
  H   H1471     1.0  0.82109  0.89531  0.89454  1.0000
  C   C841      1.0  0.94196  0.62233  0.88220  1.0000
  H   H1472     1.0  0.76490  0.95141  0.96174  1.0000
  H   H1473     1.0  0.96056  0.62433  0.95617  1.0000
  H   H1474     1.0  0.74204  0.96290  0.93366  1.0000
  H   H1475     1.0  0.79594  0.90563  0.91795  1.0000
  H   H1476     1.0  0.83871  0.95203  0.93453  1.0000
  H   H1477     1.0  0.93679  0.66613  0.86089  1.0000
  C   C842      1.0  0.90206  0.61953  0.85695  1.0000
  C   C843      1.0  0.90241  0.59474  0.84268  1.0000
  C   C844      1.0  0.93314  0.62962  0.81500  1.0000
  H   H1478     1.0  0.68260  0.55479  0.78428  1.0000
  H   H1479     1.0  0.87683  0.95129  0.90853  1.0000
  H   H1480     1.0  0.95081  0.66185  0.80441  1.0000
  H   H1481     1.0  0.84281  0.92927  0.85585  1.0000
  H   H1482     1.0  0.96825  0.64052  0.82641  1.0000
  H   H1483     1.0  0.88232  0.56410  0.84422  1.0000
  H   H1484     1.0  0.65702  0.57524  0.88672  1.0000
  H   H1485     1.0  0.91974  0.63453  0.79423  1.0000
  H   H1486     1.0  0.92158  0.69822  0.89934  1.0000
  C   C845      1.0  0.69950  0.52282  0.78386  1.0000
  H   H1487     1.0  0.81941  0.96460  0.74071  1.0000
  N   N47       1.0  0.80902  0.94134  0.86883  1.0000
  H   H1488     1.0  0.78558  0.95503  0.82721  1.0000
  H   H1489     1.0  0.76485  0.96201  0.87648  1.0000
  H   H1490     1.0  0.80623  0.97461  0.84349  1.0000
  H   H1491     1.0  0.96585  0.59695  0.93537  1.0000
  C   C846      1.0  0.80462  0.50418  0.76128  1.0000
  C   C847      1.0  0.76073  0.96191  0.93655  1.0000
  H   H1492     1.0  0.89937  0.69246  0.93277  1.0000
  C   C848      1.0  0.80827  0.96651  0.76578  1.0000
  H   H1493     1.0  0.83559  0.95758  0.80314  1.0000
  H   H1494     1.0  0.77215  0.88142  0.87642  1.0000
  H   H1495     1.0  0.80110  0.94148  0.92914  1.0000
  C   C849      1.0  0.83439  0.94155  0.87511  1.0000
  H   H1496     1.0  0.66850  0.53272  0.75784  1.0000
  S   S192      1.0  0.96922  0.90029  0.89379  1.0000
  H   H1497     1.0  0.91783  0.58594  0.85243  1.0000
  C   C850      1.0  0.92060  0.65661  0.86266  1.0000
  C   C851      1.0  0.88192  0.58138  0.85647  1.0000
  H   H1498     1.0  0.90226  0.59438  0.81116  1.0000
  H   H1499     1.0  0.96913  0.61933  0.76548  1.0000
  H   H1500     1.0  0.67831  0.60547  0.82564  1.0000
  C   C852      1.0  0.90592  0.68824  0.90417  1.0000
  H   H1501     1.0  0.90928  0.66384  0.84037  1.0000
  C   C853      1.0  0.67024  0.60233  0.85355  1.0000
  H   H1502     1.0  0.89515  0.61953  0.88609  1.0000
  H   H1503     1.0  0.89298  0.69314  0.88276  1.0000
  H   H1504     1.0  0.88913  0.62860  0.83961  1.0000
  C   C854      1.0  0.84315  0.93743  0.91619  1.0000
  H   H1505     1.0  0.95458  0.63562  0.88940  1.0000
  H   H1506     1.0  0.92061  0.62255  0.93410  1.0000
  C   C855      1.0  0.79057  0.87816  0.87961  1.0000
  H   H1507     1.0  0.81740  0.93465  0.78988  1.0000
  H   H1508     1.0  0.89490  0.65390  0.90795  1.0000
  C   C856      1.0  0.96361  0.63726  0.76603  1.0000
  H   H1509     1.0  0.80311  0.96850  0.90839  1.0000
  H   H1510     1.0  0.80752  0.98468  0.77336  1.0000
  H   H1511     1.0  0.70989  0.52634  0.80951  1.0000
  C   C857      1.0  0.80369  0.95656  0.83547  1.0000
  N   N48       1.0  0.92444  0.63180  0.85514  1.0000
  H   H1512     1.0  0.70958  0.52724  0.75842  1.0000
  H   H1513     1.0  0.83584  0.92210  0.92910  1.0000
  H   H1514     1.0  0.73634  0.50404  0.84954  1.0000
  H   H1515     1.0  0.86596  0.58971  0.84746  1.0000
  C   C858      1.0  0.80079  0.91791  0.85916  1.0000
  H   H1516     1.0  0.77601  0.49101  0.85807  1.0000
  H   H1517     1.0  0.79728  0.87130  0.85258  1.0000
  C   C859      1.0  0.95463  0.64351  0.80525  1.0000
  C   C860      1.0  0.91089  0.66293  0.90192  1.0000
  H   H1518     1.0  0.95200  0.60876  0.86839  1.0000
  H   H1519     1.0  0.92349  0.65915  0.92444  1.0000
  H   H1520     1.0  0.87454  0.93131  0.94669  1.0000
  H   H1521     1.0  0.92528  0.59520  0.91435  1.0000
  C   C861      1.0  0.79698  0.95096  0.90292  1.0000
  H   H1522     1.0  0.67479  0.53205  0.84463  1.0000
  H   H1523     1.0  0.87467  0.92140  0.89832  1.0000
  C   C862      1.0  0.86886  0.93516  0.91734  1.0000
  C   C863      1.0  0.67773  0.53670  0.78445  1.0000
  H   H1524     1.0  0.79632  0.51344  0.73763  1.0000
  H   H1525     1.0  0.98836  0.93187  0.95631  1.0000
  H   H1526     1.0  0.94618  0.59966  0.97392  1.0000
  H   H1527     1.0  0.97837  0.64810  0.75916  1.0000
  H   H1528     1.0  0.98083  0.52055  0.80004  1.0000
  H   H1529     1.0  0.98249  0.79624  0.74205  1.0000
  H   H1530     1.0  0.65799  0.53960  0.90176  1.0000
  H   H1531     1.0  0.65877  0.51270  0.81803  1.0000
  H   H1532     1.0  0.80628  0.51576  0.78592  1.0000
  H   H1533     1.0  0.98353  0.89852  0.78021  1.0000
  H   H1534     1.0  0.82186  0.49901  0.75236  1.0000
  H   H1535     1.0  0.97980  0.92752  0.79514  1.0000
  C   C864      1.0  0.98071  0.91611  0.77017  1.0000
  H   H1536     1.0  0.77368  0.48979  0.78098  1.0000
