data_image0
_chemical_formula_structural       H3CH3C2HNCHCH4SH2FeHC2HCHCH3CH6SCHCH2CHCH3SHNHCHSCSFeH2NC2HC3SCH3CSH2SHCHCH8CH2CFeHCFeH5CHCH2CH4C2HC2HCHFeS2FeS2FeSFeS3C2HCH3C6H3C3HCH2CH2C6H3CH4CH3CH2C4H2NH4CHNH2CHCHCHC2H2CH4C2H6CHCHCH2C3H3C2HCH5CHCH5CH2CHCH2CH5C2HFeS2FeS2FeSFeS3C2HCHC4H2C8H7C2HCHCH7CH5C2H4CHC2H3CHC2H3CH2CH5CH5CH3C3NH2CH4NHCH3CH2CHCH3CH2C2H3FeS2FeSCFeSFeS3FeSHC6H4CH2NC2H2C7H5C2HCH3FeH2CH2CH2CHSC2H6SCH3SC2H3CH4CH5CH2CH3SHC2HCH4NCH5CH2CH4C2H7SCHNCHCHCHCHSHCH2CH3SHC2H5CH8FeS2FeS2FeSFeHS3HFeSHC7H9C7H3CHCHCHC2H2CHCH4CH2FeNSH3CH3NSHCH4CH2CH4C2H5C2H2CH5C3H2C2H3CHCH3C2HC2SH6CH5CH2CHC2NHCHCHSCHCH5C2H2SH4CNC3H3CH2C2H6CH2CHC2H4CH5CH2CH3C2HCHFeS2HCFeCHSHCSCH2CH2C6HCHSHCH4SC2H3C3H4CH11NH3C2HC3H2C3H2FeNH6CHSH6C2H4CFeC2Fe2S2FeSCSFeCSHSCS2C3H2C6H6SH2NC2HC2HCH3CH2C2HFeC3HFeH3CH2CH5FeCHSHC2H2FeH2C3H8CH10CH4CH5SNH2CH2CH4CSC2
_chemical_formula_sum              "H576 C324 N18 S72 Fe36"
_cell_length_a       38.195
_cell_length_b       39.4315
_cell_length_c       33.2582
_cell_angle_alpha    93.4868
_cell_angle_beta     85.7572
_cell_angle_gamma    116.248

_space_group_name_H-M_alt    "P 1"
_space_group_IT_number       1

loop_
  _space_group_symop_operation_xyz
  'x, y, z'

loop_
  _atom_site_type_symbol
  _atom_site_label
  _atom_site_symmetry_multiplicity
  _atom_site_fract_x
  _atom_site_fract_y
  _atom_site_fract_z
  _atom_site_occupancy
  H   H1        1.0  0.08326  0.15073  0.12345  1.0000
  H   H2        1.0  0.11901  0.21410  0.33125  1.0000
  H   H3        1.0  0.13417  0.26667  0.28503  1.0000
  C   C1        1.0  0.14272  0.31815  0.11012  1.0000
  H   H4        1.0  0.12788  0.28835  0.10197  1.0000
  H   H5        1.0  0.15172  0.30882  0.17108  1.0000
  H   H6        1.0  0.06894  0.08331  0.12366  1.0000
  C   C2        1.0  0.06554  0.07280  0.05751  1.0000
  C   C3        1.0  0.08722  0.13622  0.09504  1.0000
  H   H7        1.0  0.04692  0.01892  0.12078  1.0000
  N   N1        1.0  0.04482  0.03022  0.05799  1.0000
  C   C4        1.0  0.05284  0.01434  0.01785  1.0000
  H   H8        1.0  0.04385  0.31996  0.18988  1.0000
  C   C5        1.0  0.06109  0.09372  0.09716  1.0000
  H   H9        1.0  0.10746  0.28109  0.37216  1.0000
  H   H10       1.0  0.07226  0.21391  0.34592  1.0000
  H   H11       1.0  0.08467  0.02352  0.01199  1.0000
  H   H12       1.0  0.11849  0.14200  0.09089  1.0000
  S   S1        1.0  0.07599  0.21572  0.01721  1.0000
  H   H13       1.0  0.07957  0.14821  0.06955  1.0000
  H   H14       1.0  0.10719  0.32818  0.29582  1.0000
  Fe  Fe1       1.0  0.10935  0.27608  0.99750  1.0000
  H   H15       1.0  0.05460  0.08356  0.03350  1.0000
  C   C6        1.0  0.09548  0.22053  0.32137  1.0000
  C   C7        1.0  0.16019  0.10719  0.99808  1.0000
  H   H16       1.0  0.17068  0.11601  0.02809  1.0000
  C   C8        1.0  0.11195  0.26201  0.31022  1.0000
  H   H17       1.0  0.15264  0.28070  0.35701  1.0000
  C   C9        1.0  0.10436  0.03214  0.09310  1.0000
  H   H18       1.0  0.11634  0.06198  0.10443  1.0000
  H   H19       1.0  0.09711  0.08255  0.04930  1.0000
  H   H20       1.0  0.08751  0.26635  0.29937  1.0000
  C   C10       1.0  0.15620  0.32987  0.14935  1.0000
  H   H21       1.0  0.17093  0.05765  0.99583  1.0000
  H   H22       1.0  0.08252  0.20202  0.29464  1.0000
  H   H23       1.0  0.03046  0.08972  0.10229  1.0000
  H   H24       1.0  0.22600  0.32546  0.24862  1.0000
  H   H25       1.0  0.00932  0.02330  0.98504  1.0000
  H   H26       1.0  0.11928  0.03172  0.06339  1.0000
  S   S2        1.0  0.14614  0.16958  0.00255  1.0000
  C   C11       1.0  0.05925  0.01503  0.09044  1.0000
  H   H27       1.0  0.14786  0.02318  0.12344  1.0000
  C   C12       1.0  0.00165  0.01826  0.06630  1.0000
  H   H28       1.0  0.20734  0.30700  0.32033  1.0000
  H   H29       1.0  0.16624  0.32830  0.27730  1.0000
  C   C13       1.0  0.11554  0.01024  0.12196  1.0000
  H   H30       1.0  0.10248  0.01095  0.15278  1.0000
  C   C14       1.0  0.13032  0.28867  0.34698  1.0000
  H   H31       1.0  0.99592  0.02595  0.09803  1.0000
  H   H32       1.0  0.15724  0.31186  0.42322  1.0000
  H   H33       1.0  0.08738  0.32338  0.34651  1.0000
  S   S3        1.0  0.12710  0.33215  0.03369  1.0000
  H   H34       1.0  0.20145  0.32666  0.39208  1.0000
  N   N2        1.0  0.14728  0.33059  0.34007  1.0000
  H   H35       1.0  0.25167  0.32932  0.79346  1.0000
  C   C15       1.0  0.10860  0.15036  0.82140  1.0000
  H   H36       1.0  0.28026  0.26749  0.78724  1.0000
  S   S4        1.0  0.08600  0.19063  0.92175  1.0000
  C   C16       1.0  0.15807  0.31105  0.81714  1.0000
  S   S5        1.0  0.15607  0.26644  0.96014  1.0000
  Fe  Fe2       1.0  0.11667  0.25288  0.90825  1.0000
  H   H37       1.0  0.16575  0.17616  0.87117  1.0000
  H   H38       1.0  0.27860  0.20803  0.87397  1.0000
  N   N3        1.0  0.21546  0.22371  0.84480  1.0000
  C   C17       1.0  0.22952  0.24335  0.88489  1.0000
  C   C18       1.0  0.29522  0.18717  0.81863  1.0000
  H   H39       1.0  0.03491  0.01267  0.91623  1.0000
  C   C19       1.0  0.13344  0.11744  0.93886  1.0000
  C   C20       1.0  0.13485  0.08503  0.92010  1.0000
  C   C21       1.0  0.14795  0.06307  0.94073  1.0000
  S   S6        1.0  0.12934  0.26739  0.84121  1.0000
  C   C22       1.0  0.24288  0.23687  0.95728  1.0000
  H   H40       1.0  0.12251  0.13370  0.92319  1.0000
  H   H41       1.0  0.12537  0.07665  0.88971  1.0000
  H   H42       1.0  0.14778  0.20140  0.79284  1.0000
  C   C23       1.0  0.22172  0.25322  0.81457  1.0000
  S   S7        1.0  0.15030  0.02309  0.91616  1.0000
  H   H43       1.0  0.27752  0.15680  0.82542  1.0000
  H   H44       1.0  0.09426  0.13658  0.79309  1.0000
  S   S8        1.0  0.07177  0.26563  0.94433  1.0000
  H   H45       1.0  0.21798  0.16958  0.84123  1.0000
  C   C24       1.0  0.27758  0.21136  0.84124  1.0000
  H   H46       1.0  0.13126  0.29004  0.76034  1.0000
  C   C25       1.0  0.21840  0.21692  0.92119  1.0000
  H   H47       1.0  0.16583  0.16608  0.79307  1.0000
  H   H48       1.0  0.21734  0.26411  0.89265  1.0000
  H   H49       1.0  0.18728  0.20825  0.93086  1.0000
  H   H50       1.0  0.29667  0.19073  0.78558  1.0000
  H   H51       1.0  0.20506  0.26950  0.82519  1.0000
  H   H52       1.0  0.29674  0.24130  0.83461  1.0000
  H   H53       1.0  0.26163  0.26065  0.88357  1.0000
  H   H54       1.0  0.23887  0.26245  0.96698  1.0000
  C   C26       1.0  0.26443  0.28201  0.80430  1.0000
  H   H55       1.0  0.00446  0.12950  0.81686  1.0000
  H   H56       1.0  0.21006  0.23976  0.78509  1.0000
  C   C27       1.0  0.17188  0.19934  0.85028  1.0000
  Fe  Fe3       1.0  0.04301  0.20411  0.96054  1.0000
  H   H57       1.0  0.09129  0.16397  0.83730  1.0000
  C   C28       1.0  0.23477  0.19876  0.82976  1.0000
  Fe  Fe4       1.0  0.12065  0.20539  0.97686  1.0000
  H   H58       1.0  0.06896  0.00066  0.93907  1.0000
  H   H59       1.0  0.10868  0.12828  0.84057  1.0000
  H   H60       1.0  0.23395  0.19516  0.79631  1.0000
  H   H61       1.0  0.22191  0.19082  0.91326  1.0000
  H   H62       1.0  0.15729  0.21622  0.86493  1.0000
  C   C29       1.0  0.15025  0.18014  0.81141  1.0000
  H   H63       1.0  0.32535  0.19600  0.82824  1.0000
  C   C30       1.0  0.15324  0.31389  0.77610  1.0000
  H   H64       1.0  0.28010  0.29645  0.83167  1.0000
  H   H65       1.0  0.27432  0.24506  0.94965  1.0000
  C   C31       1.0  0.14643  0.12877  0.97785  1.0000
  H   H66       1.0  0.01504  0.08713  0.86179  1.0000
  H   H67       1.0  0.02338  0.15362  0.86380  1.0000
  H   H68       1.0  0.00074  0.02341  0.86451  1.0000
  H   H69       1.0  0.25061  0.30007  0.74913  1.0000
  C   C32       1.0  0.99780  0.13044  0.84986  1.0000
  C   C33       1.0  0.26578  0.31272  0.77738  1.0000
  H   H70       1.0  0.05928  0.05576  0.97335  1.0000
  C   C34       1.0  0.03933  0.02593  0.98040  1.0000
  C   C35       1.0  0.04016  0.00120  0.94354  1.0000
  H   H71       1.0  0.23334  0.21743  0.98293  1.0000
  C   C36       1.0  0.16027  0.07408  0.97994  1.0000
  H   H72       1.0  0.22959  0.38855  0.42646  1.0000
  Fe  Fe5       1.0  0.28768  0.50802  0.27512  1.0000
  S   S9        1.0  0.25235  0.53710  0.30216  1.0000
  S   S10       1.0  0.35096  0.53738  0.29045  1.0000
  Fe  Fe6       1.0  0.21626  0.44140  0.24011  1.0000
  S   S11       1.0  0.17624  0.46640  0.26510  1.0000
  S   S12       1.0  0.18839  0.38170  0.21156  1.0000
  Fe  Fe7       1.0  0.22344  0.52144  0.24330  1.0000
  S   S13       1.0  0.21304  0.56227  0.20709  1.0000
  Fe  Fe8       1.0  0.20931  0.47952  0.32179  1.0000
  S   S14       1.0  0.17734  0.47077  0.38333  1.0000
  S   S15       1.0  0.26170  0.49595  0.21429  1.0000
  S   S16       1.0  0.24634  0.45095  0.29878  1.0000
  C   C37       1.0  0.17476  0.36851  0.16083  1.0000
  C   C38       1.0  0.18063  0.39536  0.13227  1.0000
  H   H73       1.0  0.04347  0.42960  0.14861  1.0000
  C   C39       1.0  0.08395  0.50256  0.27007  1.0000
  H   H74       1.0  0.10052  0.51922  0.20868  1.0000
  H   H75       1.0  0.19552  0.42514  0.14043  1.0000
  H   H76       1.0  0.17111  0.40455  0.07139  1.0000
  C   C40       1.0  0.19960  0.59392  0.23574  1.0000
  C   C41       1.0  0.19699  0.62332  0.21653  1.0000
  C   C42       1.0  0.18850  0.65025  0.23914  1.0000
  C   C43       1.0  0.25171  0.46091  0.45854  1.0000
  C   C44       1.0  0.18256  0.61689  0.29987  1.0000
  C   C45       1.0  0.19224  0.59062  0.27746  1.0000
  H   H77       1.0  0.20153  0.62528  0.18414  1.0000
  H   H78       1.0  0.17656  0.61425  0.33203  1.0000
  H   H79       1.0  0.19372  0.56775  0.29243  1.0000
  C   C46       1.0  0.20032  0.46839  0.42672  1.0000
  C   C47       1.0  0.23578  0.46579  0.42369  1.0000
  C   C48       1.0  0.31514  0.56572  0.46137  1.0000
  H   H80       1.0  0.15446  0.46975  0.46768  1.0000
  C   C49       1.0  0.10343  0.41479  0.16740  1.0000
  H   H81       1.0  0.30005  0.59324  0.41494  1.0000
  H   H82       1.0  0.25043  0.46651  0.39443  1.0000
  C   C50       1.0  0.17544  0.61057  0.43538  1.0000
  H   H83       1.0  0.15874  0.45337  0.10714  1.0000
  H   H84       1.0  0.33806  0.66056  0.16526  1.0000
  C   C51       1.0  0.42667  0.64763  0.22612  1.0000
  C   C52       1.0  0.39758  0.61731  0.20560  1.0000
  C   C53       1.0  0.37346  0.58383  0.22555  1.0000
  C   C54       1.0  0.37926  0.58000  0.26573  1.0000
  C   C55       1.0  0.40878  0.61011  0.28608  1.0000
  C   C56       1.0  0.43205  0.64412  0.26652  1.0000
  H   H85       1.0  0.20402  0.53970  0.11612  1.0000
  H   H86       1.0  0.35098  0.56061  0.20960  1.0000
  H   H87       1.0  0.41348  0.60718  0.31710  1.0000
  C   C57       1.0  0.30016  0.65404  0.23583  1.0000
  H   H88       1.0  0.07366  0.63336  0.40833  1.0000
  H   H89       1.0  0.08045  0.44160  0.10963  1.0000
  H   H90       1.0  0.09806  0.44442  0.23424  1.0000
  H   H91       1.0  0.11320  0.57395  0.42498  1.0000
  C   C58       1.0  0.18183  0.46764  0.46503  1.0000
  H   H92       1.0  0.14521  0.51136  0.16400  1.0000
  H   H93       1.0  0.09676  0.53237  0.28177  1.0000
  H   H94       1.0  0.16374  0.48095  0.18023  1.0000
  C   C59       1.0  0.11458  0.33877  0.32738  1.0000
  H   H95       1.0  0.12053  0.39076  0.36107  1.0000
  H   H96       1.0  0.18442  0.38262  0.37184  1.0000
  C   C60       1.0  0.20303  0.36558  0.44032  1.0000
  C   C61       1.0  0.34623  0.60258  0.48050  1.0000
  C   C62       1.0  0.10429  0.50030  0.22938  1.0000
  C   C63       1.0  0.15929  0.48110  0.11545  1.0000
  H   H97       1.0  0.05519  0.49428  0.16364  1.0000
  H   H98       1.0  0.33842  0.57927  0.39925  1.0000
  N   N4        1.0  0.10205  0.45263  0.16969  1.0000
  H   H99       1.0  0.14030  0.64054  0.38928  1.0000
  H   H100      1.0  0.14210  0.48698  0.09374  1.0000
  H   H101      1.0  0.28527  0.63315  0.21138  1.0000
  H   H102      1.0  0.01488  0.46132  0.10517  1.0000
  C   C64       1.0  0.30838  0.63644  0.30688  1.0000
  H   H103      1.0  0.34017  0.62651  0.47292  1.0000
  N   N5        1.0  0.17099  0.63938  0.46472  1.0000
  H   H104      1.0  0.27849  0.45768  0.45577  1.0000
  H   H105      1.0  0.18962  0.37295  0.30084  1.0000
  C   C65       1.0  0.16277  0.35305  0.37873  1.0000
  H   H106      1.0  0.04162  0.37459  0.16031  1.0000
  C   C66       1.0  0.31811  0.63447  0.26161  1.0000
  H   H107      1.0  0.32457  0.54286  0.46150  1.0000
  C   C67       1.0  0.31035  0.57117  0.41727  1.0000
  H   H108      1.0  0.17408  0.54301  0.40627  1.0000
  C   C68       1.0  0.20175  0.51080  0.10999  1.0000
  C   C69       1.0  0.18110  0.64693  0.28083  1.0000
  H   H109      1.0  0.05626  0.44558  0.21589  1.0000
  H   H110      1.0  0.13588  0.51158  0.23446  1.0000
  C   C70       1.0  0.14721  0.54576  0.40036  1.0000
  H   H111      1.0  0.12228  0.51707  0.40058  1.0000
  H   H112      1.0  0.28836  0.54426  0.40404  1.0000
  H   H113      1.0  0.22043  0.50585  0.13075  1.0000
  H   H114      1.0  0.28603  0.55635  0.47735  1.0000
  C   C71       1.0  0.16679  0.38363  0.09321  1.0000
  C   C72       1.0  0.14739  0.34501  0.08197  1.0000
  H   H115      1.0  0.11055  0.40757  0.13602  1.0000
  H   H116      1.0  0.20081  0.60583  0.44316  1.0000
  H   H117      1.0  0.09692  0.41672  0.31096  1.0000
  H   H118      1.0  0.21295  0.50908  0.07853  1.0000
  H   H119      1.0  0.15169  0.39965  0.31617  1.0000
  H   H120      1.0  0.30592  0.60403  0.25216  1.0000
  C   C73       1.0  0.04456  0.48503  0.10074  1.0000
  H   H121      1.0  0.12726  0.41605  0.18587  1.0000
  C   C74       1.0  0.14296  0.48242  0.15935  1.0000
  H   H122      1.0  0.18263  0.62110  0.40428  1.0000
  C   C75       1.0  0.08879  0.45889  0.21247  1.0000
  H   H123      1.0  0.09852  0.51279  0.13019  1.0000
  H   H124      1.0  0.15056  0.55727  0.36994  1.0000
  C   C76       1.0  0.06972  0.48835  0.13582  1.0000
  C   C77       1.0  0.07342  0.45122  0.14003  1.0000
  C   C78       1.0  0.13698  0.66010  0.41288  1.0000
  H   H125      1.0  0.04155  0.51165  0.09894  1.0000
  H   H126      1.0  0.39338  0.61983  0.17431  1.0000
  H   H127      1.0  0.37430  0.60777  0.46366  1.0000
  C   C79       1.0  0.06519  0.38014  0.18099  1.0000
  C   C80       1.0  0.13960  0.57127  0.43275  1.0000
  H   H128      1.0  0.05838  0.48025  0.07174  1.0000
  C   C81       1.0  0.12238  0.38102  0.32929  1.0000
  H   H129      1.0  0.31885  0.61894  0.32278  1.0000
  H   H130      1.0  0.05219  0.49292  0.26683  1.0000
  H   H131      1.0  0.27630  0.62524  0.31313  1.0000
  H   H132      1.0  0.08048  0.33807  0.14930  1.0000
  H   H133      1.0  0.08822  0.48498  0.29233  1.0000
  C   C82       1.0  0.09867  0.66192  0.40629  1.0000
  H   H134      1.0  0.13875  0.35584  0.39760  1.0000
  C   C83       1.0  0.13704  0.64712  0.45582  1.0000
  H   H135      1.0  0.09433  0.34791  0.20117  1.0000
  H   H136      1.0  0.10883  0.62187  0.46205  1.0000
  H   H137      1.0  0.25144  0.37447  0.26506  1.0000
  H   H138      1.0  0.05482  0.38433  0.21207  1.0000
  H   H139      1.0  0.35013  0.64542  0.25696  1.0000
  C   C84       1.0  0.09211  0.38683  0.30670  1.0000
  H   H140      1.0  0.13341  0.55649  0.46162  1.0000
  H   H141      1.0  0.21237  0.35211  0.46297  1.0000
  C   C85       1.0  0.17860  0.34244  0.30637  1.0000
  H   H142      1.0  0.27557  0.65660  0.25364  1.0000
  C   C86       1.0  0.24166  0.34476  0.27386  1.0000
  H   H143      1.0  0.26750  0.65708  0.16231  1.0000
  H   H144      1.0  0.06204  0.36824  0.31848  1.0000
  C   C87       1.0  0.07147  0.34442  0.18030  1.0000
  H   H145      1.0  0.18437  0.37784  0.45613  1.0000
  H   H146      1.0  0.09511  0.38069  0.27392  1.0000
  H   H147      1.0  0.23255  0.35636  0.33636  1.0000
  H   H148      1.0  0.49159  0.61070  0.26497  1.0000
  H   H149      1.0  0.26792  0.34064  0.27889  1.0000
  C   C88       1.0  0.21518  0.33646  0.31239  1.0000
  C   C89       1.0  0.18089  0.33645  0.40780  1.0000
  H   H150      1.0  0.19120  0.34021  0.86842  1.0000
  Fe  Fe9       1.0  0.27441  0.53007  0.66135  1.0000
  S   S17       1.0  0.22772  0.50278  0.70935  1.0000
  S   S18       1.0  0.31482  0.59137  0.67326  1.0000
  Fe  Fe10      1.0  0.23768  0.46366  0.60273  1.0000
  S   S19       1.0  0.18733  0.43039  0.64645  1.0000
  S   S20       1.0  0.25056  0.44719  0.53869  1.0000
  Fe  Fe11      1.0  0.18644  0.48677  0.65999  1.0000
  S   S21       1.0  0.13320  0.49664  0.67445  1.0000
  Fe  Fe12      1.0  0.23258  0.44879  0.69342  1.0000
  S   S22       1.0  0.23752  0.42029  0.74967  1.0000
  S   S23       1.0  0.23255  0.51793  0.61282  1.0000
  S   S24       1.0  0.28354  0.47802  0.64856  1.0000
  C   C90       1.0  0.20599  0.37790  0.77472  1.0000
  C   C91       1.0  0.16197  0.64988  0.54212  1.0000
  H   H151      1.0  0.20505  0.55470  0.75888  1.0000
  C   C92       1.0  0.25507  0.60916  0.56860  1.0000
  H   H152      1.0  0.24539  0.60660  0.71521  1.0000
  C   C93       1.0  0.14338  0.54471  0.68237  1.0000
  C   C94       1.0  0.11882  0.55393  0.70930  1.0000
  C   C95       1.0  0.12768  0.59186  0.71893  1.0000
  C   C96       1.0  0.17560  0.57381  0.66298  1.0000
  H   H153      1.0  0.09351  0.53166  0.72376  1.0000
  H   H154      1.0  0.19437  0.56692  0.64164  1.0000
  C   C97       1.0  0.44523  0.64433  0.63776  1.0000
  C   C98       1.0  0.37960  0.64209  0.53828  1.0000
  C   C99       1.0  0.38684  0.64981  0.66318  1.0000
  C   C100      1.0  0.36486  0.61057  0.65939  1.0000
  C   C101      1.0  0.38306  0.58801  0.64479  1.0000
  C   C102      1.0  0.42331  0.60498  0.63378  1.0000
  C   C103      1.0  0.25929  0.65317  0.76100  1.0000
  C   C104      1.0  0.33640  0.53441  0.54537  1.0000
  H   H155      1.0  0.36620  0.55764  0.64200  1.0000
  H   H156      1.0  0.43744  0.58763  0.62225  1.0000
  H   H157      1.0  0.06527  0.35776  0.71754  1.0000
  H   H158      1.0  0.07917  0.40489  0.85504  1.0000
  H   H159      1.0  0.13159  0.47559  0.77278  1.0000
  H   H160      1.0  0.15187  0.41074  0.73003  1.0000
  H   H161      1.0  0.38672  0.57370  0.51003  1.0000
  C   C105      1.0  0.09827  0.51510  0.81167  1.0000
  C   C106      1.0  0.15422  0.63024  0.58229  1.0000
  H   H162      1.0  0.15685  0.40178  0.87088  1.0000
  C   C107      1.0  0.23248  0.45874  0.49666  1.0000
  H   H163      1.0  0.15409  0.65005  0.60749  1.0000
  C   C108      1.0  0.09712  0.36635  0.71274  1.0000
  H   H164      1.0  0.32067  0.53447  0.57484  1.0000
  H   H165      1.0  0.11963  0.40620  0.93397  1.0000
  H   H166      1.0  0.11350  0.36258  0.85304  1.0000
  H   H167      1.0  0.25274  0.52121  0.84836  1.0000
  H   H168      1.0  0.33498  0.48048  0.55810  1.0000
  H   H169      1.0  0.31245  0.65036  0.55166  1.0000
  H   H170      1.0  0.13816  0.65831  0.53951  1.0000
  C   C109      1.0  0.31243  0.59420  0.54921  1.0000
  H   H171      1.0  0.20798  0.63423  0.65593  1.0000
  H   H172      1.0  0.27413  0.60481  0.75476  1.0000
  H   H173      1.0  0.13110  0.49907  0.84947  1.0000
  H   H174      1.0  0.43471  0.63591  0.53343  1.0000
  H   H175      1.0  0.30248  0.65517  0.68583  1.0000
  C   C110      1.0  0.10569  0.48463  0.83048  1.0000
  C   C111      1.0  0.18687  0.34199  0.83698  1.0000
  H   H176      1.0  0.31701  0.59503  0.58209  1.0000
  H   H177      1.0  0.26027  0.65480  0.79442  1.0000
  H   H178      1.0  0.13422  0.59783  0.50838  1.0000
  H   H179      1.0  0.37950  0.64480  0.57191  1.0000
  C   C112      1.0  0.21278  0.58399  0.77041  1.0000
  H   H180      1.0  0.24858  0.50091  0.79786  1.0000
  C   C113      1.0  0.18341  0.61197  0.67119  1.0000
  C   C114      1.0  0.36633  0.57531  0.53501  1.0000
  H   H181      1.0  0.33260  0.65394  0.74071  1.0000
  H   H182      1.0  0.10352  0.34295  0.72129  1.0000
  H   H183      1.0  0.38417  0.58567  0.56198  1.0000
  C   C115      1.0  0.16009  0.62107  0.70018  1.0000
  H   H184      1.0  0.18799  0.59051  0.76554  1.0000
  C   C116      1.0  0.35686  0.50916  0.54915  1.0000
  C   C117      1.0  0.29314  0.62068  0.54283  1.0000
  H   H185      1.0  0.08288  0.44204  0.78417  1.0000
  H   H186      1.0  0.37144  0.50640  0.51982  1.0000
  H   H187      1.0  0.11804  0.36002  0.92557  1.0000
  C   C118      1.0  0.23708  0.49518  0.82967  1.0000
  H   H188      1.0  0.10952  0.59861  0.74136  1.0000
  H   H189      1.0  0.12081  0.44254  0.87507  1.0000
  C   C119      1.0  0.25002  0.61168  0.74800  1.0000
  H   H190      1.0  0.17285  0.34882  0.72349  1.0000
  H   H191      1.0  0.18105  0.45650  0.77498  1.0000
  H   H192      1.0  0.18289  0.46148  0.52912  1.0000
  H   H193      1.0  0.10524  0.37146  0.68014  1.0000
  H   H194      1.0  0.24321  0.47228  0.84040  1.0000
  C   C120      1.0  0.17080  0.44812  0.80653  1.0000
  H   H195      1.0  0.17731  0.62128  0.58698  1.0000
  H   H196      1.0  0.28610  0.61949  0.51085  1.0000
  H   H197      1.0  0.12415  0.53338  0.79254  1.0000
  H   H198      1.0  0.23322  0.58042  0.55932  1.0000
  H   H199      1.0  0.12293  0.37581  0.79025  1.0000
  C   C121      1.0  0.11192  0.45784  0.79758  1.0000
  H   H200      1.0  0.18905  0.50790  0.82263  1.0000
  H   H201      1.0  0.12535  0.60504  0.58324  1.0000
  H   H202      1.0  0.23364  0.39844  0.83120  1.0000
  C   C122      1.0  0.42275  0.65452  0.52256  1.0000
  C   C123      1.0  0.19318  0.48379  0.83308  1.0000
  C   C124      1.0  0.21096  0.37496  0.81572  1.0000
  N   N6        1.0  0.12685  0.43069  0.81082  1.0000
  H   H203      1.0  0.18134  0.42692  0.81209  1.0000
  H   H204      1.0  0.37880  0.52090  0.57260  1.0000
  C   C125      1.0  0.11105  0.39581  0.78333  1.0000
  H   H205      1.0  0.18353  0.47913  0.86535  1.0000
  H   H206      1.0  0.31447  0.52142  0.52232  1.0000
  H   H207      1.0  0.09276  0.53317  0.83579  1.0000
  H   H208      1.0  0.21708  0.58549  0.80324  1.0000
  N   N7        1.0  0.35046  0.60277  0.52530  1.0000
  H   H209      1.0  0.07234  0.50201  0.79295  1.0000
  C   C126      1.0  0.12039  0.40247  0.73740  1.0000
  H   H210      1.0  0.26043  0.60945  0.60108  1.0000
  H   H211      1.0  0.29663  0.33241  0.76926  1.0000
  H   H212      1.0  0.23355  0.65778  0.75441  1.0000
  C   C127      1.0  0.11176  0.41813  0.85333  1.0000
  H   H213      1.0  0.07602  0.36700  0.91568  1.0000
  H   H214      1.0  0.07975  0.46811  0.85057  1.0000
  C   C128      1.0  0.12456  0.38977  0.87062  1.0000
  H   H215      1.0  0.18531  0.61322  0.51234  1.0000
  C   C129      1.0  0.19798  0.46313  0.49992  1.0000
  H   H216      1.0  0.07868  0.38026  0.78843  1.0000
  H   H217      1.0  0.29003  0.56500  0.54262  1.0000
  H   H218      1.0  0.11337  0.42487  0.72709  1.0000
  C   C130      1.0  0.16303  0.62311  0.50630  1.0000
  H   H219      1.0  0.42558  0.65419  0.48914  1.0000
  H   H220      1.0  0.24281  0.62949  0.56474  1.0000
  C   C131      1.0  0.10849  0.38034  0.91410  1.0000
  C   C132      1.0  0.17674  0.34720  0.75509  1.0000
  H   H221      1.0  0.37136  0.66384  0.52823  1.0000
  H   H222      1.0  0.36914  0.70747  0.26516  1.0000
  H   H223      1.0  0.34425  0.81288  0.03280  1.0000
  Fe  Fe13      1.0  0.23673  0.81616  0.32695  1.0000
  S   S25       1.0  0.25250  0.84647  0.26777  1.0000
  S   S26       1.0  0.25629  0.84106  0.38930  1.0000
  Fe  Fe14      1.0  0.19638  0.73867  0.28744  1.0000
  S   S27       1.0  0.20800  0.76071  0.22489  1.0000
  C   C133      1.0  0.32836  0.73204  0.28141  1.0000
  Fe  Fe15      1.0  0.26785  0.79966  0.24498  1.0000
  S   S28       1.0  0.31778  0.80606  0.20066  1.0000
  Fe  Fe16      1.0  0.19155  0.80625  0.25055  1.0000
  S   S29       1.0  0.14894  0.81780  0.21503  1.0000
  S   S30       1.0  0.25784  0.77331  0.30501  1.0000
  S   S31       1.0  0.17432  0.78027  0.31211  1.0000
  Fe  Fe17      1.0  0.14643  0.92633  0.01945  1.0000
  S   S32       1.0  0.18476  0.93186  0.07162  1.0000
  H   H224      1.0  0.20274  0.69986  0.47656  1.0000
  C   C134      1.0  0.15939  0.85003  0.17551  1.0000
  C   C135      1.0  0.19393  0.88369  0.17306  1.0000
  C   C136      1.0  0.20100  0.90852  0.14135  1.0000
  C   C137      1.0  0.17356  0.90020  0.11179  1.0000
  C   C138      1.0  0.13873  0.86680  0.11455  1.0000
  C   C139      1.0  0.13168  0.84200  0.14631  1.0000
  H   H225      1.0  0.21490  0.89086  0.19599  1.0000
  H   H226      1.0  0.22783  0.93445  0.13981  1.0000
  H   H227      1.0  0.11721  0.86008  0.09225  1.0000
  H   H228      1.0  0.10459  0.81634  0.14820  1.0000
  C   C140      1.0  0.23380  0.81081  0.43014  1.0000
  H   H229      1.0  0.41644  0.83753  0.46152  1.0000
  H   H230      1.0  0.12770  0.72913  0.14479  1.0000
  N   N8        1.0  0.44795  0.80665  0.43583  1.0000
  C   C141      1.0  0.19647  0.78078  0.42744  1.0000
  C   C142      1.0  0.36378  0.82919  0.40441  1.0000
  H   H231      1.0  0.40941  0.73659  0.18141  1.0000
  H   H232      1.0  0.18176  0.77485  0.39952  1.0000
  C   C143      1.0  0.22969  0.84554  0.07391  1.0000
  C   C144      1.0  0.43512  0.84251  0.25711  1.0000
  C   C145      1.0  0.40572  0.84983  0.27785  1.0000
  C   C146      1.0  0.36932  0.83818  0.26103  1.0000
  C   C147      1.0  0.36291  0.82074  0.22262  1.0000
  C   C148      1.0  0.39269  0.81439  0.20144  1.0000
  C   C149      1.0  0.42839  0.82437  0.21906  1.0000
  H   H233      1.0  0.41093  0.86413  0.30716  1.0000
  H   H234      1.0  0.34654  0.84338  0.27745  1.0000
  H   H235      1.0  0.38805  0.80150  0.17149  1.0000
  H   H236      1.0  0.45114  0.81909  0.20273  1.0000
  H   H237      1.0  0.16491  0.84452  0.03735  1.0000
  C   C150      1.0  0.48489  0.84200  0.42553  1.0000
  C   C151      1.0  0.28560  0.68779  0.15857  1.0000
  H   H238      1.0  0.30161  0.70817  0.29352  1.0000
  C   C152      1.0  0.23347  0.68713  0.42447  1.0000
  H   H239      1.0  0.31820  0.88291  0.19031  1.0000
  H   H240      1.0  0.37751  0.69145  0.10274  1.0000
  H   H241      1.0  0.28569  0.73014  0.45189  1.0000
  Fe  Fe18      1.0  0.06500  0.91014  0.99391  1.0000
  H   H242      1.0  0.38628  0.78956  0.44977  1.0000
  H   H243      1.0  0.36396  0.84941  0.42926  1.0000
  C   C153      1.0  0.44344  0.77481  0.40579  1.0000
  H   H244      1.0  0.47022  0.77021  0.40466  1.0000
  H   H245      1.0  0.40185  0.80827  0.37354  1.0000
  C   C154      1.0  0.30449  0.70748  0.19847  1.0000
  H   H246      1.0  0.45450  0.66734  0.28254  1.0000
  H   H247      1.0  0.16074  0.68902  0.40858  1.0000
  C   C155      1.0  0.21358  0.82935  0.03207  1.0000
  H   H248      1.0  0.20982  0.88035  0.01532  1.0000
  S   S33       1.0  0.09489  0.87306  0.00139  1.0000
  C   C156      1.0  0.20867  0.67570  0.46497  1.0000
  C   C157      1.0  0.40789  0.70607  0.38192  1.0000
  H   H249      1.0  0.41364  0.68702  0.13126  1.0000
  H   H250      1.0  0.16185  0.83149  0.41688  1.0000
  H   H251      1.0  0.14761  0.73764  0.45960  1.0000
  H   H252      1.0  0.04836  0.98382  0.08606  1.0000
  H   H253      1.0  0.48246  0.86764  0.43857  1.0000
  H   H254      1.0  0.31925  0.75147  0.26730  1.0000
  S   S34       1.0  0.48044  0.85736  0.27866  1.0000
  C   C158      1.0  0.40785  0.73598  0.41345  1.0000
  H   H255      1.0  0.19342  0.79878  0.03289  1.0000
  H   H256      1.0  0.42570  0.85652  0.39250  1.0000
  H   H257      1.0  0.27746  0.73548  0.13890  1.0000
  S   S35       1.0  0.11482  0.96280  0.01678  1.0000
  C   C159      1.0  0.25980  0.70483  0.14435  1.0000
  C   C160      1.0  0.17718  0.75956  0.46153  1.0000
  H   H258      1.0  0.44141  0.78223  0.37470  1.0000
  H   H259      1.0  0.40635  0.71444  0.35109  1.0000
  H   H260      1.0  0.13588  0.66984  0.47662  1.0000
  C   C161      1.0  0.15526  0.73371  0.12722  1.0000
  H   H261      1.0  0.35784  0.83883  0.37606  1.0000
  H   H262      1.0  0.31762  0.88999  0.11622  1.0000
  H   H263      1.0  0.23449  0.84343  0.15379  1.0000
  H   H264      1.0  0.23591  0.70134  0.16730  1.0000
  C   C162      1.0  0.29133  0.88589  0.13573  1.0000
  H   H265      1.0  0.29983  0.85611  0.05545  1.0000
  H   H266      1.0  0.16205  0.87747  0.42188  1.0000
  H   H267      1.0  0.16451  0.78798  0.10793  1.0000
  H   H268      1.0  0.18562  0.78838  0.15468  1.0000
  H   H269      1.0  0.38148  0.77616  0.30581  1.0000
  C   C163      1.0  0.18107  0.77617  0.12367  1.0000
  H   H270      1.0  0.28398  0.73417  0.39829  1.0000
  H   H271      1.0  0.33971  0.80083  0.41084  1.0000
  C   C164      1.0  0.25255  0.81801  0.46667  1.0000
  H   H272      1.0  0.30725  0.82901  0.09175  1.0000
  H   H273      1.0  0.37432  0.74497  0.23574  1.0000
  H   H274      1.0  0.09368  0.68145  0.42890  1.0000
  S   S36       1.0  0.45553  0.68960  0.20048  1.0000
  H   H275      1.0  0.37110  0.73647  0.15329  1.0000
  C   C165      1.0  0.30507  0.90006  0.17816  1.0000
  C   C166      1.0  0.35191  0.71876  0.24964  1.0000
  H   H276      1.0  0.23516  0.77052  0.11748  1.0000
  C   C167      1.0  0.22064  0.78405  0.10075  1.0000
  H   H277      1.0  0.11674  0.83550  0.41592  1.0000
  H   H278      1.0  0.21297  0.76790  0.07171  1.0000
  H   H279      1.0  0.33720  0.76704  0.33598  1.0000
  H   H280      1.0  0.32275  0.73784  0.19244  1.0000
  N   N9        1.0  0.24852  0.82514  0.09436  1.0000
  C   C168      1.0  0.14550  0.84728  0.42981  1.0000
  H   H281      1.0  0.24654  0.69033  0.11583  1.0000
  H   H282      1.0  0.20575  0.84711  0.09383  1.0000
  H   H283      1.0  0.27115  0.82755  0.15275  1.0000
  H   H284      1.0  0.17023  0.72036  0.14325  1.0000
  H   H285      1.0  0.35828  0.73418  0.33536  1.0000
  C   C169      1.0  0.26010  0.84384  0.13548  1.0000
  H   H286      1.0  0.42428  0.73151  0.10954  1.0000
  H   H287      1.0  0.43487  0.70211  0.38311  1.0000
  C   C170      1.0  0.28543  0.82855  0.07085  1.0000
  H   H288      1.0  0.47427  0.84677  0.36224  1.0000
  H   H289      1.0  0.14778  0.71990  0.09689  1.0000
  H   H290      1.0  0.28158  0.84099  0.46891  1.0000
  H   H291      1.0  0.04005  0.98289  0.01816  1.0000
  C   C171      1.0  0.28164  0.79671  0.03911  1.0000
  C   C172      1.0  0.40093  0.70628  0.12421  1.0000
  H   H292      1.0  0.32755  0.92995  0.17733  1.0000
  H   H293      1.0  0.31650  0.78366  0.99180  1.0000
  H   H294      1.0  0.25081  0.87557  0.06917  1.0000
  H   H295      1.0  0.28030  0.89871  0.19872  1.0000
  H   H296      1.0  0.38223  0.67857  0.38791  1.0000
  H   H297      1.0  0.27898  0.90431  0.12516  1.0000
  H   H298      1.0  0.28041  0.70708  0.21987  1.0000
  S   S37       1.0  0.47467  0.75972  0.29446  1.0000
  C   C173      1.0  0.35513  0.68393  0.18671  1.0000
  H   H299      1.0  0.27532  0.77028  0.05467  1.0000
  N   N10       1.0  0.32809  0.69118  0.21763  1.0000
  C   C174      1.0  0.26632  0.72729  0.42730  1.0000
  H   H300      1.0  0.25394  0.74793  0.43305  1.0000
  C   C175      1.0  0.35298  0.75365  0.31678  1.0000
  H   H301      1.0  0.24727  0.66779  0.41683  1.0000
  C   C176      1.0  0.38449  0.71863  0.16260  1.0000
  H   H302      1.0  0.40850  0.72512  0.44319  1.0000
  C   C177      1.0  0.41266  0.81460  0.43859  1.0000
  H   H303      1.0  0.30825  0.69144  0.13414  1.0000
  S   S38       1.0  0.00391  0.89727  0.01950  1.0000
  H   H304      1.0  0.18085  0.83828  0.98635  1.0000
  C   C178      1.0  0.40316  0.82757  0.39954  1.0000
  H   H305      1.0  0.32659  0.83288  0.99599  1.0000
  H   H306      1.0  0.38004  0.73825  0.41186  1.0000
  C   C179      1.0  0.31966  0.80731  0.01343  1.0000
  H   H307      1.0  0.23815  0.83405  0.00967  1.0000
  H   H308      1.0  0.25794  0.79050  0.01852  1.0000
  H   H309      1.0  0.18654  0.67295  0.22429  1.0000
  S   S39       1.0  0.16851  0.67906  0.30954  1.0000
  H   H310      1.0  0.37337  0.67343  0.20125  1.0000
  C   C180      1.0  0.19098  0.84941  0.01700  1.0000
  C   C181      1.0  0.45214  0.79448  0.47670  1.0000
  H   H311      1.0  0.21584  0.68573  0.39895  1.0000
  H   H312      1.0  0.10553  0.98033  0.11117  1.0000
  H   H313      1.0  0.48702  0.70126  0.10808  1.0000
  H   H314      1.0  0.10010  0.67258  0.37573  1.0000
  H   H315      1.0  0.47491  0.78382  0.47439  1.0000
  C   C182      1.0  0.13940  0.84352  0.47559  1.0000
  H   H316      1.0  0.00338  0.81420  0.00957  1.0000
  H   H317      1.0  0.32321  0.66580  0.31911  1.0000
  H   H318      1.0  0.20075  0.88240  0.47970  1.0000
  H   H319      1.0  0.12101  0.81310  0.48169  1.0000
  H   H320      1.0  0.22891  0.67408  0.48647  1.0000
  H   H321      1.0  0.44359  0.69692  0.65629  1.0000
  H   H322      1.0  0.26304  0.66728  0.68840  1.0000
  H   H323      1.0  0.39280  0.80564  0.74865  1.0000
  Fe  Fe19      1.0  0.27042  0.78439  0.64535  1.0000
  S   S40       1.0  0.24065  0.77499  0.70732  1.0000
  S   S41       1.0  0.33349  0.80895  0.62296  1.0000
  Fe  Fe20      1.0  0.19515  0.75469  0.60210  1.0000
  S   S42       1.0  0.15784  0.74212  0.66003  1.0000
  S   S43       1.0  0.16872  0.74163  0.54088  1.0000
  Fe  Fe21      1.0  0.20207  0.79819  0.68377  1.0000
  S   S44       1.0  0.18599  0.84303  0.71478  1.0000
  Fe  Fe22      1.0  0.19818  0.71939  0.67992  1.0000
  H   H324      1.0  0.02243  0.84349  0.94397  1.0000
  S   S45       1.0  0.23600  0.81263  0.62378  1.0000
  S   S46       1.0  0.23135  0.72678  0.62011  1.0000
  S   S47       1.0  0.08445  0.92027  0.92897  1.0000
  H   H325      1.0  0.46706  0.84011  0.89908  1.0000
  Fe  Fe23      1.0  0.11876  0.88747  0.93724  1.0000
  S   S48       1.0  0.11676  0.83775  0.89661  1.0000
  H   H326      1.0  0.32582  0.67217  0.78886  1.0000
  C   C183      1.0  0.00212  0.79078  0.90625  1.0000
  C   C184      1.0  0.16765  0.84131  0.76575  1.0000
  C   C185      1.0  0.16689  0.87394  0.78460  1.0000
  C   C186      1.0  0.15213  0.87358  0.82484  1.0000
  C   C187      1.0  0.13719  0.84028  0.84643  1.0000
  C   C188      1.0  0.13747  0.80752  0.82743  1.0000
  C   C189      1.0  0.15293  0.80807  0.78747  1.0000
  H   H327      1.0  0.17823  0.89980  0.76812  1.0000
  H   H328      1.0  0.15239  0.89906  0.83911  1.0000
  H   H329      1.0  0.12599  0.78160  0.84383  1.0000
  H   H330      1.0  0.15316  0.78271  0.77335  1.0000
  H   H331      1.0  0.13755  0.89005  0.55629  1.0000
  H   H332      1.0  0.19008  0.67578  0.54367  1.0000
  H   H333      1.0  0.33322  0.72659  0.60738  1.0000
  H   H334      1.0  0.28709  0.68560  0.61532  1.0000
  H   H335      1.0  0.21788  0.84318  0.55409  1.0000
  C   C190      1.0  0.31677  0.71258  0.67014  1.0000
  C   C191      1.0  0.42952  0.80727  0.69572  1.0000
  C   C192      1.0  0.43384  0.81002  0.65390  1.0000
  C   C193      1.0  0.40434  0.81122  0.63230  1.0000
  C   C194      1.0  0.37002  0.80923  0.65227  1.0000
  C   C195      1.0  0.36586  0.80755  0.69438  1.0000
  C   C196      1.0  0.39581  0.80681  0.71615  1.0000
  H   H336      1.0  0.46029  0.81179  0.63834  1.0000
  H   H337      1.0  0.40788  0.81349  0.59991  1.0000
  H   H338      1.0  0.33976  0.80701  0.71000  1.0000
  C   C197      1.0  0.33056  0.67887  0.75628  1.0000
  H   H339      1.0  0.37270  0.73847  0.76769  1.0000
  C   C198      1.0  0.29711  0.72119  0.75439  1.0000
  H   H340      1.0  0.38047  0.71904  0.71932  1.0000
  C   C199      1.0  0.23374  0.79579  0.50043  1.0000
  H   H341      1.0  0.12301  0.85958  0.48737  1.0000
  C   C200      1.0  0.37162  0.71272  0.75133  1.0000
  C   C201      1.0  0.29532  0.72972  0.80040  1.0000
  H   H342      1.0  0.16789  0.82866  0.61859  1.0000
  H   H343      1.0  0.03072  0.78939  0.90590  1.0000
  C   C202      1.0  0.28963  0.89985  0.55512  1.0000
  H   H344      1.0  0.11647  0.82602  0.55028  1.0000
  C   C203      1.0  0.30366  0.77105  0.80908  1.0000
  H   H345      1.0  0.27201  0.72353  0.74174  1.0000
  H   H346      1.0  0.32363  0.74453  0.74119  1.0000
  H   H347      1.0  0.39652  0.69838  0.80099  1.0000
  H   H348      1.0  0.31684  0.92253  0.54182  1.0000
  C   C204      1.0  0.06869  0.90407  0.82183  1.0000
  H   H349      1.0  0.01724  0.97180  0.94741  1.0000
  H   H350      1.0  0.21624  0.87767  0.59015  1.0000
  Fe  Fe24      1.0  0.13642  0.97090  0.95188  1.0000
  N   N11       1.0  0.29624  0.68345  0.74197  1.0000
  S   S49       1.0  0.46594  0.80375  0.72220  1.0000
  H   H351      1.0  0.26562  0.71201  0.81375  1.0000
  H   H352      1.0  0.31687  0.72407  0.81583  1.0000
  H   H353      1.0  0.40388  0.67885  0.75206  1.0000
  C   C205      1.0  0.47170  0.81087  0.54891  1.0000
  H   H354      1.0  0.19110  0.98863  0.51747  1.0000
  H   H355      1.0  0.02134  0.98223  0.79965  1.0000
  H   H356      1.0  0.44106  0.71552  0.52426  1.0000
  N   N12       1.0  0.17771  0.86527  0.54085  1.0000
  S   S50       1.0  0.17262  0.93887  0.95556  1.0000
  H   H357      1.0  0.28998  0.87220  0.54732  1.0000
  C   C206      1.0  0.46283  0.82518  0.51126  1.0000
  H   H358      1.0  0.14893  0.80472  0.54923  1.0000
  H   H359      1.0  0.30104  0.77624  0.84211  1.0000
  H   H360      1.0  0.33371  0.79028  0.79783  1.0000
  H   H361      1.0  0.28233  0.77774  0.79438  1.0000
  C   C207      1.0  0.16962  0.89897  0.55212  1.0000
  H   H362      1.0  0.05389  0.85130  0.87988  1.0000
  H   H363      1.0  0.25600  0.92968  0.54641  1.0000
  C   C208      1.0  0.18509  0.93160  0.52186  1.0000
  H   H364      1.0  0.45160  0.78960  0.89235  1.0000
  H   H365      1.0  0.10567  0.79705  0.65596  1.0000
  H   H366      1.0  0.43398  0.81347  0.86048  1.0000
  H   H367      1.0  0.30250  0.73188  0.67342  1.0000
  C   C209      1.0  0.21566  0.87043  0.55725  1.0000
  C   C210      1.0  0.18072  0.96614  0.54007  1.0000
  H   H368      1.0  0.10613  0.77000  0.61042  1.0000
  H   H369      1.0  0.48104  0.83381  0.57253  1.0000
  H   H370      1.0  0.24842  0.80144  0.52839  1.0000
  H   H371      1.0  0.14155  0.85696  0.61963  1.0000
  H   H372      1.0  0.02085  0.72340  0.79616  1.0000
  C   C211      1.0  0.29384  0.67767  0.69664  1.0000
  C   C212      1.0  0.44881  0.69471  0.53754  1.0000
  H   H373      1.0  0.09453  0.91202  0.84008  1.0000
  H   H374      1.0  0.37284  0.66736  0.67401  1.0000
  C   C213      1.0  0.45968  0.81629  0.87656  1.0000
  H   H375      1.0  0.43822  0.83246  0.51945  1.0000
  H   H376      1.0  0.34733  0.72877  0.67825  1.0000
  H   H377      1.0  0.03728  0.78571  0.83454  1.0000
  H   H378      1.0  0.43187  0.72838  0.76406  1.0000
  H   H379      1.0  0.07941  0.91399  0.79076  1.0000
  C   C214      1.0  0.14256  0.83076  0.60676  1.0000
  C   C215      1.0  0.10602  0.79688  0.62249  1.0000
  C   C216      1.0  0.14554  0.83052  0.55990  1.0000
  H   H380      1.0  0.07919  0.79821  0.61371  1.0000
  H   H381      1.0  0.48913  0.85150  0.50325  1.0000
  C   C217      1.0  0.19546  0.76726  0.49826  1.0000
  C   C218      1.0  0.02758  0.84609  0.86350  1.0000
  H   H382      1.0  0.18131  0.91122  0.58209  1.0000
  H   H383      1.0  0.28943  0.90419  0.58846  1.0000
  H   H384      1.0  0.44555  0.78594  0.56049  1.0000
  C   C219      1.0  0.49409  0.82377  0.84611  1.0000
  H   H385      1.0  0.47975  0.70172  0.52869  1.0000
  C   C220      1.0  0.04422  0.86118  0.82067  1.0000
  H   H386      1.0  0.48458  0.79967  0.82394  1.0000
  H   H387      1.0  0.16824  0.92249  0.49422  1.0000
  H   H388      1.0  0.05110  0.91857  0.83486  1.0000
  C   C221      1.0  0.25402  0.90122  0.53843  1.0000
  C   C222      1.0  0.00643  0.78147  0.83329  1.0000
  H   H389      1.0  0.44607  0.69702  0.57094  1.0000
  C   C223      1.0  0.40273  0.70387  0.76826  1.0000
  C   C224      1.0  0.31736  0.70091  0.62555  1.0000
  S   S51       1.0  0.17316  0.66786  0.71842  1.0000
  H   H390      1.0  0.06371  0.84846  0.80813  1.0000
  H   H391      1.0  0.00463  0.79090  0.80312  1.0000
  H   H392      1.0  0.02097  0.85431  0.79937  1.0000
  H   H393      1.0  0.33260  0.68256  0.62045  1.0000
  H   H394      1.0  0.01561  0.86488  0.87881  1.0000
  H   H395      1.0  0.21620  0.94070  0.51239  1.0000
  C   C225      1.0  0.17889  0.85740  0.49590  1.0000
  H   H396      1.0  0.19849  0.97754  0.56699  1.0000
  H   H397      1.0  0.14959  0.95862  0.54887  1.0000
  H   H398      1.0  0.18915  0.83529  0.48912  1.0000
  H   H399      1.0  0.25648  0.89748  0.50521  1.0000
  H   H400      1.0  0.02035  0.97127  0.85199  1.0000
  C   C226      1.0  0.00302  0.96421  0.82469  1.0000
  H   H401      1.0  0.03247  0.79477  0.98058  1.0000
  H   H402      1.0  0.42452  0.77069  0.48763  1.0000
  C   C227      1.0  0.00409  0.79642  0.98255  1.0000
  H   H403      1.0  0.99890  0.89853  0.93243  1.0000
  C   C228      1.0  0.42694  0.66663  0.65282  1.0000
  C   C229      1.0  0.99934  0.81397  0.94483  1.0000
  N   N13       1.0  0.99790  0.80504  0.86654  1.0000
  H   H404      1.0  0.92624  0.06231  0.04102  1.0000
  C   C230      1.0  0.71384  0.99925  0.11783  1.0000
  H   H405      1.0  0.97777  0.12318  0.01491  1.0000
  C   C231      1.0  0.92223  0.07306  0.01345  1.0000
  H   H406      1.0  0.75588  0.07732  0.12877  1.0000
  S   S52       1.0  0.84946  0.01197  0.01505  1.0000
  C   C232      1.0  0.88743  0.05291  0.99326  1.0000
  H   H407      1.0  0.77652  0.02857  0.10142  1.0000
  C   C233      1.0  0.75196  0.06731  0.09672  1.0000
  H   H408      1.0  0.72541  0.06820  0.08630  1.0000
  H   H409      1.0  0.77770  0.08689  0.07828  1.0000
  H   H410      1.0  0.72089  0.00874  0.14959  1.0000
  H   H411      1.0  0.74597  0.01935  0.05914  1.0000
  H   H412      1.0  0.68775  0.00386  0.11316  1.0000
  C   C234      1.0  0.74876  0.02727  0.09169  1.0000
  C   C235      1.0  0.95148  0.10755  0.99872  1.0000
  H   H413      1.0  0.94181  0.00611  0.98588  1.0000
  H   H414      1.0  0.99125  0.03416  0.04763  1.0000
  S   S53       1.0  0.97909  0.16787  0.94665  1.0000
  H   H415      1.0  0.98857  0.02727  0.81536  1.0000
  H   H416      1.0  0.91614  0.02568  0.91970  1.0000
  H   H417      1.0  0.85549  0.05243  0.94244  1.0000
  H   H418      1.0  0.92657  0.06659  0.86286  1.0000
  C   C236      1.0  0.95156  0.06044  0.85181  1.0000
  N   N14       1.0  0.94321  0.02058  0.86187  1.0000
  C   C237      1.0  0.91113  0.10218  0.94377  1.0000
  C   C238      1.0  0.88233  0.06734  0.95794  1.0000
  C   C239      1.0  0.93999  0.01849  0.90728  1.0000
  H   H419      1.0  0.95437  0.06350  0.81855  1.0000
  H   H420      1.0  0.96710  0.03969  0.92085  1.0000
  H   H421      1.0  0.90624  0.11378  0.91726  1.0000
  C   C240      1.0  0.94561  0.12271  0.96428  1.0000
  H   H422      1.0  0.98568  0.09679  0.90156  1.0000
  H   H423      1.0  0.97248  0.13718  0.85565  1.0000
  C   C241      1.0  0.98922  0.09284  0.86844  1.0000
  C   C242      1.0  0.97609  0.01203  0.84396  1.0000
  H   H424      1.0  0.89587  0.02292  0.79504  1.0000
  H   H425      1.0  0.88067  0.00041  0.86189  1.0000
  H   H426      1.0  0.92600  0.99915  0.78169  1.0000
  H   H427      1.0  0.56080  0.62274  0.05558  1.0000
  H   H428      1.0  0.53904  0.60725  0.14569  1.0000
  H   H429      1.0  0.50907  0.62667  0.19383  1.0000
  C   C243      1.0  0.55418  0.60541  0.08274  1.0000
  H   H430      1.0  0.53575  0.60640  0.24966  1.0000
  H   H431      1.0  0.52781  0.57838  0.07749  1.0000
  C   C244      1.0  0.54646  0.62631  0.11998  1.0000
  H   H432      1.0  0.53798  0.64710  0.27998  1.0000
  C   C245      1.0  0.52293  0.62674  0.25521  1.0000
  C   C246      1.0  0.52628  0.64770  0.21688  1.0000
  H   H433      1.0  0.52088  0.63125  0.11431  1.0000
  H   H434      1.0  0.57905  0.59880  0.08712  1.0000
  H   H435      1.0  0.60567  0.65503  0.13664  1.0000
  H   H436      1.0  0.58505  0.65310  0.20357  1.0000
  C   C247      1.0  0.58301  0.66365  0.12886  1.0000
  H   H437      1.0  0.69447  0.62439  0.67657  1.0000
  H   H438      1.0  0.58364  0.63443  0.68977  1.0000
  H   H439      1.0  0.54220  0.65073  0.75732  1.0000
  H   H440      1.0  0.63860  0.63367  0.65168  1.0000
  H   H441      1.0  0.51756  0.62667  0.71203  1.0000
  C   C248      1.0  0.56122  0.62958  0.56854  1.0000
  H   H442      1.0  0.58538  0.63353  0.54575  1.0000
  H   H443      1.0  0.58707  0.61376  0.61465  1.0000
  C   C249      1.0  0.57550  0.63466  0.61124  1.0000
  H   H444      1.0  0.54969  0.62789  0.63259  1.0000
  H   H445      1.0  0.54960  0.65022  0.56344  1.0000
  H   H446      1.0  0.53734  0.60063  0.56430  1.0000
  C   C250      1.0  0.53268  0.65458  0.72789  1.0000
  C   C251      1.0  0.71100  0.65561  0.68028  1.0000
  H   H447      1.0  0.66634  0.66218  0.71784  1.0000
  C   C252      1.0  0.65518  0.66499  0.65420  1.0000
  H   H448      1.0  0.73041  0.66198  0.70578  1.0000
  Fe  Fe25      1.0  0.57786  0.80336  0.23941  1.0000
  S   S54       1.0  0.56409  0.82901  0.29745  1.0000
  S   S55       1.0  0.63960  0.82718  0.21019  1.0000
  H   H449      1.0  0.57056  0.82638  0.39850  1.0000
  C   C253      1.0  0.80451  0.95132  0.10694  1.0000
  Fe  Fe26      1.0  0.53180  0.76952  0.31885  1.0000
  C   C254      1.0  0.69394  0.94394  0.06914  1.0000
  H   H450      1.0  0.71306  0.85269  0.16499  1.0000
  S   S56       1.0  0.55023  0.74454  0.26341  1.0000
  H   H451      1.0  0.65990  0.70401  0.15258  1.0000
  C   C255      1.0  0.61539  0.72542  0.16333  1.0000
  S   S57       1.0  0.68395  0.84428  0.02144  1.0000
  C   C256      1.0  0.54391  0.77180  0.42541  1.0000
  H   H452      1.0  0.71859  0.95899  0.04723  1.0000
  H   H453      1.0  0.73155  0.85966  0.09157  1.0000
  C   C257      1.0  0.56385  0.81132  0.42629  1.0000
  H   H454      1.0  0.59210  0.81098  0.14009  1.0000
  H   H455      1.0  0.92426  0.88114  0.03966  1.0000
  C   C258      1.0  0.67241  0.83941  0.07405  1.0000
  C   C259      1.0  0.63300  0.82529  0.08809  1.0000
  C   C260      1.0  0.62246  0.82146  0.12967  1.0000
  C   C261      1.0  0.65125  0.83134  0.15761  1.0000
  C   C262      1.0  0.69059  0.84512  0.14356  1.0000
  C   C263      1.0  0.70118  0.84921  0.10199  1.0000
  H   H456      1.0  0.61052  0.81758  0.06668  1.0000
  C   C264      1.0  0.93236  0.96627  0.07429  1.0000
  H   H457      1.0  0.98405  0.95801  0.07729  1.0000
  S   S58       1.0  0.52422  0.79664  0.20955  1.0000
  H   H458      1.0  0.68840  0.91378  0.06571  1.0000
  C   C265      1.0  0.73815  0.95074  0.12340  1.0000
  H   H459      1.0  0.50797  0.82731  0.36822  1.0000
  H   H460      1.0  0.69455  0.77410  0.14975  1.0000
  H   H461      1.0  0.93019  0.97145  0.10737  1.0000
  H   H462      1.0  0.71282  0.75593  0.18738  1.0000
  S   S59       1.0  0.52805  0.74504  0.38002  1.0000
  C   C266      1.0  0.97457  0.97548  0.06014  1.0000
  C   C267      1.0  0.68717  0.75969  0.17901  1.0000
  H   H463      1.0  0.68127  0.77788  0.20270  1.0000
  H   H464      1.0  0.52062  0.72206  0.46122  1.0000
  H   H465      1.0  0.62408  0.93308  0.00065  1.0000
  C   C268      1.0  0.65174  0.72118  0.17559  1.0000
  C   C269      1.0  0.92859  0.88309  0.00721  1.0000
  C   C270      1.0  0.51523  0.72723  0.10643  1.0000
  H   H466      1.0  0.82597  0.95225  0.08207  1.0000
  H   H467      1.0  0.91307  0.93603  0.06740  1.0000
  H   H468      1.0  0.61135  0.74640  0.18487  1.0000
  H   H469      1.0  0.62383  0.73909  0.13361  1.0000
  C   C271      1.0  0.57548  0.83140  0.46329  1.0000
  H   H470      1.0  0.64715  0.90268  0.00712  1.0000
  H   H471      1.0  0.79531  0.92474  0.12333  1.0000
  H   H472      1.0  0.54402  0.72071  0.17669  1.0000
  H   H473      1.0  0.72719  0.92176  0.13485  1.0000
  H   H474      1.0  0.51238  0.66687  0.22430  1.0000
  H   H475      1.0  0.57652  0.74428  0.10774  1.0000
  H   H476      1.0  0.51452  0.74782  0.13042  1.0000
  H   H477      1.0  0.51858  0.74001  0.07670  1.0000
  H   H478      1.0  0.51662  0.67565  0.15444  1.0000
  H   H479      1.0  0.97993  0.76759  0.98640  1.0000
  H   H480      1.0  0.61917  0.89042  0.19887  1.0000
  N   N15       1.0  0.70442  0.95791  0.11191  1.0000
  H   H481      1.0  0.65652  0.90489  0.13041  1.0000
  H   H482      1.0  0.77999  0.97872  0.07205  1.0000
  H   H483      1.0  0.75650  0.92823  0.06806  1.0000
  C   C272      1.0  0.67557  0.93837  0.18518  1.0000
  C   C273      1.0  0.65093  0.93233  0.01032  1.0000
  H   H484      1.0  0.61928  0.93622  0.20704  1.0000
  C   C274      1.0  0.53576  0.75263  0.46171  1.0000
  C   C275      1.0  0.96538  0.89048  0.98879  1.0000
  C   C276      1.0  0.54579  0.70028  0.15292  1.0000
  H   H485      1.0  0.64644  0.70769  0.20515  1.0000
  H   H486      1.0  0.92163  0.98375  0.05874  1.0000
  C   C277      1.0  0.54936  0.71772  0.11132  1.0000
  C   C278      1.0  0.66903  0.93557  0.13925  1.0000
  C   C279      1.0  0.65773  0.94659  0.05413  1.0000
  H   H487      1.0  0.69291  0.92324  0.19199  1.0000
  H   H488      1.0  0.54199  0.89147  0.34215  1.0000
  Fe  Fe27      1.0  0.74215  0.88065  0.98810  1.0000
  N   N16       1.0  0.57768  0.68937  0.16163  1.0000
  H   H489      1.0  0.81921  0.97604  0.12769  1.0000
  H   H490      1.0  0.69111  0.96807  0.19630  1.0000
  H   H491      1.0  0.75332  0.97008  0.14894  1.0000
  H   H492      1.0  0.58199  0.69333  0.22679  1.0000
  H   H493      1.0  0.97478  0.96689  0.02779  1.0000
  H   H494      1.0  0.67596  0.95053  0.99020  1.0000
  C   C280      1.0  0.76928  0.95278  0.08955  1.0000
  H   H495      1.0  0.66167  0.97622  0.05569  1.0000
  S   S60       1.0  0.80567  0.90449  0.00261  1.0000
  H   H496      1.0  0.63082  0.92877  0.07215  1.0000
  H   H497      1.0  0.55773  0.89049  0.39164  1.0000
  H   H498      1.0  0.59098  0.86196  0.46381  1.0000
  H   H499      1.0  0.54898  0.69763  0.08634  1.0000
  H   H500      1.0  0.52390  0.91038  0.38490  1.0000
  H   H501      1.0  0.64545  0.94434  0.13578  1.0000
  C   C281      1.0  0.53257  0.88772  0.37463  1.0000
  C   C282      1.0  0.56965  0.67129  0.20241  1.0000
  H   H502      1.0  0.51039  0.84182  0.43957  1.0000
  H   H503      1.0  0.59462  0.67909  0.10027  1.0000
  H   H504      1.0  0.64192  0.91975  0.24192  1.0000
  H   H505      1.0  0.86902  0.87236  0.99855  1.0000
  C   C283      1.0  0.63656  0.92009  0.20960  1.0000
  Fe  Fe28      1.0  0.50794  0.81728  0.26905  1.0000
  C   C284      1.0  0.89726  0.87807  0.98397  1.0000
  C   C285      1.0  0.49817  0.84875  0.38038  1.0000
  Fe  Fe29      1.0  0.49554  0.73960  0.23769  1.0000
  Fe  Fe30      1.0  0.58900  0.79177  0.68409  1.0000
  S   S61       1.0  0.57144  0.83590  0.66587  1.0000
  S   S62       1.0  0.63347  0.79361  0.72760  1.0000
  Fe  Fe31      1.0  0.56265  0.80632  0.60430  1.0000
  S   S63       1.0  0.58148  0.83802  0.54578  1.0000
  C   C286      1.0  0.55523  0.79678  0.81304  1.0000
  S   S64       1.0  0.58556  0.76585  0.62114  1.0000
  Fe  Fe32      1.0  0.76077  0.91744  0.90616  1.0000
  C   C287      1.0  0.89981  0.99723  0.80011  1.0000
  S   S65       1.0  0.73358  0.92607  0.85110  1.0000
  H   H506      1.0  0.94872  0.95065  0.85790  1.0000
  S   S66       1.0  0.86318  0.87234  0.91195  1.0000
  C   C288      1.0  0.54043  0.75858  0.83436  1.0000
  S   S67       1.0  0.75289  0.86095  0.92515  1.0000
  S   S68       1.0  0.82555  0.94579  0.91438  1.0000
  C   C289      1.0  0.90203  0.80385  0.83032  1.0000
  C   C290      1.0  0.97058  0.89243  0.94677  1.0000
  C   C291      1.0  0.93904  0.88667  0.92339  1.0000
  H   H507      1.0  0.90900  0.95600  0.91078  1.0000
  H   H508      1.0  0.94316  0.88799  0.89090  1.0000
  C   C292      1.0  0.66190  0.83124  0.76078  1.0000
  C   C293      1.0  0.66705  0.86830  0.75688  1.0000
  C   C294      1.0  0.68958  0.89713  0.78438  1.0000
  C   C295      1.0  0.70689  0.88919  0.81618  1.0000
  C   C296      1.0  0.70204  0.85218  0.81973  1.0000
  C   C297      1.0  0.67982  0.82345  0.79208  1.0000
  H   H509      1.0  0.65385  0.87481  0.73263  1.0000
  H   H510      1.0  0.69337  0.92572  0.78117  1.0000
  H   H511      1.0  0.71540  0.84565  0.84378  1.0000
  H   H512      1.0  0.67628  0.79495  0.79521  1.0000
  H   H513      1.0  0.96012  0.97662  0.92069  1.0000
  H   H514      1.0  0.55387  0.72952  0.78210  1.0000
  S   S69       1.0  0.74755  0.93638  0.96835  1.0000
  H   H515      1.0  0.89598  0.96446  0.85167  1.0000
  H   H516      1.0  0.66828  0.86052  0.90089  1.0000
  N   N17       1.0  0.56544  0.83154  0.84036  1.0000
  C   C298      1.0  0.59712  0.83393  0.86681  1.0000
  C   C299      1.0  0.53094  0.82900  0.86742  1.0000
  H   H517      1.0  0.57577  0.84635  0.75291  1.0000
  C   C300      1.0  0.56764  0.68118  0.70186  1.0000
  C   C301      1.0  0.61807  0.87143  0.89176  1.0000
  H   H518      1.0  0.51438  0.75348  0.85473  1.0000
  C   C302      1.0  0.57957  0.90230  0.75528  1.0000
  H   H519      1.0  0.58522  0.81090  0.88890  1.0000
  H   H520      1.0  0.52237  0.80595  0.88915  1.0000
  H   H521      1.0  0.53912  0.85515  0.88667  1.0000
  C   C303      1.0  0.96604  0.96980  0.83353  1.0000
  H   H522      1.0  0.59261  0.69466  0.61712  1.0000
  H   H523      1.0  0.59703  0.87801  0.91143  1.0000
  C   C304      1.0  0.64747  0.86888  0.91880  1.0000
  C   C305      1.0  0.54736  0.77268  0.49862  1.0000
  H   H524      1.0  0.53300  0.84973  0.77433  1.0000
  Fe  Fe33      1.0  0.81696  0.89034  0.93787  1.0000
  C   C306      1.0  0.56724  0.81216  0.49960  1.0000
  C   C307      1.0  0.86387  0.96315  0.78479  1.0000
  C   C308      1.0  0.93303  0.98048  0.92488  1.0000
  H   H525      1.0  0.93510  0.77200  0.87389  1.0000
  Fe  Fe34      1.0  0.50975  0.79280  0.68056  1.0000
  H   H526      1.0  0.94860  0.73198  0.83278  1.0000
  H   H527      1.0  0.54130  0.75767  0.52636  1.0000
  H   H528      1.0  0.89167  0.97568  0.97500  1.0000
  C   C309      1.0  0.90234  0.87974  0.94197  1.0000
  H   H529      1.0  0.89448  0.81270  0.80244  1.0000
  H   H530      1.0  0.62803  0.73779  0.66625  1.0000
  C   C310      1.0  0.70118  0.78947  0.64579  1.0000
  H   H531      1.0  0.89571  0.81969  0.85642  1.0000
  H   H532      1.0  0.97098  0.68740  0.79766  1.0000
  H   H533      1.0  0.70587  0.73751  0.63446  1.0000
  H   H534      1.0  0.58133  0.80006  0.79331  1.0000
  H   H535      1.0  0.88321  0.77309  0.83379  1.0000
  Fe  Fe35      1.0  0.81179  0.95913  0.97824  1.0000
  C   C311      1.0  0.94526  0.81227  0.82744  1.0000
  H   H536      1.0  0.56368  0.75796  0.85200  1.0000
  S   S70       1.0  0.52770  0.75056  0.70239  1.0000
  H   H537      1.0  0.61346  0.87726  0.80946  1.0000
  C   C312      1.0  0.95682  0.80123  0.86639  1.0000
  C   C313      1.0  0.97986  0.73824  0.83345  1.0000
  H   H538      1.0  0.49988  0.85002  0.83064  1.0000
  H   H539      1.0  0.55647  0.68526  0.67384  1.0000
  Fe  Fe36      1.0  0.52286  0.72824  0.63867  1.0000
  H   H540      1.0  0.98411  0.72556  0.86046  1.0000
  H   H541      1.0  0.63229  0.84806  0.94275  1.0000
  C   C314      1.0  0.92219  0.97963  0.96999  1.0000
  C   C315      1.0  0.56527  0.86349  0.77358  1.0000
  C   C316      1.0  0.68257  0.74709  0.63515  1.0000
  H   H542      1.0  0.62036  0.82965  0.84804  1.0000
  H   H543      1.0  0.72587  0.80467  0.62384  1.0000
  H   H544      1.0  0.56776  0.89891  0.72498  1.0000
  H   H545      1.0  0.62861  0.68308  0.59310  1.0000
  H   H546      1.0  0.95195  0.81958  0.89068  1.0000
  H   H547      1.0  0.66012  0.73163  0.69696  1.0000
  H   H548      1.0  0.96215  0.84313  0.82322  1.0000
  H   H549      1.0  0.53277  0.79350  0.79183  1.0000
  C   C317      1.0  0.90404  0.99444  0.84568  1.0000
  H   H550      1.0  0.66473  0.89697  0.93329  1.0000
  H   H551      1.0  0.67945  0.80096  0.64458  1.0000
  H   H552      1.0  0.86063  0.96650  0.75255  1.0000
  H   H553      1.0  0.61202  0.91643  0.75190  1.0000
  H   H554      1.0  0.63467  0.89562  0.87179  1.0000
  H   H555      1.0  0.97058  0.81462  0.94872  1.0000
  H   H556      1.0  0.94864  0.96002  0.80630  1.0000
  H   H557      1.0  0.70114  0.70451  0.69378  1.0000
  H   H558      1.0  0.56924  0.92046  0.77449  1.0000
  H   H559      1.0  0.57820  0.89036  0.83339  1.0000
  C   C318      1.0  0.58151  0.86688  0.81580  1.0000
  H   H560      1.0  0.95009  0.79650  0.80059  1.0000
  H   H561      1.0  0.58099  0.70911  0.71803  1.0000
  H   H562      1.0  0.71248  0.79498  0.67656  1.0000
  H   H563      1.0  0.86685  0.93661  0.78751  1.0000
  C   C319      1.0  0.64874  0.72501  0.66613  1.0000
  H   H564      1.0  0.83695  0.96078  0.80231  1.0000
  H   H565      1.0  0.72957  0.66711  0.65245  1.0000
  H   H566      1.0  0.52013  0.69871  0.81954  1.0000
  H   H567      1.0  0.92404  0.95539  0.98312  1.0000
  H   H568      1.0  0.61393  0.67138  0.72194  1.0000
  S   S71       1.0  0.49521  0.66569  0.62321  1.0000
  N   N18       1.0  0.62736  0.68290  0.65834  1.0000
  H   H569      1.0  0.67169  0.74336  0.60440  1.0000
  H   H570      1.0  0.99482  0.93414  0.81581  1.0000
  C   C320      1.0  0.52883  0.72548  0.80373  1.0000
  H   H571      1.0  0.49588  0.80278  0.54221  1.0000
  H   H572      1.0  0.97912  0.76147  0.91099  1.0000
  C   C321      1.0  0.59858  0.66582  0.69344  1.0000
  H   H573      1.0  0.98470  0.72876  0.76830  1.0000
  H   H574      1.0  0.67347  0.67321  0.62553  1.0000
  H   H575      1.0  0.51143  0.66673  0.73348  1.0000
  H   H576      1.0  0.50363  0.72292  0.78695  1.0000
  C   C322      1.0  0.98979  0.71837  0.79658  1.0000
  S   S72       1.0  0.49960  0.76679  0.61789  1.0000
  C   C323      1.0  0.60693  0.67569  0.61927  1.0000
  C   C324      1.0  0.68303  0.67368  0.68915  1.0000
