data_image0
_chemical_formula_structural       FeHSHFeSHFeSC2S2HFeSHSNHC8H4SHCSHCNH2CH2C2H3CH3NC8H15C2H4SFeH8CHCHC3HCH2SCHCH6CH2NC10S2H18FeH5SHCH5C2HC2H2CSC2FeC3FeH4SHCFeSCHCH4CFe2C2HCHSH2CH3FeS2FeS2FeSFeS3CH2CH2FeS2FeSH2SHFeS2C7H4C6H6SCHCH4C2H2C5HC2NC8HC3H19CH8NHC4HC3FeH10CSCHCH5CHNH6CH4CHSFeC2H5CH5C3H4C5HCH4CH3CHC3HSCH2CH2FeHC2H5SH2CNCH3CSH3CH2C2HCFeC2H3FeS2FeS2FeSFeS3FeS2FeSH2C2S2HC2H2CH2CH6CHC6H4C3FeHC3H2NC9H17NH2C2H3CH3CH4CH8C3HCHNCH3C2H4C3H2SH4CHCH2CHNH3CHC2HCH7C2HFeH2CH9CH3CH3CHSNC4HC2HC3H4SCH4C2FeCH3CH3SHCHFeSC5H3SCH3CH2CHSH2CH2CH2CH3CH2CH2FeHC2HC2HCHCH5NC2H3CSH7CHCH2CHSHCH3SCH4C3NHCHCHFeS2FeS2HC2HCHNCHC6H4C2HSH2CH3CH2FeH5C2HC3SH3CH6C3H9CHSHCH3CHCH7CHCHCH2CHCHC3H3CH2FeH2SHCH6C3HCHC2H2CH3S2CFeSHFeSCSHCHCHFe2H2FeNC2H2SCH2CH2C2H4CH3SH2C4HFeCHCHCH8CH2CH2SCH4CH3NC11H8CH10C3SCH2CHCHCSH6FeH2C3HC3HCHCHSHFeNCHSC3H2CH2CHC2H2C2H6CH3CH3CH2NSCH4CHCHC2H6CH2CH9CHCH2CSCH2CH2FeCH6CH3C3HC2H3SHCSH3CH2CH4CH2SH3C2SHFeS2C6H8CH2FeH2CHCHCH3C2HCH3C2HCNC6HC3SH4FeCH8CH3CH6CHC2H18CSCH2C2H3C2NH2CH2SCHCSH5C3HCH4SCSFeSFeHSH2CH2CH3FeH4C2HC2H5SHCHFeCHCH4NC12H9SCSH2C2HSH2CFeCHSHS2C2FeCH5CSHFeS2FeHSFeSFeHS2FeS2FeS2FeSFeS3H3C3H2C2H9NH5C6H4C2H10C2H3C2H5NCHCH2C2H2C2HCH2C2H4SHCH6C4HC2H4C2H9CHCHC3H4CHCHCH2CH2CH2CH2NC2HCH3CH2CH2C2HCHCH2CHCHCFeS2FeS2FeSFeS3FeSH2S2H2C2HC6H4C6H5C3H3CHCH4CH4C2H2CH6NCH2C2HCH4CH4NC11H16CH12CH3CHCHC2H2SC2HC2HC2HCNHCH2CH2CH4C2H4CH2CH2CH4CH2CH4CH2CNCH11CHNCH2CHCHC2HC3H2FeCH2CNHCH4C2H2CHCH4CHCH3CH2CH2SCH3FeH5CHC3H2CHFeCH5C2SH9CHNCHSHCHC6H4CH2C2H2CH2SHSH4C3SH5CH3C2HCHFeHSC3S2H4C2H3C2NH3SH2SC2H2CHCHCH4CHC2H5C2H3SH2CH2C2H3NH2C2H5N
_chemical_formula_sum              "Fe72 H1152 S144 C648 N36"
_cell_length_a       38.7032
_cell_length_b       38.6523
_cell_length_c       58.4344
_cell_angle_alpha    88.7377
_cell_angle_beta     89.7968
_cell_angle_gamma    120.157

_space_group_name_H-M_alt    "P 1"
_space_group_IT_number       1

loop_
  _space_group_symop_operation_xyz
  'x, y, z'

loop_
  _atom_site_type_symbol
  _atom_site_label
  _atom_site_symmetry_multiplicity
  _atom_site_fract_x
  _atom_site_fract_y
  _atom_site_fract_z
  _atom_site_occupancy
  Fe  Fe1       1.0  0.06844  0.35755  0.00752  1.0000
  H   H1        1.0  0.10763  0.00731  0.19539  1.0000
  S   S1        1.0  0.06333  0.38382  0.04062  1.0000
  H   H2        1.0  0.45734  0.48308  0.00183  1.0000
  Fe  Fe2       1.0  0.34113  0.05346  0.01040  1.0000
  S   S2        1.0  0.37673  0.06018  0.04229  1.0000
  H   H3        1.0  0.13751  0.32589  0.01989  1.0000
  Fe  Fe3       1.0  0.02433  0.16165  0.22948  1.0000
  S   S3        1.0  0.04287  0.11818  0.21690  1.0000
  C   C1        1.0  0.01902  0.08410  0.28195  1.0000
  C   C2        1.0  0.24458  0.04560  0.05887  1.0000
  S   S4        1.0  0.06238  0.22656  0.23748  1.0000
  S   S5        1.0  0.31728  0.09417  0.99834  1.0000
  H   H4        1.0  0.12324  0.18594  0.12911  1.0000
  Fe  Fe4       1.0  0.20888  0.06992  0.24251  1.0000
  S   S6        1.0  0.20156  0.12335  0.24949  1.0000
  H   H5        1.0  0.37348  0.18316  0.21575  1.0000
  S   S7        1.0  0.26950  0.07519  0.24221  1.0000
  N   N1        1.0  0.38452  0.06989  0.23743  1.0000
  H   H6        1.0  0.42984  0.13289  0.23519  1.0000
  C   C3        1.0  0.03318  0.28308  0.15665  1.0000
  C   C4        1.0  0.34649  0.16574  0.14355  1.0000
  C   C5        1.0  0.15824  0.12248  0.23931  1.0000
  C   C6        1.0  0.12776  0.08850  0.22914  1.0000
  C   C7        1.0  0.09268  0.08774  0.22215  1.0000
  C   C8        1.0  0.08778  0.12090  0.22536  1.0000
  C   C9        1.0  0.11862  0.15532  0.23500  1.0000
  C   C10       1.0  0.15378  0.15608  0.24196  1.0000
  H   H7        1.0  0.13105  0.06263  0.22693  1.0000
  H   H8        1.0  0.06894  0.06104  0.21470  1.0000
  H   H9        1.0  0.11519  0.18111  0.23738  1.0000
  H   H10       1.0  0.17737  0.18254  0.24973  1.0000
  S   S8        1.0  0.36845  0.02334  0.99035  1.0000
  H   H11       1.0  0.32586  0.04697  0.22311  1.0000
  C   C11       1.0  0.32688  0.05222  0.14018  1.0000
  S   S9        1.0  0.02595  0.37202  0.98908  1.0000
  H   H12       1.0  0.07771  0.24688  0.13180  1.0000
  C   C12       1.0  0.19506  0.33250  0.01118  1.0000
  N   N2        1.0  0.05086  0.08577  0.29760  1.0000
  H   H13       1.0  0.37042  0.06416  0.30942  1.0000
  H   H14       1.0  0.16541  0.49381  0.02632  1.0000
  C   C13       1.0  0.28341  0.01383  0.31807  1.0000
  H   H15       1.0  0.40112  0.15663  0.99087  1.0000
  H   H16       1.0  0.25517  0.02372  0.05876  1.0000
  C   C14       1.0  0.16618  0.36839  0.99198  1.0000
  C   C15       1.0  0.29317  0.03637  0.15489  1.0000
  H   H17       1.0  0.42437  0.09587  0.28042  1.0000
  H   H18       1.0  0.40778  0.02568  0.20743  1.0000
  H   H19       1.0  0.21284  0.02976  0.06470  1.0000
  C   C16       1.0  0.06390  0.05703  0.28978  1.0000
  H   H20       1.0  0.03873  0.02571  0.29011  1.0000
  H   H21       1.0  0.40899  0.03373  0.25054  1.0000
  H   H22       1.0  0.15654  0.30461  0.08578  1.0000
  N   N3        1.0  0.10357  0.21734  0.15134  1.0000
  C   C17       1.0  0.06225  0.18833  0.16074  1.0000
  C   C18       1.0  0.12460  0.25123  0.16769  1.0000
  C   C19       1.0  0.12807  0.19753  0.14680  1.0000
  C   C20       1.0  0.12019  0.16154  0.16294  1.0000
  C   C21       1.0  0.13383  0.24040  0.19164  1.0000
  C   C22       1.0  0.15200  0.27690  0.20687  1.0000
  C   C23       1.0  0.15251  0.15025  0.16011  1.0000
  C   C24       1.0  0.04909  0.31870  0.14326  1.0000
  H   H23       1.0  0.04690  0.20483  0.16592  1.0000
  H   H24       1.0  0.06352  0.17336  0.17684  1.0000
  H   H25       1.0  0.15421  0.27427  0.16061  1.0000
  H   H26       1.0  0.10701  0.26663  0.16999  1.0000
  H   H27       1.0  0.16054  0.22016  0.14727  1.0000
  H   H28       1.0  0.09112  0.13475  0.15905  1.0000
  H   H29       1.0  0.11896  0.16763  0.18122  1.0000
  H   H30       1.0  0.10656  0.21645  0.20036  1.0000
  H   H31       1.0  0.15625  0.23066  0.19020  1.0000
  H   H32       1.0  0.13146  0.28900  0.20865  1.0000
  H   H33       1.0  0.15731  0.26818  0.22417  1.0000
  H   H34       1.0  0.18101  0.30080  0.19955  1.0000
  H   H35       1.0  0.15388  0.14197  0.14218  1.0000
  H   H36       1.0  0.18213  0.17554  0.16485  1.0000
  H   H37       1.0  0.14559  0.12423  0.17165  1.0000
  C   C25       1.0  0.40159  0.11133  0.22676  1.0000
  C   C26       1.0  0.22912  0.35125  0.99671  1.0000
  H   H38       1.0  0.11218  0.45150  0.00246  1.0000
  H   H39       1.0  0.10538  0.28777  0.09382  1.0000
  H   H40       1.0  0.13374  0.20615  0.27948  1.0000
  H   H41       1.0  0.11589  0.04476  0.17356  1.0000
  S   S10       1.0  0.03813  0.22950  0.30362  1.0000
  Fe  Fe5       1.0  0.40072  0.02577  0.02288  1.0000
  H   H42       1.0  0.11270  0.22804  0.29767  1.0000
  H   H43       1.0  0.13892  0.20511  0.31027  1.0000
  H   H44       1.0  0.05994  0.16335  0.28420  1.0000
  H   H45       1.0  0.11893  0.25300  0.08225  1.0000
  H   H46       1.0  0.10276  0.13170  0.27919  1.0000
  H   H47       1.0  0.09551  0.48573  0.99813  1.0000
  H   H48       1.0  0.05070  0.34606  0.11014  1.0000
  H   H49       1.0  0.07390  0.06389  0.27148  1.0000
  C   C27       1.0  0.09840  0.23506  0.12913  1.0000
  H   H50       1.0  0.14834  0.29728  0.12738  1.0000
  C   C28       1.0  0.32523  0.03500  0.11886  1.0000
  H   H51       1.0  0.45930  0.20404  0.05336  1.0000
  C   C29       1.0  0.12881  0.27914  0.09340  1.0000
  C   C30       1.0  0.41763  0.06008  0.23886  1.0000
  C   C31       1.0  0.39762  0.09894  0.27805  1.0000
  H   H52       1.0  0.06920  0.34694  0.15099  1.0000
  C   C32       1.0  0.03433  0.15565  0.14390  1.0000
  H   H53       1.0  0.31538  0.15986  0.14526  1.0000
  H   H54       1.0  0.19284  0.31114  0.02422  1.0000
  S   S11       1.0  0.19148  0.03885  0.20903  1.0000
  C   C33       1.0  0.03871  0.31831  0.12004  1.0000
  H   H55       1.0  0.10904  0.13146  0.30918  1.0000
  C   C34       1.0  0.43207  0.05231  0.21573  1.0000
  H   H56       1.0  0.24647  0.05769  0.04118  1.0000
  H   H57       1.0  0.13043  0.00790  0.16837  1.0000
  H   H58       1.0  0.41013  0.11142  0.20855  1.0000
  H   H59       1.0  0.36624  0.19229  0.15373  1.0000
  H   H60       1.0  0.03307  0.10376  0.26648  1.0000
  H   H61       1.0  0.01058  0.10638  0.16922  1.0000
  C   C35       1.0  0.10792  0.02630  0.29371  1.0000
  H   H62       1.0  0.36429  0.13162  0.24428  1.0000
  H   H63       1.0  0.16073  0.26137  0.11648  1.0000
  N   N4        1.0  0.33933  0.14285  0.07813  1.0000
  C   C36       1.0  0.31434  0.10247  0.06757  1.0000
  C   C37       1.0  0.38285  0.15803  0.07251  1.0000
  C   C38       1.0  0.33405  0.13659  0.10383  1.0000
  C   C39       1.0  0.32730  0.17302  0.07068  1.0000
  C   C40       1.0  0.31082  0.16950  0.04611  1.0000
  C   C41       1.0  0.26965  0.07924  0.07514  1.0000
  C   C42       1.0  0.36034  0.17362  0.11845  1.0000
  C   C43       1.0  0.39552  0.16654  0.04691  1.0000
  C   C44       1.0  0.43900  0.17717  0.04356  1.0000
  C   C45       1.0  0.30792  0.20633  0.03922  1.0000
  S   S12       1.0  0.04574  0.28542  0.18616  1.0000
  S   S13       1.0  0.01833  0.45493  0.02489  1.0000
  H   H64       1.0  0.32667  0.08257  0.07190  1.0000
  H   H65       1.0  0.31579  0.10493  0.04862  1.0000
  H   H66       1.0  0.40227  0.18689  0.08089  1.0000
  H   H67       1.0  0.39165  0.13646  0.07943  1.0000
  H   H68       1.0  0.34010  0.11253  0.10949  1.0000
  H   H69       1.0  0.30251  0.12602  0.10898  1.0000
  H   H70       1.0  0.30360  0.17138  0.08231  1.0000
  H   H71       1.0  0.35304  0.20399  0.07233  1.0000
  H   H72       1.0  0.28044  0.14294  0.04505  1.0000
  H   H73       1.0  0.32971  0.16621  0.03320  1.0000
  H   H74       1.0  0.44253  0.07842  0.20374  1.0000
  H   H75       1.0  0.25695  0.09930  0.07599  1.0000
  H   H76       1.0  0.35923  0.20031  0.11211  1.0000
  H   H77       1.0  0.39189  0.18058  0.11807  1.0000
  H   H78       1.0  0.37700  0.14034  0.03632  1.0000
  H   H79       1.0  0.39346  0.19263  0.04040  1.0000
  H   H80       1.0  0.44297  0.15172  0.04913  1.0000
  H   H81       1.0  0.44753  0.18387  0.02514  1.0000
  Fe  Fe6       1.0  0.01804  0.21458  0.26628  1.0000
  H   H82       1.0  0.29381  0.20192  0.02220  1.0000
  H   H83       1.0  0.28940  0.21132  0.05181  1.0000
  H   H84       1.0  0.33819  0.23334  0.03792  1.0000
  H   H85       1.0  0.35801  0.03747  0.26928  1.0000
  H   H86       1.0  0.26657  0.06528  0.09244  1.0000
  S   S14       1.0  0.01988  0.29471  0.01692  1.0000
  H   H87       1.0  0.42140  0.19179  0.22525  1.0000
  C   C46       1.0  0.46673  0.04452  0.21923  1.0000
  H   H88       1.0  0.35049  0.09566  0.30025  1.0000
  H   H89       1.0  0.40276  0.17030  0.19755  1.0000
  H   H90       1.0  0.44439  0.08494  0.24688  1.0000
  H   H91       1.0  0.08416  0.21153  0.11614  1.0000
  H   H92       1.0  0.12580  0.08619  0.30231  1.0000
  C   C47       1.0  0.35092  0.04076  0.22276  1.0000
  C   C48       1.0  0.13700  0.26941  0.11760  1.0000
  H   H93       1.0  0.02150  0.16850  0.13168  1.0000
  C   C49       1.0  0.11866  0.20290  0.29625  1.0000
  C   C50       1.0  0.09795  0.05663  0.30343  1.0000
  H   H94       1.0  0.00382  0.03541  0.25831  1.0000
  H   H95       1.0  0.35450  0.07795  0.14532  1.0000
  C   C51       1.0  0.37363  0.12928  0.22670  1.0000
  S   S15       1.0  0.18098  0.01408  0.26498  1.0000
  C   C52       1.0  0.34083  0.14533  0.98952  1.0000
  C   C53       1.0  0.37807  0.09363  0.30159  1.0000
  Fe  Fe7       1.0  0.01213  0.32152  0.04934  1.0000
  C   C54       1.0  0.01990  0.49098  0.00434  1.0000
  C   C55       1.0  0.16365  0.34084  0.00878  1.0000
  C   C56       1.0  0.36815  0.06754  0.26123  1.0000
  Fe  Fe8       1.0  0.24961  0.03899  0.21016  1.0000
  H   H96       1.0  0.45736  0.01782  0.23067  1.0000
  H   H97       1.0  0.35146  0.04729  0.10781  1.0000
  H   H98       1.0  0.47633  0.03883  0.20247  1.0000
  H   H99       1.0  0.40755  0.12987  0.27179  1.0000
  S   S16       1.0  0.29662  0.06011  0.18116  1.0000
  H   H100      1.0  0.34776  0.13957  0.15077  1.0000
  C   C57       1.0  0.50137  0.03614  0.00727  1.0000
  Fe  Fe9       1.0  0.01801  0.39504  0.02226  1.0000
  S   S17       1.0  0.46271  0.03131  0.02636  1.0000
  C   C58       1.0  0.39431  0.17124  0.21562  1.0000
  H   H101      1.0  0.34653  0.11071  0.21671  1.0000
  C   C59       1.0  0.08700  0.12741  0.29582  1.0000
  H   H102      1.0  0.34063  0.06985  0.26064  1.0000
  H   H103      1.0  0.49264  0.07088  0.22678  1.0000
  H   H104      1.0  0.36056  0.04498  0.20442  1.0000
  H   H105      1.0  0.05094  0.14460  0.13378  1.0000
  C   C60       1.0  0.10760  0.01305  0.17668  1.0000
  Fe  Fe10      1.0  0.02088  0.23575  0.21421  1.0000
  Fe  Fe11      1.0  0.24028  0.01669  0.26213  1.0000
  C   C61       1.0  0.00753  0.24688  0.14631  1.0000
  C   C62       1.0  0.07931  0.16300  0.29804  1.0000
  H   H106      1.0  0.25702  0.05126  0.31829  1.0000
  C   C63       1.0  0.12315  0.48390  0.99891  1.0000
  H   H107      1.0  0.04263  0.02299  0.17343  1.0000
  S   S18       1.0  0.26733  0.33885  0.00003  1.0000
  H   H108      1.0  0.13216  0.02616  0.30375  1.0000
  H   H109      1.0  0.11840  0.03468  0.27564  1.0000
  C   C64       1.0  0.01217  0.28216  0.10987  1.0000
  H   H110      1.0  0.39906  0.11737  0.31306  1.0000
  H   H111      1.0  0.06493  0.16177  0.31471  1.0000
  H   H112      1.0  0.09866  0.47235  0.04482  1.0000
  Fe  Fe12      1.0  0.35782  0.33829  0.55773  1.0000
  S   S19       1.0  0.32480  0.28718  0.53392  1.0000
  S   S20       1.0  0.35688  0.33139  0.59692  1.0000
  Fe  Fe13      1.0  0.40100  0.40029  0.51784  1.0000
  S   S21       1.0  0.36996  0.35285  0.49172  1.0000
  S   S22       1.0  0.43838  0.46729  0.50708  1.0000
  Fe  Fe14      1.0  0.31419  0.33073  0.51304  1.0000
  S   S23       1.0  0.25469  0.30634  0.49486  1.0000
  Fe  Fe15      1.0  0.38294  0.31298  0.51432  1.0000
  S   S24       1.0  0.40783  0.27889  0.49540  1.0000
  S   S25       1.0  0.34349  0.38039  0.53802  1.0000
  S   S26       1.0  0.41757  0.36185  0.53935  1.0000
  C   C65       1.0  0.48544  0.23940  0.51997  1.0000
  H   H113      1.0  0.48331  0.20854  0.48964  1.0000
  H   H114      1.0  0.26689  0.42188  0.58272  1.0000
  C   C66       1.0  0.28156  0.38147  0.43626  1.0000
  H   H115      1.0  0.45259  0.22528  0.52249  1.0000
  H   H116      1.0  0.31284  0.38177  0.60156  1.0000
  Fe  Fe16      1.0  0.34726  0.05212  0.47468  1.0000
  S   S27       1.0  0.34035  0.09057  0.50142  1.0000
  S   S28       1.0  0.38853  0.07634  0.44419  1.0000
  Fe  Fe17      1.0  0.03499  0.34520  0.42110  1.0000
  S   S29       1.0  0.05093  0.31219  0.44739  1.0000
  H   H117      1.0  0.34883  0.45231  0.41295  1.0000
  H   H118      1.0  0.31590  0.16399  0.62227  1.0000
  S   S30       1.0  0.04647  0.37171  0.48610  1.0000
  H   H119      1.0  0.46496  0.15915  0.44314  1.0000
  Fe  Fe18      1.0  0.09264  0.37241  0.46199  1.0000
  S   S31       1.0  0.15582  0.39550  0.47597  1.0000
  S   S32       1.0  0.08048  0.40611  0.43390  1.0000
  C   C67       1.0  0.47708  0.13144  0.48569  1.0000
  C   C68       1.0  0.38925  0.22660  0.49753  1.0000
  C   C69       1.0  0.36453  0.20306  0.51576  1.0000
  C   C70       1.0  0.35012  0.16153  0.51674  1.0000
  C   C71       1.0  0.36002  0.14305  0.49948  1.0000
  C   C72       1.0  0.38519  0.16668  0.48139  1.0000
  C   C73       1.0  0.39990  0.20829  0.48052  1.0000
  H   H120      1.0  0.35661  0.21688  0.52913  1.0000
  H   H121      1.0  0.33094  0.14352  0.53090  1.0000
  H   H122      1.0  0.39322  0.15292  0.46805  1.0000
  H   H123      1.0  0.41934  0.22635  0.46646  1.0000
  C   C74       1.0  0.22693  0.33107  0.49062  1.0000
  C   C75       1.0  0.19014  0.31109  0.47939  1.0000
  C   C76       1.0  0.16761  0.33001  0.47510  1.0000
  C   C77       1.0  0.18190  0.36938  0.48179  1.0000
  C   C78       1.0  0.21861  0.38924  0.49319  1.0000
  C   C79       1.0  0.24080  0.37009  0.49784  1.0000
  H   H124      1.0  0.17904  0.28085  0.47381  1.0000
  H   H125      1.0  0.13947  0.31438  0.46631  1.0000
  H   H126      1.0  0.22993  0.41971  0.49839  1.0000
  H   H127      1.0  0.26876  0.38564  0.50675  1.0000
  H   H128      1.0  0.17667  0.41583  0.52679  1.0000
  H   H129      1.0  0.27314  0.06977  0.35896  1.0000
  S   S33       1.0  0.31195  0.04885  0.39367  1.0000
  C   C80       1.0  0.26709  0.39522  0.58997  1.0000
  H   H130      1.0  0.40424  0.23855  0.61991  1.0000
  C   C81       1.0  0.02423  0.30227  0.36148  1.0000
  H   H131      1.0  0.26386  0.36979  0.55673  1.0000
  H   H132      1.0  0.20518  0.39986  0.57081  1.0000
  H   H133      1.0  0.17936  0.25178  0.52232  1.0000
  H   H134      1.0  0.27971  0.18903  0.53342  1.0000
  C   C82       1.0  0.25921  0.33835  0.42817  1.0000
  C   C83       1.0  0.04294  0.27975  0.36539  1.0000
  H   H135      1.0  0.04738  0.47820  0.50460  1.0000
  H   H136      1.0  0.23721  0.29744  0.54688  1.0000
  C   C84       1.0  0.32967  0.30775  0.64141  1.0000
  C   C85       1.0  0.31866  0.30590  0.61831  1.0000
  C   C86       1.0  0.27804  0.28417  0.61306  1.0000
  C   C87       1.0  0.24896  0.26555  0.63076  1.0000
  C   C88       1.0  0.33999  0.48131  0.50619  1.0000
  H   H137      1.0  0.26908  0.28202  0.59542  1.0000
  C   C89       1.0  0.18762  0.14920  0.65183  1.0000
  C   C90       1.0  0.25996  0.26794  0.65390  1.0000
  N   N5        1.0  0.27683  0.19114  0.46231  1.0000
  C   C91       1.0  0.30781  0.23515  0.46235  1.0000
  C   C92       1.0  0.26723  0.17502  0.48668  1.0000
  C   C93       1.0  0.29558  0.16991  0.45051  1.0000
  C   C94       1.0  0.23932  0.18281  0.44987  1.0000
  C   C95       1.0  0.22664  0.21510  0.45123  1.0000
  C   C96       1.0  0.32679  0.25423  0.43860  1.0000
  C   C97       1.0  0.27157  0.12346  0.45175  1.0000
  C   C98       1.0  0.24992  0.19390  0.50288  1.0000
  H   H138      1.0  0.35566  0.24795  0.64314  1.0000
  C   C99       1.0  0.18492  0.19994  0.44166  1.0000
  C   C100      1.0  0.34983  0.29988  0.43911  1.0000
  C   C101      1.0  0.29016  0.10584  0.43604  1.0000
  H   H139      1.0  0.33272  0.24013  0.47377  1.0000
  H   H140      1.0  0.29577  0.25313  0.46984  1.0000
  H   H141      1.0  0.24471  0.14253  0.48720  1.0000
  H   H142      1.0  0.29448  0.17769  0.49462  1.0000
  H   H143      1.0  0.32556  0.17931  0.45774  1.0000
  H   H144      1.0  0.30090  0.17866  0.43200  1.0000
  H   H145      1.0  0.24230  0.17892  0.43126  1.0000
  H   H146      1.0  0.21365  0.15366  0.45604  1.0000
  H   H147      1.0  0.24760  0.24228  0.44101  1.0000
  H   H148      1.0  0.22652  0.22457  0.46893  1.0000
  H   H149      1.0  0.34844  0.24475  0.43348  1.0000
  H   H150      1.0  0.30375  0.24484  0.42522  1.0000
  H   H151      1.0  0.24012  0.11189  0.44665  1.0000
  H   H152      1.0  0.27195  0.11227  0.46938  1.0000
  H   H153      1.0  0.26771  0.22697  0.50244  1.0000
  H   H154      1.0  0.21866  0.18430  0.49821  1.0000
  H   H155      1.0  0.35355  0.17922  0.64297  1.0000
  H   H156      1.0  0.25372  0.33659  0.58026  1.0000
  H   H157      1.0  0.25971  0.31767  0.44151  1.0000
  C   C102      1.0  0.16388  0.29477  0.63082  1.0000
  H   H158      1.0  0.16229  0.17373  0.45197  1.0000
  H   H159      1.0  0.13232  0.34776  0.56271  1.0000
  H   H160      1.0  0.36253  0.31248  0.42183  1.0000
  H   H161      1.0  0.32979  0.31127  0.44427  1.0000
  H   H162      1.0  0.37491  0.31014  0.45127  1.0000
  H   H163      1.0  0.32135  0.11567  0.44112  1.0000
  H   H164      1.0  0.27267  0.07267  0.43739  1.0000
  H   H165      1.0  0.29012  0.11498  0.41788  1.0000
  N   N6        1.0  0.20312  0.34271  0.56958  1.0000
  H   H166      1.0  0.13133  0.28277  0.62868  1.0000
  C   C103      1.0  0.18769  0.30843  0.55319  1.0000
  C   C104      1.0  0.19801  0.37563  0.55854  1.0000
  C   C105      1.0  0.17910  0.32974  0.59172  1.0000
  C   C106      1.0  0.02427  0.49426  0.47540  1.0000
  H   H167      1.0  0.22751  0.32929  0.42499  1.0000
  C   C107      1.0  0.15575  0.36287  0.54922  1.0000
  C   C108      1.0  0.20635  0.28105  0.55425  1.0000
  C   C109      1.0  0.18216  0.24356  0.54028  1.0000
  Fe  Fe19      1.0  0.33667  0.02999  0.42415  1.0000
  H   H168      1.0  0.21765  0.24922  0.62654  1.0000
  H   H169      1.0  0.36891  0.22000  0.59670  1.0000
  H   H170      1.0  0.32587  0.37387  0.45491  1.0000
  H   H171      1.0  0.47000  0.10040  0.48200  1.0000
  H   H172      1.0  0.15461  0.28923  0.55502  1.0000
  H   H173      1.0  0.19310  0.32006  0.53515  1.0000
  H   H174      1.0  0.21954  0.39000  0.54389  1.0000
  H   H175      1.0  0.48355  0.17458  0.53788  1.0000
  H   H176      1.0  0.41442  0.04476  0.55650  1.0000
  H   H177      1.0  0.14658  0.31472  0.58825  1.0000
  C   C110      1.0  0.18473  0.30046  0.60762  1.0000
  S   S34       1.0  0.36519  0.00643  0.48431  1.0000
  C   C111      1.0  0.33461  0.44210  0.47088  1.0000
  H   H178      1.0  0.32089  0.22992  0.62002  1.0000
  C   C112      1.0  0.27250  0.03945  0.32823  1.0000
  H   H179      1.0  0.14829  0.34224  0.53476  1.0000
  H   H180      1.0  0.33787  0.38933  0.42559  1.0000
  H   H181      1.0  0.20817  0.27132  0.57189  1.0000
  H   H182      1.0  0.19749  0.22585  0.54006  1.0000
  H   H183      1.0  0.15183  0.22465  0.54798  1.0000
  C   C113      1.0  0.35641  0.48357  0.48202  1.0000
  H   H184      1.0  0.37034  0.02832  0.53947  1.0000
  N   N7        1.0  0.35197  0.43775  0.44866  1.0000
  H   H185      1.0  0.44856  0.13123  0.48262  1.0000
  H   H186      1.0  0.17600  0.12427  0.63967  1.0000
  H   H187      1.0  0.39927  0.40057  0.43268  1.0000
  H   H188      1.0  0.12380  0.38908  0.53265  1.0000
  H   H189      1.0  0.32376  0.43202  0.60657  1.0000
  H   H190      1.0  0.41070  0.02196  0.52920  1.0000
  C   C114      1.0  0.42187  0.08328  0.52680  1.0000
  H   H191      1.0  0.06144  0.08348  0.33380  1.0000
  H   H192      1.0  0.34565  0.46115  0.51742  1.0000
  H   H193      1.0  0.05472  0.27955  0.38212  1.0000
  H   H194      1.0  0.27277  0.33557  0.41203  1.0000
  C   C115      1.0  0.04671  0.25767  0.34753  1.0000
  H   H195      1.0  0.38952  0.27084  0.60565  1.0000
  S   S35       1.0  0.01772  0.33029  0.38333  1.0000
  Fe  Fe20      1.0  0.03205  0.40230  0.45737  1.0000
  C   C116      1.0  0.30210  0.03511  0.36453  1.0000
  C   C117      1.0  0.28178  0.04995  0.35130  1.0000
  H   H196      1.0  0.32850  0.41812  0.57805  1.0000
  H   H197      1.0  0.40893  0.07972  0.50956  1.0000
  H   H198      1.0  0.17116  0.27057  0.59992  1.0000
  H   H199      1.0  0.23639  0.19335  0.53907  1.0000
  H   H200      1.0  0.06157  0.24072  0.35074  1.0000
  C   C118      1.0  0.48944  0.15205  0.44329  1.0000
  H   H201      1.0  0.46251  0.43883  0.45344  1.0000
  H   H202      1.0  0.39239  0.42619  0.46834  1.0000
  H   H203      1.0  0.18384  0.19139  0.42354  1.0000
  H   H204      1.0  0.30362  0.43598  0.46856  1.0000
  H   H205      1.0  0.18526  0.35630  0.60182  1.0000
  C   C119      1.0  0.15353  0.39917  0.54030  1.0000
  C   C120      1.0  0.39321  0.44428  0.45310  1.0000
  C   C121      1.0  0.47717  0.17012  0.51924  1.0000
  H   H206      1.0  0.38891  0.49543  0.48351  1.0000
  H   H207      1.0  0.17724  0.22401  0.44240  1.0000
  H   H208      1.0  0.26522  0.38222  0.45161  1.0000
  H   H209      1.0  0.27731  0.09952  0.62974  1.0000
  C   C122      1.0  0.32792  0.18277  0.63758  1.0000
  C   C123      1.0  0.41285  0.43359  0.43337  1.0000
  C   C124      1.0  0.37888  0.23959  0.61176  1.0000
  C   C125      1.0  0.24900  0.17975  0.52765  1.0000
  C   C126      1.0  0.48987  0.02383  0.49385  1.0000
  H   H210      1.0  0.15769  0.41961  0.55442  1.0000
  C   C127      1.0  0.32584  0.39488  0.44152  1.0000
  H   H211      1.0  0.21664  0.31154  0.61107  1.0000
  H   H212      1.0  0.33269  0.41939  0.48376  1.0000
  H   H213      1.0  0.23020  0.14665  0.52933  1.0000
  H   H214      1.0  0.36096  0.32443  0.64572  1.0000
  C   C128      1.0  0.24728  0.35972  0.57344  1.0000
  H   H215      1.0  0.17701  0.32358  0.63983  1.0000
  H   H216      1.0  0.40871  0.44476  0.41654  1.0000
  H   H217      1.0  0.44439  0.15759  0.51759  1.0000
  C   C129      1.0  0.31066  0.40738  0.59421  1.0000
  H   H218      1.0  0.27954  0.40089  0.42270  1.0000
  C   C130      1.0  0.35180  0.46553  0.43010  1.0000
  C   C131      1.0  0.46798  0.10334  0.52500  1.0000
  C   C132      1.0  0.34442  0.22669  0.62893  1.0000
  H   H219      1.0  0.41295  0.10141  0.53711  1.0000
  S   S36       1.0  0.46909  0.04111  0.45086  1.0000
  C   C133      1.0  0.40339  0.04208  0.53874  1.0000
  H   H220      1.0  0.25148  0.38712  0.60686  1.0000
  H   H221      1.0  0.47415  0.08021  0.51832  1.0000
  C   C134      1.0  0.45757  0.45097  0.43714  1.0000
  H   H222      1.0  0.25045  0.15212  0.63100  1.0000
  H   H223      1.0  0.47950  0.10899  0.54281  1.0000
  Fe  Fe21      1.0  0.40392  0.02811  0.45263  1.0000
  H   H224      1.0  0.01142  0.21306  0.45165  1.0000
  C   C135      1.0  0.26201  0.09266  0.64669  1.0000
  C   C136      1.0  0.48683  0.49807  0.49410  1.0000
  H   H225      1.0  0.16797  0.27321  0.64174  1.0000
  H   H226      1.0  0.41427  0.47558  0.45778  1.0000
  H   H227      1.0  0.47084  0.44269  0.42290  1.0000
  H   H228      1.0  0.47321  0.48417  0.43778  1.0000
  H   H229      1.0  0.02738  0.09981  0.32734  1.0000
  S   S37       1.0  0.29435  0.00820  0.45459  1.0000
  H   H230      1.0  0.26818  0.19987  0.64253  1.0000
  H   H231      1.0  0.01883  0.03167  0.36289  1.0000
  C   C137      1.0  0.03883  0.49897  0.49770  1.0000
  N   N8        1.0  0.48931  0.14128  0.51034  1.0000
  C   C138      1.0  0.31323  0.00966  0.35434  1.0000
  H   H232      1.0  0.30737  0.47021  0.50586  1.0000
  H   H233      1.0  0.00518  0.01180  0.32232  1.0000
  H   H234      1.0  0.49615  0.26787  0.50999  1.0000
  C   C139      1.0  0.26040  0.16872  0.64721  1.0000
  S   S38       1.0  0.01895  0.45484  0.45742  1.0000
  H   H235      1.0  0.19512  0.17741  0.64238  1.0000
  H   H236      1.0  0.23174  0.08853  0.64436  1.0000
  H   H237      1.0  0.47765  0.12056  0.43831  1.0000
  C   C140      1.0  0.03175  0.25755  0.32553  1.0000
  H   H238      1.0  0.02250  0.23231  0.42253  1.0000
  H   H239      1.0  0.46036  0.01645  0.49973  1.0000
  C   C141      1.0  0.49581  0.21173  0.50705  1.0000
  C   C142      1.0  0.01271  0.27977  0.32170  1.0000
  H   H240      1.0  0.32487  0.46867  0.43219  1.0000
  C   C143      1.0  0.00910  0.30198  0.33953  1.0000
  Fe  Fe22      1.0  0.00377  0.31330  0.46967  1.0000
  C   C144      1.0  0.03655  0.07801  0.32221  1.0000
  C   C145      1.0  0.50120  0.03593  0.47097  1.0000
  H   H241      1.0  0.08908  0.04820  0.32167  1.0000
  H   H242      1.0  0.49986  0.24640  0.53695  1.0000
  H   H243      1.0  0.23821  0.02877  0.64331  1.0000
  Fe  Fe23      1.0  0.22990  0.15739  0.73680  1.0000
  S   S39       1.0  0.21096  0.16714  0.77113  1.0000
  S   S40       1.0  0.25041  0.11395  0.72780  1.0000
  Fe  Fe24      1.0  0.22250  0.22445  0.71259  1.0000
  S   S41       1.0  0.20194  0.23985  0.74541  1.0000
  S   S42       1.0  0.22173  0.24603  0.67555  1.0000
  Fe  Fe25      1.0  0.25023  0.23301  0.76335  1.0000
  S   S43       1.0  0.29803  0.27415  0.78877  1.0000
  Fe  Fe26      1.0  0.16406  0.17305  0.75148  1.0000
  S   S44       1.0  0.10085  0.13431  0.76526  1.0000
  S   S45       1.0  0.27325  0.22275  0.72992  1.0000
  S   S46       1.0  0.18034  0.15812  0.71782  1.0000
  Fe  Fe27      1.0  0.33427  0.34584  0.92375  1.0000
  S   S47       1.0  0.30950  0.30084  0.95310  1.0000
  S   S48       1.0  0.29292  0.32276  0.89265  1.0000
  Fe  Fe28      1.0  0.40206  0.40900  0.95450  1.0000
  S   S49       1.0  0.46094  0.47045  0.95228  1.0000
  H   H244      1.0  0.35263  0.17501  0.68983  1.0000
  H   H245      1.0  0.36620  0.19730  0.87061  1.0000
  C   C146      1.0  0.30062  0.28872  0.65906  1.0000
  C   C147      1.0  0.31622  0.19905  0.83673  1.0000
  S   S50       1.0  0.39763  0.36144  0.93064  1.0000
  S   S51       1.0  0.33993  0.39680  0.94496  1.0000
  H   H246      1.0  0.18426  0.26155  0.98779  1.0000
  C   C148      1.0  0.35245  0.20315  0.68604  1.0000
  C   C149      1.0  0.06563  0.07392  0.68670  1.0000
  H   H247      1.0  0.17188  0.30295  0.95756  1.0000
  H   H248      1.0  0.10583  0.05747  0.76685  1.0000
  C   C150      1.0  0.05966  0.43160  0.93476  1.0000
  H   H249      1.0  0.24296  0.33701  0.92338  1.0000
  H   H250      1.0  0.07755  0.15207  0.68458  1.0000
  C   C151      1.0  0.00999  0.48204  0.98136  1.0000
  H   H251      1.0  0.28618  0.17364  0.84155  1.0000
  H   H252      1.0  0.27273  0.42604  0.88476  1.0000
  H   H253      1.0  0.18163  0.28904  0.88529  1.0000
  H   H254      1.0  0.00517  0.02063  0.80714  1.0000
  H   H255      1.0  0.06684  0.06957  0.66802  1.0000
  H   H256      1.0  0.26719  0.05294  0.71726  1.0000
  C   C152      1.0  0.36252  0.22638  0.70817  1.0000
  H   H257      1.0  0.13934  0.07878  0.68268  1.0000
  C   C153      1.0  0.29532  0.30788  0.86421  1.0000
  C   C154      1.0  0.25943  0.28436  0.85255  1.0000
  C   C155      1.0  0.25957  0.27299  0.82973  1.0000
  C   C156      1.0  0.29577  0.28561  0.81804  1.0000
  C   C157      1.0  0.33169  0.30898  0.82977  1.0000
  C   C158      1.0  0.33150  0.31992  0.85270  1.0000
  H   H258      1.0  0.23125  0.27524  0.86107  1.0000
  H   H259      1.0  0.23171  0.25522  0.82099  1.0000
  H   H260      1.0  0.35991  0.31919  0.82091  1.0000
  H   H261      1.0  0.35930  0.33876  0.86120  1.0000
  C   C159      1.0  0.02136  0.10293  0.75753  1.0000
  C   C160      1.0  0.05995  0.13467  0.75240  1.0000
  C   C161      1.0  0.06487  0.16572  0.73754  1.0000
  Fe  Fe29      1.0  0.37273  0.31911  0.96124  1.0000
  H   H262      1.0  0.09455  0.19038  0.73354  1.0000
  C   C162      1.0  0.18268  0.04230  0.74211  1.0000
  C   C163      1.0  0.22118  0.06151  0.73214  1.0000
  C   C164      1.0  0.23743  0.03842  0.72479  1.0000
  H   H263      1.0  0.17020  0.06000  0.74821  1.0000
  H   H264      1.0  0.37670  0.22140  0.67341  1.0000
  N   N9        1.0  0.35402  0.22353  0.89994  1.0000
  C   C165      1.0  0.37687  0.26863  0.89760  1.0000
  C   C166      1.0  0.31750  0.21065  0.91496  1.0000
  C   C167      1.0  0.38061  0.21117  0.91230  1.0000
  C   C168      1.0  0.34262  0.20325  0.87709  1.0000
  C   C169      1.0  0.33526  0.22600  0.85710  1.0000
  C   C170      1.0  0.41908  0.28692  0.88628  1.0000
  C   C171      1.0  0.36093  0.16631  0.91968  1.0000
  C   C172      1.0  0.28585  0.22040  0.90581  1.0000
  C   C173      1.0  0.25056  0.20557  0.92263  1.0000
  H   H265      1.0  0.23183  0.17472  0.67792  1.0000
  H   H266      1.0  0.39303  0.23427  0.71362  1.0000
  H   H267      1.0  0.38120  0.28199  0.91482  1.0000
  H   H268      1.0  0.35957  0.27998  0.88817  1.0000
  H   H269      1.0  0.30107  0.17768  0.91800  1.0000
  H   H270      1.0  0.32678  0.22422  0.93211  1.0000
  H   H271      1.0  0.39284  0.22890  0.92803  1.0000
  H   H272      1.0  0.31547  0.17307  0.87920  1.0000
  H   H273      1.0  0.36392  0.25198  0.85093  1.0000
  H   H274      1.0  0.31564  0.23774  0.86216  1.0000
  H   H275      1.0  0.34130  0.16004  0.93498  1.0000
  H   H276      1.0  0.29881  0.25305  0.90313  1.0000
  H   H277      1.0  0.27332  0.20493  0.88960  1.0000
  H   H278      1.0  0.26080  0.21824  0.93978  1.0000
  H   H279      1.0  0.22950  0.21496  0.91620  1.0000
  H   H280      1.0  0.23442  0.17238  0.92431  1.0000
  H   H281      1.0  0.37727  0.12382  0.93323  1.0000
  N   N10       1.0  0.05785  0.03697  0.70030  1.0000
  H   H282      1.0  0.06201  0.45505  0.96792  1.0000
  H   H283      1.0  0.20285  0.40900  0.96474  1.0000
  C   C174      1.0  0.38233  0.16943  0.98753  1.0000
  C   C175      1.0  0.04855  0.12823  0.67800  1.0000
  H   H284      1.0  0.15205  0.22333  0.86655  1.0000
  H   H285      1.0  0.26926  0.11726  0.68034  1.0000
  H   H286      1.0  0.25813  0.39424  0.96913  1.0000
  C   C176      1.0  0.31132  0.19445  0.67688  1.0000
  H   H287      1.0  0.02989  0.42833  0.93154  1.0000
  H   H288      1.0  0.41960  0.26799  0.87244  1.0000
  H   H289      1.0  0.30965  0.29115  0.67674  1.0000
  C   C177      1.0  0.22707  0.36813  0.89849  1.0000
  H   H290      1.0  0.00524  0.06657  0.68470  1.0000
  H   H291      1.0  0.04367  0.05397  0.73251  1.0000
  H   H292      1.0  0.03284  0.09307  0.70916  1.0000
  H   H293      1.0  0.13834  0.05968  0.71098  1.0000
  C   C178      1.0  0.31682  0.16239  0.98486  1.0000
  H   H294      1.0  0.34110  0.20771  0.72207  1.0000
  H   H295      1.0  0.00517  0.01646  0.66266  1.0000
  H   H296      1.0  0.07690  0.44012  0.91835  1.0000
  H   H297      1.0  0.41084  0.15744  0.91116  1.0000
  H   H298      1.0  0.40280  0.01141  0.94845  1.0000
  H   H299      1.0  0.48532  0.06013  0.97831  1.0000
  H   H300      1.0  0.05148  0.12528  0.65934  1.0000
  H   H301      1.0  0.43173  0.22858  0.97938  1.0000
  C   C179      1.0  0.17211  0.28286  0.94430  1.0000
  C   C180      1.0  0.33407  0.20324  0.97856  1.0000
  C   C181      1.0  0.43380  0.32887  0.87614  1.0000
  H   H302      1.0  0.12958  0.17801  0.88399  1.0000
  C   C182      1.0  0.07607  0.02993  0.76581  1.0000
  H   H303      1.0  0.31280  0.22358  0.67335  1.0000
  N   N11       1.0  0.14629  0.49719  0.97650  1.0000
  C   C183      1.0  0.03542  0.08851  0.69077  1.0000
  H   H304      1.0  0.34279  0.14657  0.90575  1.0000
  H   H305      1.0  0.24112  0.04416  0.67245  1.0000
  H   H306      1.0  0.31529  0.21605  0.97523  1.0000
  C   C184      1.0  0.39233  0.15512  0.92632  1.0000
  C   C185      1.0  0.12232  0.46791  0.95825  1.0000
  H   H307      1.0  0.11830  0.22910  0.90150  1.0000
  H   H308      1.0  0.21606  0.12366  0.67192  1.0000
  H   H309      1.0  0.10667  0.35291  0.90525  1.0000
  H   H310      1.0  0.28466  0.14398  0.98642  1.0000
  C   C186      1.0  0.06654  0.04789  0.72513  1.0000
  C   C187      1.0  0.39956  0.21019  0.98103  1.0000
  C   C188      1.0  0.20049  0.38756  0.97774  1.0000
  H   H311      1.0  0.23028  0.35259  0.88359  1.0000
  H   H312      1.0  0.05511  0.40222  0.94100  1.0000
  S   S52       1.0  0.37996  0.36704  0.98534  1.0000
  H   H313      1.0  0.18291  0.21121  0.88433  1.0000
  H   H314      1.0  0.08562  0.49214  0.94493  1.0000
  H   H315      1.0  0.10001  0.36285  0.93447  1.0000
  H   H316      1.0  0.31397  0.12537  0.66744  1.0000
  C   C189      1.0  0.14353  0.30782  0.91545  1.0000
  H   H317      1.0  0.28600  0.05432  0.65704  1.0000
  C   C190      1.0  0.20421  0.27248  0.95205  1.0000
  H   H318      1.0  0.09570  0.09946  0.69070  1.0000
  H   H319      1.0  0.44080  0.28914  0.89942  1.0000
  C   C191      1.0  0.18164  0.27665  0.90266  1.0000
  H   H320      1.0  0.26515  0.42454  0.91536  1.0000
  N   N12       1.0  0.17862  0.30229  0.92079  1.0000
  H   H321      1.0  0.33540  0.18735  0.83045  1.0000
  H   H322      1.0  0.14800  0.02510  0.66602  1.0000
  H   H323      1.0  0.41484  0.32765  0.86161  1.0000
  C   C192      1.0  0.26652  0.40746  0.90067  1.0000
  H   H324      1.0  0.41207  0.17511  0.93974  1.0000
  C   C193      1.0  0.28624  0.12628  0.66380  1.0000
  C   C194      1.0  0.22430  0.15315  0.66401  1.0000
  H   H325      1.0  0.31261  0.21653  0.82252  1.0000
  C   C195      1.0  0.03112  0.16529  0.72826  1.0000
  H   H326      1.0  0.05280  0.03612  0.77234  1.0000
  H   H327      1.0  0.29156  0.40153  0.90313  1.0000
  H   H328      1.0  0.14462  0.31722  0.89718  1.0000
  H   H329      1.0  0.36153  0.25446  0.70567  1.0000
  H   H330      1.0  0.13354  0.32746  0.94873  1.0000
  H   H331      1.0  0.13917  0.47641  0.94171  1.0000
  H   H332      1.0  0.21057  0.25610  0.93896  1.0000
  C   C196      1.0  0.08149  0.46374  0.95250  1.0000
  C   C197      1.0  0.15362  0.20992  0.88326  1.0000
  H   H333      1.0  0.01755  0.07880  0.76892  1.0000
  Fe  Fe30      1.0  0.31789  0.35214  0.97448  1.0000
  H   H334      1.0  0.11703  0.43758  0.96311  1.0000
  H   H335      1.0  0.03498  0.18971  0.71708  1.0000
  C   C198      1.0  0.21723  0.34183  0.92066  1.0000
  H   H336      1.0  0.28953  0.18056  0.69142  1.0000
  H   H337      1.0  0.14867  0.21654  0.91919  1.0000
  H   H338      1.0  0.21575  0.24178  0.97983  1.0000
  H   H339      1.0  0.19497  0.47471  0.94717  1.0000
  H   H340      1.0  0.11511  0.27877  0.91742  1.0000
  H   H341      1.0  0.40715  0.21818  0.90146  1.0000
  H   H342      1.0  0.14209  0.25545  0.94576  1.0000
  H   H343      1.0  0.21077  0.27757  0.90353  1.0000
  H   H344      1.0  0.23247  0.30041  0.95560  1.0000
  C   C199      1.0  0.14818  0.23203  0.90308  1.0000
  H   H345      1.0  0.21793  0.35987  0.93532  1.0000
  H   H346      1.0  0.16537  0.36811  0.92928  1.0000
  H   H347      1.0  0.07476  0.31208  0.92495  1.0000
  C   C200      1.0  0.13867  0.33773  0.93053  1.0000
  H   H348      1.0  0.09538  0.07642  0.72687  1.0000
  H   H349      1.0  0.02584  0.13736  0.68076  1.0000
  H   H350      1.0  0.43341  0.34891  0.88931  1.0000
  C   C201      1.0  0.10279  0.34150  0.92323  1.0000
  H   H351      1.0  0.20352  0.37569  0.89482  1.0000
  S   S53       1.0  0.39904  0.27840  0.96751  1.0000
  N   N13       1.0  0.29644  0.16809  0.65635  1.0000
  C   C202      1.0  0.23180  0.37910  0.98009  1.0000
  C   C203      1.0  0.12986  0.05108  0.69306  1.0000
  C   C204      1.0  0.18401  0.49514  0.97976  1.0000
  C   C205      1.0  0.15355  0.03197  0.68445  1.0000
  H   H352      1.0  0.16436  0.21697  0.97091  1.0000
  C   C206      1.0  0.01488  0.00400  0.69860  1.0000
  C   C207      1.0  0.37560  0.22734  0.97655  1.0000
  H   H353      1.0  0.46496  0.34171  0.86962  1.0000
  C   C208      1.0  0.19113  0.24654  0.97398  1.0000
  C   C209      1.0  0.08430  0.02217  0.69091  1.0000
  C   C210      1.0  0.06757  0.01597  0.74117  1.0000
  H   H354      1.0  0.14526  0.00395  0.69440  1.0000
  H   H355      1.0  0.24784  0.48221  0.97445  1.0000
  H   H356      1.0  0.18594  0.05298  0.68667  1.0000
  H   H357      1.0  0.07902  0.01637  0.67234  1.0000
  S   S54       1.0  0.12714  0.37929  0.98751  1.0000
  C   C211      1.0  0.20968  0.50162  0.95790  1.0000
  H   H358      1.0  0.17672  0.46558  0.98757  1.0000
  H   H359      1.0  0.16384  0.14317  0.66462  1.0000
  H   H360      1.0  0.09106  0.00945  0.73575  1.0000
  H   H361      1.0  0.07603  0.00617  0.77687  1.0000
  C   C212      1.0  0.49707  0.50281  0.97253  1.0000
  C   C213      1.0  0.25659  0.05262  0.65547  1.0000
  Fe  Fe31      1.0  0.31816  0.96535  0.00512  1.0000
  C   C214      1.0  0.30755  0.96910  0.21033  1.0000
  H   H362      1.0  0.31352  0.88329  0.06057  1.0000
  H   H363      1.0  0.44905  0.90326  0.00484  1.0000
  H   H364      1.0  0.18347  0.93983  0.02469  1.0000
  C   C215      1.0  0.39957  0.90758  0.01665  1.0000
  H   H365      1.0  0.19186  0.77847  0.05397  1.0000
  H   H366      1.0  0.31128  0.98909  0.24485  1.0000
  H   H367      1.0  0.28742  0.83003  0.05554  1.0000
  S   S55       1.0  0.22358  0.98057  0.23003  1.0000
  H   H368      1.0  0.25242  0.88279  0.07642  1.0000
  C   C216      1.0  0.03086  0.52976  0.01149  1.0000
  H   H369      1.0  0.21076  0.89540  0.03615  1.0000
  Fe  Fe32      1.0  0.16672  0.98308  0.23136  1.0000
  S   S56       1.0  0.10624  0.92888  0.22475  1.0000
  C   C217      1.0  0.29454  0.85979  0.04838  1.0000
  C   C218      1.0  0.03480  0.97140  0.24559  1.0000
  C   C219      1.0  0.06855  0.96865  0.23981  1.0000
  C   C220      1.0  0.06414  0.93229  0.23296  1.0000
  C   C221      1.0  0.02567  0.89849  0.23221  1.0000
  H   H370      1.0  0.22884  0.95939  0.12203  1.0000
  H   H371      1.0  0.35408  0.98725  0.23473  1.0000
  H   H372      1.0  0.08137  0.99565  0.29443  1.0000
  S   S57       1.0  0.10280  0.78654  0.98971  1.0000
  C   C222      1.0  0.16963  0.86132  0.99113  1.0000
  H   H373      1.0  0.17006  0.83772  0.13495  1.0000
  H   H374      1.0  0.03749  0.99107  0.19725  1.0000
  H   H375      1.0  0.13533  0.81268  0.04782  1.0000
  C   C223      1.0  0.25633  0.98533  0.12699  1.0000
  H   H376      1.0  0.22220  0.88632  0.10740  1.0000
  H   H377      1.0  0.02210  0.87018  0.22704  1.0000
  C   C224      1.0  0.03418  0.99170  0.17830  1.0000
  H   H378      1.0  0.38245  0.92282  0.01295  1.0000
  S   S58       1.0  0.28646  0.97706  0.08609  1.0000
  H   H379      1.0  0.09805  0.99471  0.24044  1.0000
  H   H380      1.0  0.42906  0.89961  0.04647  1.0000
  C   C225      1.0  0.13645  0.74546  0.03668  1.0000
  H   H381      1.0  0.06051  0.95372  0.17041  1.0000
  H   H382      1.0  0.43114  0.94743  0.04458  1.0000
  C   C226      1.0  0.19730  0.88996  0.05355  1.0000
  H   H383      1.0  0.38533  0.90301  0.05299  1.0000
  H   H384      1.0  0.17212  0.81620  0.09529  1.0000
  C   C227      1.0  0.41217  0.91485  0.04167  1.0000
  H   H385      1.0  0.14809  0.76542  0.07122  1.0000
  H   H386      1.0  0.23170  0.99016  0.15932  1.0000
  H   H387      1.0  0.06826  0.99032  0.14833  1.0000
  C   C228      1.0  0.43642  0.92278  0.00057  1.0000
  H   H388      1.0  0.45911  0.95337  0.00583  1.0000
  H   H389      1.0  0.23082  0.83022  0.07656  1.0000
  C   C229      1.0  0.19038  0.87662  0.10432  1.0000
  H   H390      1.0  0.17721  0.82592  0.03013  1.0000
  H   H391      1.0  0.14049  0.93473  0.03991  1.0000
  Fe  Fe33      1.0  0.32490  0.00012  0.05330  1.0000
  H   H392      1.0  0.13960  0.83269  0.08537  1.0000
  C   C230      1.0  0.23282  0.85585  0.06637  1.0000
  C   C231      1.0  0.16629  0.81776  0.04811  1.0000
  H   H393      1.0  0.13787  0.86990  0.03905  1.0000
  C   C232      1.0  0.15869  0.89242  0.05112  1.0000
  C   C233      1.0  0.16847  0.93363  0.04176  1.0000
  H   H394      1.0  0.20395  0.51784  0.99212  1.0000
  C   C234      1.0  0.21114  0.88839  0.99066  1.0000
  H   H395      1.0  0.13636  0.85467  0.12541  1.0000
  C   C235      1.0  0.17182  0.84223  0.08700  1.0000
  H   H396      1.0  0.14293  0.88734  0.06781  1.0000
  H   H397      1.0  0.03827  0.53714  0.02922  1.0000
  H   H398      1.0  0.00907  0.62531  0.01861  1.0000
  H   H399      1.0  0.31155  0.86545  0.03205  1.0000
  H   H400      1.0  0.18834  0.95720  0.05366  1.0000
  N   N14       1.0  0.19202  0.85142  0.06375  1.0000
  C   C236      1.0  0.06651  0.98465  0.16711  1.0000
  C   C237      1.0  0.25626  0.86079  0.04376  1.0000
  H   H401      1.0  0.21933  0.91601  0.06335  1.0000
  H   H402      1.0  0.18210  0.88850  0.13944  1.0000
  H   H403      1.0  0.18863  0.90295  0.09801  1.0000
  C   C238      1.0  0.16824  0.86338  0.12740  1.0000
  S   S59       1.0  0.35120  0.96643  0.03675  1.0000
  H   H404      1.0  0.18291  0.91543  0.30884  1.0000
  H   H405      1.0  0.23869  0.83679  0.03159  1.0000
  H   H406      1.0  0.10614  0.74194  0.03613  1.0000
  H   H407      1.0  0.15039  0.75453  0.01931  1.0000
  H   H408      1.0  0.13334  0.71605  0.04146  1.0000
  H   H409      1.0  0.14944  0.87101  0.99707  1.0000
  H   H410      1.0  0.26495  0.89002  0.03522  1.0000
  C   C239      1.0  0.16233  0.77661  0.05409  1.0000
  H   H411      1.0  0.29060  0.93740  0.21650  1.0000
  C   C240      1.0  0.33174  0.99585  0.22989  1.0000
  H   H412      1.0  0.37983  0.87481  0.01497  1.0000
  H   H413      1.0  0.16772  0.53899  0.01596  1.0000
  C   C241      1.0  0.14711  0.50684  0.02016  1.0000
  H   H414      1.0  0.04185  0.58902  0.00170  1.0000
  S   S60       1.0  0.28840  0.99464  0.02239  1.0000
  H   H415      1.0  0.22271  0.91887  0.99591  1.0000
  C   C242      1.0  0.28989  0.00135  0.11216  1.0000
  H   H416      1.0  0.32775  0.97165  0.19602  1.0000
  H   H417      1.0  0.03858  0.99986  0.25044  1.0000
  H   H418      1.0  0.13805  0.51922  0.05503  1.0000
  S   S61       1.0  0.27304  0.99995  0.28897  1.0000
  C   C243      1.0  0.03279  0.55933  0.99590  1.0000
  H   H419      1.0  0.28603  0.97776  0.20368  1.0000
  H   H420      1.0  0.10267  0.51898  0.03499  1.0000
  H   H421      1.0  0.00580  0.96002  0.13668  1.0000
  H   H422      1.0  0.13062  0.56006  0.99492  1.0000
  C   C244      1.0  0.11984  0.50408  0.03991  1.0000
  C   C245      1.0  0.48729  0.50372  0.99554  1.0000
  C   C246      1.0  0.25785  0.00274  0.14819  1.0000
  N   N15       1.0  0.20594  0.91403  0.38866  1.0000
  H   H423      1.0  0.23174  0.86049  0.40822  1.0000
  C   C247      1.0  0.29337  0.89203  0.39873  1.0000
  H   H424      1.0  0.22827  0.92013  0.33876  1.0000
  C   C248      1.0  0.19752  0.70324  0.45107  1.0000
  H   H425      1.0  0.49833  0.51606  0.56497  1.0000
  Fe  Fe34      1.0  0.05344  0.73924  0.51007  1.0000
  S   S62       1.0  0.09006  0.79391  0.48659  1.0000
  S   S63       1.0  0.07574  0.71109  0.53569  1.0000
  Fe  Fe35      1.0  0.31575  0.96480  0.46131  1.0000
  S   S64       1.0  0.27854  0.89823  0.47079  1.0000
  S   S65       1.0  0.35539  0.98381  0.42969  1.0000
  H   H426      1.0  0.35134  0.50517  0.47184  1.0000
  C   C249      1.0  0.03283  0.74984  0.61751  1.0000
  C   C250      1.0  0.14252  0.68569  0.50938  1.0000
  H   H427      1.0  0.24359  0.96947  0.40580  1.0000
  C   C251      1.0  0.03130  0.55804  0.50265  1.0000
  H   H428      1.0  0.17130  0.65873  0.53009  1.0000
  N   N16       1.0  0.14793  0.67352  0.48583  1.0000
  C   C252      1.0  0.13123  0.60536  0.46772  1.0000
  H   H429      1.0  0.19188  0.73592  0.47914  1.0000
  C   C253      1.0  0.14295  0.82419  0.48517  1.0000
  C   C254      1.0  0.16026  0.86367  0.47633  1.0000
  C   C255      1.0  0.20196  0.88739  0.47282  1.0000
  C   C256      1.0  0.22662  0.87138  0.47742  1.0000
  C   C257      1.0  0.20939  0.83213  0.48660  1.0000
  C   C258      1.0  0.16787  0.80891  0.49082  1.0000
  H   H430      1.0  0.14126  0.87588  0.47210  1.0000
  H   H431      1.0  0.21498  0.91775  0.46616  1.0000
  H   H432      1.0  0.22832  0.81969  0.49047  1.0000
  H   H433      1.0  0.15507  0.77899  0.49800  1.0000
  C   C259      1.0  0.13752  0.56963  0.47140  1.0000
  C   C260      1.0  0.25494  0.89212  0.40475  1.0000
  H   H434      1.0  0.17363  0.70070  0.43965  1.0000
  S   S66       1.0  0.03723  0.59773  0.52052  1.0000
  H   H435      1.0  0.09866  0.59323  0.46567  1.0000
  H   H436      1.0  0.49492  0.94246  0.52801  1.0000
  C   C261      1.0  0.21387  0.94179  0.40825  1.0000
  H   H437      1.0  0.20205  0.67739  0.44876  1.0000
  H   H438      1.0  0.44677  0.84376  0.43897  1.0000
  H   H439      1.0  0.21257  0.70571  0.48639  1.0000
  C   C262      1.0  0.23620  0.74081  0.44325  1.0000
  H   H440      1.0  0.39781  0.52317  0.44462  1.0000
  H   H441      1.0  0.23318  0.76784  0.44461  1.0000
  Fe  Fe36      1.0  0.02949  0.71023  0.55971  1.0000
  H   H442      1.0  0.11676  0.80279  0.43660  1.0000
  H   H443      1.0  0.46063  0.87613  0.41386  1.0000
  H   H444      1.0  0.45719  0.89067  0.52445  1.0000
  H   H445      1.0  0.20322  0.71129  0.52328  1.0000
  H   H446      1.0  0.16990  0.57968  0.47171  1.0000
  C   C263      1.0  0.24240  0.91013  0.38472  1.0000
  C   C264      1.0  0.18284  0.95558  0.41156  1.0000
  H   H447      1.0  0.10008  0.71404  0.48437  1.0000
  C   C265      1.0  0.18598  0.97324  0.43511  1.0000
  C   C266      1.0  0.11020  0.70725  0.46816  1.0000
  C   C267      1.0  0.11371  0.66919  0.47142  1.0000
  S   S67       1.0  0.04190  0.72039  0.59798  1.0000
  H   H448      1.0  0.35709  0.53903  0.41800  1.0000
  H   H449      1.0  0.05371  0.53374  0.52831  1.0000
  H   H450      1.0  0.30297  0.88117  0.41383  1.0000
  C   C268      1.0  0.03899  0.74671  0.64102  1.0000
  H   H451      1.0  0.16368  0.72763  0.55013  1.0000
  H   H452      1.0  0.18345  0.69938  0.56408  1.0000
  H   H453      1.0  0.11186  0.66478  0.51607  1.0000
  H   H454      1.0  0.05042  0.72760  0.64672  1.0000
  H   H455      1.0  0.13534  0.79428  0.41031  1.0000
  H   H456      1.0  0.26049  0.90947  0.42052  1.0000
  C   C269      1.0  0.01809  0.77472  0.61042  1.0000
  C   C270      1.0  0.01426  0.79168  0.65029  1.0000
  C   C271      1.0  0.18806  0.70571  0.47651  1.0000
  H   H457      1.0  0.40928  0.56491  0.40989  1.0000
  H   H458      1.0  0.09762  0.80906  0.40976  1.0000
  H   H459      1.0  0.13134  0.67483  0.55685  1.0000
  H   H460      1.0  0.24289  0.73813  0.42508  1.0000
  H   H461      1.0  0.09032  0.69862  0.43280  1.0000
  H   H462      1.0  0.14630  0.62075  0.45146  1.0000
  H   H463      1.0  0.12320  0.55336  0.48774  1.0000
  H   H464      1.0  0.07508  0.72757  0.44945  1.0000
  H   H465      1.0  0.13904  0.73364  0.46268  1.0000
  C   C272      1.0  0.18101  0.92789  0.32545  1.0000
  H   H466      1.0  0.21638  0.92840  0.42466  1.0000
  S   S68       1.0  0.01016  0.74217  0.53490  1.0000
  H   H467      1.0  0.37430  0.52184  0.39427  1.0000
  C   C273      1.0  0.49880  0.53783  0.48730  1.0000
  H   H468      1.0  0.17157  0.85053  0.38243  1.0000
  H   H469      1.0  0.17862  0.88009  0.34615  1.0000
  H   H470      1.0  0.18333  0.85964  0.42714  1.0000
  C   C274      1.0  0.15767  0.85711  0.41755  1.0000
  H   H471      1.0  0.49180  0.91559  0.44791  1.0000
  C   C275      1.0  0.07957  0.70134  0.44995  1.0000
  H   H472      1.0  0.17613  0.63814  0.49317  1.0000
  H   H473      1.0  0.08482  0.64528  0.47909  1.0000
  H   H474      1.0  0.14203  0.87316  0.38558  1.0000
  H   H475      1.0  0.17275  0.93546  0.36893  1.0000
  H   H476      1.0  0.23812  0.89082  0.36994  1.0000
  H   H477      1.0  0.14625  0.87408  0.42692  1.0000
  H   H478      1.0  0.22536  0.96528  0.36543  1.0000
  C   C276      1.0  0.16194  0.69804  0.55111  1.0000
  H   H479      1.0  0.15185  0.93050  0.40953  1.0000
  C   C277      1.0  0.04238  0.53062  0.51113  1.0000
  H   H480      1.0  0.28842  0.87194  0.38428  1.0000
  C   C278      1.0  0.19792  0.91307  0.34443  1.0000
  H   H481      1.0  0.05039  0.67405  0.45395  1.0000
  H   H482      1.0  0.31776  0.92268  0.39392  1.0000
  C   C279      1.0  0.20049  0.93370  0.36738  1.0000
  H   H483      1.0  0.14533  0.71572  0.50866  1.0000
  C   C280      1.0  0.14632  0.63360  0.48839  1.0000
  H   H484      1.0  0.11492  0.65873  0.45409  1.0000
  C   C281      1.0  0.16895  0.87333  0.39244  1.0000
  C   C282      1.0  0.12482  0.81310  0.41847  1.0000
  C   C283      1.0  0.17220  0.68775  0.52787  1.0000
  H   H485      1.0  0.26168  0.74468  0.45379  1.0000
  H   H486      1.0  0.12560  0.61540  0.50281  1.0000
  H   H487      1.0  0.26852  0.94003  0.38016  1.0000
  C   C284      1.0  0.38914  0.50820  0.42802  1.0000
  H   H488      1.0  0.48412  0.84657  0.41899  1.0000
  H   H489      1.0  0.46815  0.89746  0.48302  1.0000
  Fe  Fe37      1.0  0.02698  0.65164  0.52283  1.0000
  H   H490      1.0  0.47824  0.54877  0.48960  1.0000
  H   H491      1.0  0.49764  0.85598  0.46795  1.0000
  S   S69       1.0  0.00744  0.68002  0.49559  1.0000
  H   H492      1.0  0.12370  0.54843  0.45723  1.0000
  C   C285      1.0  0.47209  0.86396  0.42735  1.0000
  H   H493      1.0  0.32938  0.99847  0.36415  1.0000
  H   H494      1.0  0.35526  0.51158  0.51358  1.0000
  H   H495      1.0  0.16411  0.98370  0.43664  1.0000
  H   H496      1.0  0.44965  0.93008  0.51303  1.0000
  H   H497      1.0  0.17929  0.95033  0.44886  1.0000
  H   H498      1.0  0.18836  0.97930  0.39853  1.0000
  C   C286      1.0  0.30367  0.99889  0.33131  1.0000
  C   C287      1.0  0.38183  0.53500  0.41152  1.0000
  C   C288      1.0  0.47231  0.92098  0.51616  1.0000
  H   H499      1.0  0.14919  0.91814  0.32913  1.0000
  C   C289      1.0  0.01676  0.55344  0.48034  1.0000
  H   H500      1.0  0.31244  0.97921  0.32360  1.0000
  C   C290      1.0  0.00864  0.79527  0.62673  1.0000
  C   C291      1.0  0.01335  0.52185  0.46688  1.0000
  H   H501      1.0  0.01358  0.77777  0.59240  1.0000
  H   H502      1.0  0.41523  0.50679  0.42128  1.0000
  C   C292      1.0  0.49199  0.92084  0.49344  1.0000
  H   H503      1.0  0.19830  0.96104  0.32369  1.0000
  H   H504      1.0  0.00854  0.57439  0.47339  1.0000
  H   H505      1.0  0.21642  0.99918  0.43746  1.0000
  S   S70       1.0  0.05899  0.82150  0.72894  1.0000
  S   S71       1.0  0.07348  0.75801  0.88191  1.0000
  C   C293      1.0  0.15750  0.53942  0.96913  1.0000
  Fe  Fe38      1.0  0.08460  0.88595  0.73844  1.0000
  S   S72       1.0  0.15180  0.92442  0.73923  1.0000
  H   H506      1.0  0.03955  0.98803  0.82459  1.0000
  Fe  Fe39      1.0  0.06552  0.73582  0.96561  1.0000
  S   S73       1.0  0.08804  0.70969  0.93946  1.0000
  C   C294      1.0  0.05054  0.75667  0.85536  1.0000
  S   S74       1.0  0.04540  0.87164  0.76960  1.0000
  H   H507      1.0  0.34869  0.88303  0.95429  1.0000
  C   C295      1.0  0.22206  0.83650  0.97627  1.0000
  H   H508      1.0  0.38413  0.94080  0.97746  1.0000
  C   C296      1.0  0.02993  0.76758  0.65731  1.0000
  H   H509      1.0  0.40102  0.93450  0.93391  1.0000
  Fe  Fe40      1.0  0.01647  0.80802  0.75882  1.0000
  Fe  Fe41      1.0  0.03342  0.64999  0.94963  1.0000
  H   H510      1.0  0.27968  0.90070  0.74427  1.0000
  H   H511      1.0  0.16349  0.80169  0.86184  1.0000
  Fe  Fe42      1.0  0.04835  0.71951  0.91491  1.0000
  N   N17       1.0  0.42940  0.92320  0.97519  1.0000
  C   C297      1.0  0.06305  0.79273  0.84291  1.0000
  C   C298      1.0  0.04688  0.79301  0.82133  1.0000
  H   H512      1.0  0.08527  0.82063  0.85008  1.0000
  H   H513      1.0  0.05634  0.82094  0.81207  1.0000
  S   S75       1.0  0.29017  0.90773  0.98515  1.0000
  C   C299      1.0  0.49648  0.58635  0.92806  1.0000
  H   H514      1.0  0.48930  0.58201  0.90959  1.0000
  H   H515      1.0  0.07646  0.99264  0.69895  1.0000
  C   C300      1.0  0.41351  0.96183  0.94423  1.0000
  H   H516      1.0  0.15279  0.95875  0.79783  1.0000
  H   H517      1.0  0.03424  0.76430  0.67534  1.0000
  C   C301      1.0  0.12834  0.55414  0.97633  1.0000
  C   C302      1.0  0.46951  0.93954  0.96313  1.0000
  H   H518      1.0  0.24225  0.82659  0.97069  1.0000
  H   H519      1.0  0.16171  0.54324  0.95018  1.0000
  H   H520      1.0  0.46587  0.93850  0.94423  1.0000
  H   H521      1.0  0.20250  0.92095  0.80889  1.0000
  C   C303      1.0  0.38879  0.98205  0.94003  1.0000
  H   H522      1.0  0.11324  0.93173  0.81869  1.0000
  H   H523      1.0  0.21317  0.85298  0.76397  1.0000
  H   H524      1.0  0.09680  0.53200  0.97309  1.0000
  S   S76       1.0  0.02804  0.74764  0.94095  1.0000
  H   H525      1.0  0.47395  0.88506  0.96850  1.0000
  H   H526      1.0  0.09499  0.73567  0.76272  1.0000
  C   C304      1.0  0.41441  0.95183  0.97003  1.0000
  C   C305      1.0  0.25084  0.50793  0.96394  1.0000
  C   C306      1.0  0.01215  0.51164  0.96575  1.0000
  C   C307      1.0  0.27785  0.92623  0.75128  1.0000
  H   H527      1.0  0.40870  0.87836  0.94898  1.0000
  Fe  Fe43      1.0  0.01596  0.83098  0.70764  1.0000
  C   C308      1.0  0.17691  0.97715  0.73647  1.0000
  H   H528      1.0  0.29894  0.81298  0.96268  1.0000
  C   C309      1.0  0.21563  0.99664  0.72710  1.0000
  H   H529      1.0  0.26780  0.51049  0.94800  1.0000
  C   C310      1.0  0.02366  0.55059  0.97281  1.0000
  H   H530      1.0  0.19117  0.79341  0.83993  1.0000
  H   H531      1.0  0.26812  0.53585  0.97359  1.0000
  H   H532      1.0  0.08110  0.75265  0.78767  1.0000
  H   H533      1.0  0.01460  0.97560  0.66631  1.0000
  H   H534      1.0  0.16898  0.77893  0.97144  1.0000
  H   H535      1.0  0.25296  0.94039  0.77987  1.0000
  H   H536      1.0  0.22876  0.97929  0.72137  1.0000
  H   H537      1.0  0.05577  0.82411  0.91015  1.0000
  C   C311      1.0  0.25290  0.91357  0.77343  1.0000
  H   H538      1.0  0.43333  0.98075  0.97859  1.0000
  H   H539      1.0  0.38763  0.98736  0.92137  1.0000
  C   C312      1.0  0.16041  0.99999  0.74415  1.0000
  H   H540      1.0  0.03863  0.98778  0.74120  1.0000
  H   H541      1.0  0.01908  0.82146  0.93061  1.0000
  S   S77       1.0  0.04495  0.89679  0.71524  1.0000
  C   C313      1.0  0.35597  0.86681  0.96757  1.0000
  H   H542      1.0  0.16443  0.95007  0.82670  1.0000
  H   H543      1.0  0.11739  0.60323  0.96963  1.0000
  H   H544      1.0  0.26448  0.93730  0.73830  1.0000
  H   H545      1.0  0.07797  0.77110  0.75951  1.0000
  C   C314      1.0  0.20986  0.87864  0.76927  1.0000
  H   H546      1.0  0.05088  0.86740  0.91480  1.0000
  H   H547      1.0  0.21310  0.84118  0.85392  1.0000
  H   H548      1.0  0.44435  0.98289  0.93778  1.0000
  N   N18       1.0  0.18083  0.86679  0.78923  1.0000
  C   C315      1.0  0.14057  0.83462  0.78110  1.0000
  C   C316      1.0  0.17927  0.90369  0.79605  1.0000
  C   C317      1.0  0.03409  0.83427  0.91378  1.0000
  C   C318      1.0  0.19602  0.85199  0.80870  1.0000
  C   C319      1.0  0.16691  0.83134  0.82929  1.0000
  C   C320      1.0  0.13866  0.79607  0.77229  1.0000
  C   C321      1.0  0.14278  0.93705  0.81260  1.0000
  C   C322      1.0  0.13891  0.89752  0.80532  1.0000
  C   C323      1.0  0.18050  0.80950  0.97653  1.0000
  C   C324      1.0  0.18501  0.81609  0.84727  1.0000
  C   C325      1.0  0.09553  0.76192  0.77044  1.0000
  H   H549      1.0  0.46855  0.57771  0.93789  1.0000
  H   H550      1.0  0.13022  0.84682  0.76690  1.0000
  H   H551      1.0  0.11746  0.82527  0.79476  1.0000
  H   H552      1.0  0.00829  0.95866  0.80173  1.0000
  H   H553      1.0  0.18684  0.92488  0.78114  1.0000
  H   H554      1.0  0.22366  0.87723  0.81576  1.0000
  H   H555      1.0  0.30861  0.95081  0.75471  1.0000
  H   H556      1.0  0.26812  0.90419  0.78610  1.0000
  C   C326      1.0  0.02153  0.72081  0.84600  1.0000
  H   H557      1.0  0.13856  0.80507  0.82395  1.0000
  H   H558      1.0  0.16051  0.85284  0.83781  1.0000
  H   H559      1.0  0.15268  0.80193  0.75495  1.0000
  H   H560      1.0  0.15411  0.78529  0.78381  1.0000
  H   H561      1.0  0.20552  0.83101  0.80246  1.0000
  H   H562      1.0  0.33937  0.81586  0.94576  1.0000
  H   H563      1.0  0.11638  0.88578  0.79167  1.0000
  H   H564      1.0  0.12737  0.87629  0.82013  1.0000
  H   H565      1.0  0.13096  0.98504  0.75204  1.0000
  H   H566      1.0  0.19797  0.88701  0.75405  1.0000
  C   C327      1.0  0.00808  0.96947  0.81915  1.0000
  C   C328      1.0  0.40148  0.88139  0.96704  1.0000
  C   C329      1.0  0.33114  0.82220  0.96275  1.0000
  S   S78       1.0  0.02654  0.58678  0.95194  1.0000
  C   C330      1.0  0.23762  0.87580  0.98380  1.0000
  H   H567      1.0  0.18710  0.56159  0.97604  1.0000
  H   H568      1.0  0.34568  0.87173  0.98420  1.0000
  C   C331      1.0  0.15410  0.82155  0.98443  1.0000
  H   H569      1.0  0.13367  0.58807  0.94489  1.0000
  C   C332      1.0  0.13795  0.59298  0.96358  1.0000
  H   H570      1.0  0.16916  0.61684  0.96674  1.0000
  C   C333      1.0  0.01830  0.75709  0.81181  1.0000
  S   S79       1.0  0.01366  0.67588  0.97751  1.0000
  H   H571      1.0  0.01997  0.83683  0.87871  1.0000
  H   H572      1.0  0.40613  0.85927  0.97707  1.0000
  H   H573      1.0  0.33571  0.80424  0.97623  1.0000
  H   H574      1.0  0.01192  0.69280  0.85524  1.0000
  H   H575      1.0  0.35770  0.96288  0.94668  1.0000
  H   H576      1.0  0.21398  0.52804  0.94763  1.0000
  Fe  Fe44      1.0  0.00307  0.87721  0.74562  1.0000
  H   H577      1.0  0.01001  0.97650  0.70798  1.0000
  H   H578      1.0  0.48927  0.97172  0.96698  1.0000
  C   C334      1.0  0.49336  0.91807  0.96885  1.0000
  C   C335      1.0  0.00554  0.72108  0.82435  1.0000
  C   C336      1.0  0.00335  0.82165  0.89482  1.0000
  H   H579      1.0  0.00475  0.50425  0.94801  1.0000
  C   C337      1.0  0.85589  0.01175  0.23310  1.0000
  C   C338      1.0  0.98890  0.04275  0.27211  1.0000
  C   C339      1.0  0.90277  0.20922  0.16250  1.0000
  H   H580      1.0  0.80442  0.25717  0.17390  1.0000
  C   C340      1.0  0.86775  0.32684  0.01028  1.0000
  H   H581      1.0  0.81984  0.16953  0.05561  1.0000
  C   C341      1.0  0.79337  0.01159  0.23445  1.0000
  H   H582      1.0  0.80620  0.24106  0.20303  1.0000
  S   S80       1.0  0.96633  0.33483  0.03390  1.0000
  H   H583      1.0  0.88178  0.11508  0.18377  1.0000
  Fe  Fe45      1.0  0.94751  0.16349  0.23569  1.0000
  N   N19       1.0  0.90792  0.24833  0.17074  1.0000
  C   C342      1.0  0.82110  0.26606  0.19017  1.0000
  H   H584      1.0  0.89224  0.16610  0.04544  1.0000
  S   S81       1.0  0.88040  0.12789  0.23404  1.0000
  C   C343      1.0  0.87694  0.05412  0.23292  1.0000
  C   C344      1.0  0.85601  0.07502  0.23382  1.0000
  C   C345      1.0  0.81423  0.05352  0.23441  1.0000
  H   H585      1.0  0.90918  0.07063  0.23208  1.0000
  H   H586      1.0  0.79781  0.06934  0.23503  1.0000
  C   C346      1.0  0.79695  0.24976  0.09529  1.0000
  H   H587      1.0  0.83624  0.22894  0.08513  1.0000
  H   H588      1.0  0.98557  0.32185  0.18171  1.0000
  C   C347      1.0  0.95308  0.04303  0.26160  1.0000
  H   H589      1.0  0.98164  0.09644  0.14364  1.0000
  C   C348      1.0  0.82236  0.24501  0.07690  1.0000
  C   C349      1.0  0.96107  0.30755  0.19478  1.0000
  H   H590      1.0  0.91401  0.47390  0.03719  1.0000
  H   H591      1.0  0.84590  0.27551  0.07133  1.0000
  C   C350      1.0  0.83810  0.19315  0.04245  1.0000
  C   C351      1.0  0.86711  0.24077  0.17781  1.0000
  H   H592      1.0  0.87309  0.27520  0.03877  1.0000
  H   H593      1.0  0.90723  0.24264  0.12028  1.0000
  H   H594      1.0  0.87194  0.25683  0.13022  1.0000
  H   H595      1.0  0.85476  0.48146  0.99754  1.0000
  H   H596      1.0  0.77330  0.22001  0.10203  1.0000
  H   H597      1.0  0.92753  0.20414  0.06376  1.0000
  C   C352      1.0  0.93595  0.26170  0.19086  1.0000
  H   H598      1.0  0.77054  0.21079  0.01416  1.0000
  H   H599      1.0  0.95865  0.25225  0.18881  1.0000
  H   H600      1.0  0.85474  0.21818  0.19215  1.0000
  C   C353      1.0  0.90608  0.45776  0.02082  1.0000
  H   H601      1.0  0.90237  0.23402  0.03600  1.0000
  H   H602      1.0  0.95495  0.31510  0.10910  1.0000
  H   H603      1.0  0.97732  0.01806  0.28505  1.0000
  C   C354      1.0  0.79642  0.22080  0.05669  1.0000
  H   H604      1.0  0.88682  0.23693  0.06439  1.0000
  H   H605      1.0  0.92944  0.30789  0.15574  1.0000
  N   N20       1.0  0.81846  0.21750  0.03629  1.0000
  S   S82       1.0  0.98551  0.17153  0.20490  1.0000
  C   C355      1.0  0.55973  0.02780  0.00084  1.0000
  H   H606      1.0  0.78278  0.26647  0.08820  1.0000
  H   H607      1.0  0.84558  0.22704  0.16370  1.0000
  H   H608      1.0  0.92557  0.44455  0.01852  1.0000
  H   H609      1.0  0.93132  0.01247  0.25598  1.0000
  C   C356      1.0  0.88978  0.13881  0.17033  1.0000
  H   H610      1.0  0.82009  0.29232  0.19671  1.0000
  C   C357      1.0  0.88215  0.21612  0.05052  1.0000
  H   H611      1.0  0.93773  0.05199  0.27425  1.0000
  C   C358      1.0  0.89175  0.17558  0.18095  1.0000
  C   C359      1.0  0.90411  0.26695  0.12805  1.0000
  H   H612      1.0  0.81691  0.29087  0.03217  1.0000
  H   H613      1.0  0.91924  0.24646  0.20700  1.0000
  H   H614      1.0  0.86217  0.16589  0.18900  1.0000
  H   H615      1.0  0.73826  0.14757  0.03817  1.0000
  H   H616      1.0  0.77742  0.23356  0.05137  1.0000
  H   H617      1.0  0.91643  0.32637  0.11675  1.0000
  C   C360      1.0  0.86458  0.27708  0.18624  1.0000
  H   H618      1.0  0.94823  0.05148  0.19737  1.0000
  H   H619      1.0  0.87907  0.19625  0.14939  1.0000
  C   C361      1.0  0.84911  0.25806  0.02644  1.0000
  H   H620      1.0  0.88810  0.34218  0.02466  1.0000
  H   H621      1.0  0.87967  0.28661  0.20293  1.0000
  H   H622      1.0  0.91428  0.18549  0.19462  1.0000
  H   H623      1.0  0.95719  0.28525  0.14769  1.0000
  H   H624      1.0  0.77182  0.13305  0.02615  1.0000
  H   H625      1.0  0.97155  0.02433  0.16620  1.0000
  H   H626      1.0  0.90877  0.29270  0.09391  1.0000
  H   H627      1.0  0.77505  0.19056  0.06397  1.0000
  H   H628      1.0  0.99728  0.34945  0.22062  1.0000
  C   C362      1.0  0.78822  0.19589  0.01788  1.0000
  H   H629      1.0  0.87774  0.16983  0.07442  1.0000
  C   C363      1.0  0.92217  0.30250  0.11099  1.0000
  H   H630      1.0  0.86667  0.12662  0.15693  1.0000
  H   H631      1.0  0.93050  0.21450  0.15377  1.0000
  C   C364      1.0  0.89889  0.19846  0.99143  1.0000
  S   S83       1.0  0.97951  0.22906  0.24369  1.0000
  C   C365      1.0  0.98035  0.31659  0.21829  1.0000
  H   H632      1.0  0.91924  0.14653  0.16276  1.0000
  H   H633      1.0  0.83895  0.17658  0.02735  1.0000
  C   C366      1.0  0.89554  0.18711  0.05906  1.0000
  H   H634      1.0  0.81617  0.26681  0.10970  1.0000
  H   H635      1.0  0.87610  0.13729  0.00302  1.0000
  Fe  Fe46      1.0  0.97697  0.31130  0.00136  1.0000
  C   C367      1.0  0.75714  0.15103  0.02301  1.0000
  H   H636      1.0  0.87445  0.43316  0.02167  1.0000
  H   H637      1.0  0.94320  0.32251  0.19340  1.0000
  H   H638      1.0  0.00105  0.28012  0.30496  1.0000
  H   H639      1.0  0.92594  0.21007  0.00126  1.0000
  H   H640      1.0  0.87803  0.30256  0.17372  1.0000
  H   H641      1.0  0.96294  0.06389  0.24649  1.0000
  C   C368      1.0  0.52878  0.02484  0.01520  1.0000
  H   H642      1.0  0.86464  0.25410  0.01155  1.0000
  H   H643      1.0  0.00192  0.09630  0.29067  1.0000
  H   H644      1.0  0.93923  0.00955  0.21564  1.0000
  C   C369      1.0  0.92611  0.27872  0.15119  1.0000
  C   C370      1.0  0.87068  0.15722  0.99230  1.0000
  C   C371      1.0  0.94065  0.01967  0.19758  1.0000
  H   H645      1.0  0.88514  0.32355  0.99616  1.0000
  C   C372      1.0  0.97243  0.01563  0.18428  1.0000
  C   C373      1.0  0.83329  0.28590  0.01822  1.0000
  H   H646      1.0  0.58033  0.01884  0.00725  1.0000
  H   H647      1.0  0.80388  0.19742  0.00155  1.0000
  H   H648      1.0  0.95730  0.30259  0.23214  1.0000
  S   S84       1.0  0.98305  0.14838  0.25966  1.0000
  H   H649      1.0  0.97646  0.21830  0.11551  1.0000
  C   C374      1.0  0.91279  0.48660  0.00076  1.0000
  S   S85       1.0  0.99488  0.27960  0.08132  1.0000
  H   H650      1.0  0.70700  0.10075  0.00701  1.0000
  H   H651      1.0  0.99512  0.21919  0.15626  1.0000
  H   H652      1.0  0.52592  0.01348  0.03261  1.0000
  C   C375      1.0  0.99697  0.24647  0.12315  1.0000
  H   H653      1.0  0.00169  0.30546  0.21975  1.0000
  H   H654      1.0  0.97957  0.12862  0.16460  1.0000
  C   C376      1.0  0.72918  0.13258  0.00284  1.0000
  H   H655      1.0  0.85577  0.34594  0.00389  1.0000
  H   H656      1.0  0.71269  0.14864  0.99907  1.0000
  H   H657      1.0  0.81325  0.27309  0.00343  1.0000
  H   H658      1.0  0.00173  0.03727  0.19154  1.0000
  C   C377      1.0  0.99950  0.11967  0.15620  1.0000
  H   H659      1.0  0.97303  0.03330  0.32042  1.0000
  H   H660      1.0  0.60454  0.12885  0.50383  1.0000
  S   S86       1.0  0.96383  0.25536  0.49009  1.0000
  H   H661      1.0  0.85187  0.23554  0.41867  1.0000
  H   H662      1.0  0.71768  0.15634  0.55064  1.0000
  H   H663      1.0  0.83587  0.17735  0.64230  1.0000
  C   C378      1.0  0.91375  0.24828  0.41335  1.0000
  C   C379      1.0  0.54924  0.12910  0.50916  1.0000
  S   S87       1.0  0.68076  0.03582  0.48532  1.0000
  H   H664      1.0  0.53593  0.11167  0.49360  1.0000
  Fe  Fe47      1.0  0.73642  0.08241  0.50237  1.0000
  S   S88       1.0  0.77485  0.14286  0.48382  1.0000
  S   S89       1.0  0.70404  0.07809  0.53539  1.0000
  C   C380      1.0  0.91136  0.22455  0.48775  1.0000
  C   C381      1.0  0.88775  0.23852  0.47771  1.0000
  C   C382      1.0  0.84599  0.21314  0.47662  1.0000
  C   C383      1.0  0.82744  0.17369  0.48562  1.0000
  C   C384      1.0  0.85111  0.15971  0.49550  1.0000
  C   C385      1.0  0.89280  0.18510  0.49670  1.0000
  H   H665      1.0  0.90161  0.26899  0.47106  1.0000
  H   H666      1.0  0.82792  0.22421  0.46889  1.0000
  H   H667      1.0  0.83727  0.12913  0.50198  1.0000
  H   H668      1.0  0.91086  0.17402  0.50443  1.0000
  H   H669      1.0  0.55149  0.18574  0.50289  1.0000
  H   H670      1.0  0.87150  0.21525  0.34038  1.0000
  H   H671      1.0  0.73216  0.18354  0.52361  1.0000
  H   H672      1.0  0.96847  0.26849  0.54829  1.0000
  C   C386      1.0  0.79002  0.04407  0.64394  1.0000
  H   H673      1.0  0.86102  0.19275  0.38164  1.0000
  H   H674      1.0  0.91762  0.32145  0.40567  1.0000
  Fe  Fe48      1.0  0.71872  0.03063  0.54624  1.0000
  H   H675      1.0  0.51248  0.17183  0.43039  1.0000
  H   H676      1.0  0.85142  0.12081  0.40514  1.0000
  C   C387      1.0  0.59467  0.15104  0.50626  1.0000
  H   H677      1.0  0.98702  0.05356  0.36088  1.0000
  C   C388      1.0  0.56643  0.04188  0.47901  1.0000
  H   H678      1.0  0.80778  0.10816  0.44024  1.0000
  C   C389      1.0  0.78152  0.18543  0.54210  1.0000
  H   H679      1.0  0.59583  0.04899  0.47310  1.0000
  H   H680      1.0  0.94206  0.17943  0.40200  1.0000
  H   H681      1.0  0.88320  0.50044  0.46510  1.0000
  C   C390      1.0  0.96115  0.21079  0.43406  1.0000
  C   C391      1.0  0.53982  0.04521  0.46377  1.0000
  H   H682      1.0  0.94102  0.27200  0.40425  1.0000
  C   C392      1.0  0.89151  0.19690  0.38328  1.0000
  H   H683      1.0  0.80332  0.21410  0.53342  1.0000
  H   H684      1.0  0.79608  0.20840  0.57636  1.0000
  H   H685      1.0  0.82720  0.07459  0.43807  1.0000
  C   C393      1.0  0.91911  0.22698  0.36430  1.0000
  C   C394      1.0  0.75504  0.03595  0.60774  1.0000
  H   H686      1.0  0.54923  0.05496  0.44621  1.0000
  C   C395      1.0  0.94472  0.20685  0.40952  1.0000
  N   N21       1.0  0.83193  0.18087  0.56965  1.0000
  C   C396      1.0  0.84062  0.18272  0.59492  1.0000
  C   C397      1.0  0.86503  0.21756  0.55743  1.0000
  C   C398      1.0  0.79390  0.18254  0.56700  1.0000
  C   C399      1.0  0.82616  0.14301  0.55911  1.0000
  C   C400      1.0  0.85229  0.12585  0.56838  1.0000
  C   C401      1.0  0.80604  0.15084  0.61038  1.0000
  H   H687      1.0  0.88817  0.16754  0.37887  1.0000
  C   C402      1.0  0.90784  0.22413  0.55879  1.0000
  C   C403      1.0  0.93851  0.26571  0.54929  1.0000
  C   C404      1.0  0.85442  0.09721  0.55157  1.0000
  S   S90       1.0  0.98567  0.34319  0.44285  1.0000
  H   H688      1.0  0.96827  0.23999  0.44110  1.0000
  H   H689      1.0  0.84833  0.21263  0.60142  1.0000
  H   H690      1.0  0.86734  0.18010  0.59831  1.0000
  H   H691      1.0  0.85939  0.21675  0.53874  1.0000
  Fe  Fe49      1.0  0.64902  0.02870  0.51872  1.0000
  C   C405      1.0  0.83548  0.10622  0.44061  1.0000
  H   H692      1.0  0.89239  0.13085  0.42363  1.0000
  H   H693      1.0  0.79460  0.11822  0.56127  1.0000
  H   H694      1.0  0.83082  0.14758  0.54030  1.0000
  H   H695      1.0  0.83922  0.10905  0.58476  1.0000
  H   H696      1.0  0.88330  0.14921  0.57183  1.0000
  H   H697      1.0  0.88495  0.02208  0.63697  1.0000
  H   H698      1.0  0.79184  0.12090  0.60269  1.0000
  H   H699      1.0  0.87165  0.25387  0.39021  1.0000
  C   C406      1.0  0.74122  0.18381  0.54166  1.0000
  H   H700      1.0  0.91653  0.22185  0.57654  1.0000
  H   H701      1.0  0.91019  0.20197  0.54809  1.0000
  H   H702      1.0  0.94025  0.28930  0.56055  1.0000
  C   C407      1.0  0.82069  0.14770  0.63417  1.0000
  H   H703      1.0  0.87047  0.08302  0.55947  1.0000
  H   H704      1.0  0.82400  0.07321  0.54710  1.0000
  H   H705      1.0  0.87074  0.11368  0.53568  1.0000
  H   H706      1.0  0.81366  0.04281  0.61066  1.0000
  H   H707      1.0  0.84539  0.17594  0.42102  1.0000
  H   H708      1.0  0.94792  0.22733  0.36344  1.0000
  C   C408      1.0  0.99947  0.20856  0.43403  1.0000
  H   H709      1.0  0.50546  0.45423  0.49609  1.0000
  C   C409      1.0  0.87909  0.25658  0.40863  1.0000
  C   C410      1.0  0.51395  0.48458  0.49097  1.0000
  H   H710      1.0  0.89588  0.30275  0.43395  1.0000
  H   H711      1.0  0.57319  0.49976  0.47944  1.0000
  H   H712      1.0  0.60927  0.16839  0.52172  1.0000
  H   H713      1.0  0.78269  0.15921  0.61269  1.0000
  H   H714      1.0  0.99336  0.17883  0.42830  1.0000
  H   H715      1.0  0.86556  0.30449  0.41117  1.0000
  H   H716      1.0  0.88191  0.18605  0.44175  1.0000
  H   H717      1.0  0.84161  0.13598  0.63308  1.0000
  H   H718      1.0  0.93950  0.18665  0.44585  1.0000
  H   H719      1.0  0.77909  0.16039  0.53202  1.0000
  H   H720      1.0  0.92070  0.25370  0.43182  1.0000
  H   H721      1.0  0.74348  0.21044  0.54994  1.0000
  H   H722      1.0  0.53288  0.15230  0.46582  1.0000
  H   H723      1.0  0.60430  0.17152  0.49097  1.0000
  H   H724      1.0  0.96881  0.23220  0.39924  1.0000
  H   H725      1.0  0.86573  0.24495  0.56372  1.0000
  H   H726      1.0  0.76807  0.15520  0.57485  1.0000
  H   H727      1.0  0.92545  0.25783  0.36734  1.0000
  C   C411      1.0  0.72466  0.03758  0.64401  1.0000
  S   S91       1.0  0.75420  0.03789  0.51379  1.0000
  C   C412      1.0  0.78854  0.04104  0.61991  1.0000
  H   H728      1.0  0.54120  0.10751  0.52385  1.0000
  H   H729      1.0  0.50753  0.01195  0.52681  1.0000
  C   C413      1.0  0.89038  0.29894  0.41529  1.0000
  C   C414      1.0  0.86508  0.13310  0.42186  1.0000
  H   H730      1.0  0.51263  0.47898  0.57063  1.0000
  H   H731      1.0  0.93045  0.27072  0.53180  1.0000
  H   H732      1.0  0.81617  0.04846  0.65298  1.0000
  C   C415      1.0  0.87429  0.17691  0.42371  1.0000
  C   C416      1.0  0.72318  0.03460  0.61992  1.0000
  N   N22       1.0  0.90603  0.20719  0.40745  1.0000
  H   H733      1.0  0.84918  0.11506  0.45769  1.0000
  H   H734      1.0  0.89467  0.18496  0.33646  1.0000
  C   C417      1.0  0.55496  0.02938  0.50183  1.0000
  H   H735      1.0  0.69975  0.03623  0.65330  1.0000
  H   H736      1.0  0.89008  0.47590  0.42749  1.0000
  S   S92       1.0  0.75486  0.03088  0.57751  1.0000
  C   C418      1.0  0.90013  0.21514  0.34079  1.0000
  H   H737      1.0  0.92070  0.23695  0.32756  1.0000
  C   C419      1.0  0.51674  0.02117  0.50918  1.0000
  S   S93       1.0  0.58624  0.02205  0.52160  1.0000
  H   H738      1.0  0.52881  0.22676  0.50582  1.0000
  H   H739      1.0  0.69725  0.03085  0.61085  1.0000
  H   H740      1.0  0.79483  0.12676  0.64523  1.0000
  H   H741      1.0  0.52143  0.19095  0.47042  1.0000
  H   H742      1.0  0.54165  0.16857  0.53159  1.0000
  C   C420      1.0  0.53361  0.15840  0.51368  1.0000
  C   C421      1.0  0.00044  0.03618  0.32821  1.0000
  C   C422      1.0  0.50808  0.15881  0.46693  1.0000
  H   H743      1.0  0.62730  0.02637  0.44482  1.0000
  C   C423      1.0  0.99280  0.03027  0.35407  1.0000
  H   H744      1.0  0.99447  0.31916  0.33627  1.0000
  H   H745      1.0  0.50504  0.48988  0.54163  1.0000
  H   H746      1.0  0.63775  0.00487  0.42061  1.0000
  H   H747      1.0  0.92209  0.20025  0.94105  1.0000
  S   S94       1.0  0.83457  0.08223  0.73940  1.0000
  C   C424      1.0  0.73188  0.03291  0.83565  1.0000
  S   S95       1.0  0.75824  0.04497  0.68658  1.0000
  Fe  Fe50      1.0  0.88856  0.08006  0.72678  1.0000
  S   S96       1.0  0.95068  0.13390  0.72153  1.0000
  Fe  Fe51      1.0  0.74029  0.05318  0.96500  1.0000
  H   H748      1.0  0.81445  0.02630  0.91816  1.0000
  S   S97       1.0  0.71022  0.07214  0.93890  1.0000
  H   H749      1.0  0.92881  0.24121  0.92232  1.0000
  H   H750      1.0  0.73672  0.14258  0.90355  1.0000
  C   C425      1.0  0.89200  0.22452  0.97785  1.0000
  H   H751      1.0  0.89038  0.00518  0.66521  1.0000
  H   H752      1.0  0.95725  0.04054  0.79182  1.0000
  C   C426      1.0  0.99243  0.13344  0.73336  1.0000
  H   H753      1.0  0.80726  0.08485  0.92864  1.0000
  H   H754      1.0  0.80652  0.18901  0.89030  1.0000
  H   H755      1.0  0.92730  0.19995  0.88859  1.0000
  Fe  Fe52      1.0  0.81961  0.02671  0.76074  1.0000
  H   H756      1.0  0.73835  0.16878  0.87731  1.0000
  H   H757      1.0  0.91638  0.15939  0.90846  1.0000
  H   H758      1.0  0.83245  0.04397  0.94637  1.0000
  H   H759      1.0  0.98960  0.00604  0.83642  1.0000
  C   C427      1.0  0.78470  0.00532  0.84437  1.0000
  C   C428      1.0  0.50576  0.05095  0.98471  1.0000
  H   H760      1.0  0.85164  0.22878  0.95414  1.0000
  C   C429      1.0  0.78127  0.01659  0.82174  1.0000
  C   C430      1.0  0.76193  0.00789  0.86253  1.0000
  H   H761      1.0  0.93080  0.11793  0.80931  1.0000
  H   H762      1.0  0.95839  0.07738  0.75186  1.0000
  H   H763      1.0  0.89856  0.04940  0.79624  1.0000
  H   H764      1.0  0.83016  0.10936  0.81028  1.0000
  H   H765      1.0  0.79990  0.11098  0.84710  1.0000
  S   S98       1.0  0.70640  0.02680  0.88038  1.0000
  H   H766      1.0  0.96603  0.22619  0.92306  1.0000
  C   C431      1.0  0.82858  0.16759  0.96592  1.0000
  H   H767      1.0  0.86023  0.11380  0.93305  1.0000
  Fe  Fe53      1.0  0.70055  0.01817  0.91951  1.0000
  C   C432      1.0  0.83509  0.14169  0.97992  1.0000
  H   H768      1.0  0.87958  0.13900  0.82143  1.0000
  C   C433      1.0  0.85705  0.20883  0.96483  1.0000
  H   H769      1.0  0.83157  0.08953  0.85024  1.0000
  H   H770      1.0  0.84735  0.16022  0.81811  1.0000
  H   H771      1.0  0.54068  0.06693  0.95326  1.0000
  H   H772      1.0  0.72597  0.11721  0.87661  1.0000
  N   N23       1.0  0.84158  0.13797  0.88942  1.0000
  C   C434      1.0  0.85653  0.14906  0.86498  1.0000
  C   C435      1.0  0.86730  0.17293  0.90424  1.0000
  C   C436      1.0  0.84336  0.10118  0.89672  1.0000
  C   C437      1.0  0.79881  0.12840  0.89186  1.0000
  C   C438      1.0  0.78917  0.15999  0.88174  1.0000
  C   C439      1.0  0.83133  0.11775  0.84693  1.0000
  C   C440      1.0  0.83674  0.08995  0.92267  1.0000
  C   C441      1.0  0.91215  0.18533  0.90511  1.0000
  C   C442      1.0  0.93345  0.21512  0.92401  1.0000
  C   C443      1.0  0.74485  0.14620  0.88505  1.0000
  C   C444      1.0  0.84831  0.13271  0.82277  1.0000
  C   C445      1.0  0.83797  0.05165  0.92776  1.0000
  H   H773      1.0  0.88725  0.15373  0.86336  1.0000
  H   H774      1.0  0.85950  0.17832  0.85975  1.0000
  H   H775      1.0  0.86668  0.20008  0.89820  1.0000
  H   H776      1.0  0.85491  0.16717  0.92199  1.0000
  H   H777      1.0  0.87220  0.10382  0.89131  1.0000
  H   H778      1.0  0.82018  0.07456  0.88772  1.0000
  H   H779      1.0  0.77825  0.09935  0.88398  1.0000
  H   H780      1.0  0.78955  0.12399  0.91023  1.0000
  H   H781      1.0  0.79581  0.16492  0.86310  1.0000
  S   S99       1.0  0.92596  0.27678  0.97668  1.0000
  C   C446      1.0  0.91956  0.05701  0.81055  1.0000
  S   S100      1.0  0.68328  0.01588  0.98549  1.0000
  H   H782      1.0  0.99466  0.01247  0.70730  1.0000
  H   H783      1.0  0.86768  0.05582  0.92307  1.0000
  C   C447      1.0  0.56451  0.04322  0.97840  1.0000
  C   C448      1.0  0.98779  0.10203  0.74783  1.0000
  H   H784      1.0  0.80140  0.15597  0.95621  1.0000
  S   S101      1.0  0.85781  0.04251  0.69651  1.0000
  H   H785      1.0  0.96895  0.11219  0.82359  1.0000
  H   H786      1.0  0.93973  0.02947  0.85530  1.0000
  C   C449      1.0  0.73536  0.02180  0.85827  1.0000
  Fe  Fe54      1.0  0.80264  0.04010  0.71042  1.0000
  C   C450      1.0  0.53730  0.05482  0.97052  1.0000
  H   H787      1.0  0.96735  0.04767  0.82128  1.0000
  S   S102      1.0  0.87598  0.02793  0.74957  1.0000
  H   H788      1.0  0.90243  0.05029  0.82688  1.0000
  S   S103      1.0  0.81170  0.01369  0.79974  1.0000
  S   S104      1.0  0.60388  0.04924  0.95956  1.0000
  C   C451      1.0  0.94250  0.03374  0.80904  1.0000
  C   C452      1.0  0.75465  0.03038  0.81750  1.0000
  Fe  Fe55      1.0  0.65201  0.03057  0.95774  1.0000
  C   C453      1.0  0.94818  0.10222  0.80897  1.0000
  H   H789      1.0  0.96579  0.11082  0.79270  1.0000
  H   H790      1.0  0.71138  0.04363  0.83211  1.0000
  H   H791      1.0  0.90650  0.46955  0.98476  1.0000
  H   H792      1.0  0.75160  0.03914  0.80025  1.0000
  H   H793      1.0  0.00032  0.45218  0.97560  1.0000
  C   C454      1.0  0.75789  0.04191  0.65620  1.0000
  S   S105      1.0  0.79925  0.09020  0.98344  1.0000
  H   H794      1.0  0.74627  0.13349  0.98731  1.0000
  Fe  Fe56      1.0  0.70536  0.71931  0.05721  1.0000
  S   S106      1.0  0.75548  0.75064  0.03138  1.0000
  S   S107      1.0  0.70302  0.74582  0.09180  1.0000
  Fe  Fe57      1.0  0.65375  0.65055  0.02350  1.0000
  H   H795      1.0  0.89007  0.86016  0.31420  1.0000
  S   S108      1.0  0.58961  0.59573  0.02221  1.0000
  Fe  Fe58      1.0  0.74600  0.68934  0.02424  1.0000
  S   S109      1.0  0.80148  0.68251  0.02630  1.0000
  Fe  Fe59      1.0  0.70778  0.73638  0.00529  1.0000
  H   H796      1.0  0.84231  0.91322  0.12112  1.0000
  S   S110      1.0  0.69742  0.65832  0.05150  1.0000
  S   S111      1.0  0.65811  0.70957  0.03137  1.0000
  Fe  Fe60      1.0  0.83027  0.84359  0.20762  1.0000
  S   S112      1.0  0.86145  0.83241  0.23715  1.0000
  S   S113      1.0  0.82991  0.81730  0.17261  1.0000
  Fe  Fe61      1.0  0.81423  0.89926  0.23623  1.0000
  S   S114      1.0  0.84279  0.89156  0.26785  1.0000
  S   S115      1.0  0.78545  0.93750  0.23420  1.0000
  Fe  Fe62      1.0  0.89084  0.89819  0.24329  1.0000
  S   S116      1.0  0.95499  0.94316  0.25205  1.0000
  Fe  Fe63      1.0  0.81084  0.82618  0.25968  1.0000
  S   S117      1.0  0.78368  0.77250  0.28512  1.0000
  S   S118      1.0  0.86396  0.91022  0.21222  1.0000
  S   S119      1.0  0.77803  0.83310  0.22963  1.0000
  H   H797      1.0  0.83765  0.71973  0.21178  1.0000
  H   H798      1.0  0.70946  0.95249  0.02317  1.0000
  H   H799      1.0  0.93744  0.83776  0.16844  1.0000
  C   C455      1.0  0.71083  0.83029  0.05538  1.0000
  C   C456      1.0  0.54151  0.67209  0.00494  1.0000
  C   C457      1.0  0.74896  0.79357  0.32031  1.0000
  H   H800      1.0  0.91696  0.88834  0.17373  1.0000
  H   H801      1.0  0.93454  0.91081  0.13839  1.0000
  C   C458      1.0  0.69621  0.64008  0.23416  1.0000
  C   C459      1.0  0.83280  0.68069  0.00455  1.0000
  H   H802      1.0  0.84732  0.54035  0.02463  1.0000
  H   H803      1.0  0.76104  0.99541  0.23506  1.0000
  H   H804      1.0  0.66802  0.63151  0.26785  1.0000
  H   H805      1.0  0.63763  0.59411  0.24734  1.0000
  H   H806      1.0  0.67097  0.79281  0.22266  1.0000
  H   H807      1.0  0.68500  0.63442  0.14079  1.0000
  H   H808      1.0  0.57777  0.70898  0.03278  1.0000
  H   H809      1.0  0.95373  0.55577  0.02682  1.0000
  H   H810      1.0  0.65517  0.70024  0.19078  1.0000
  N   N24       1.0  0.99142  0.96281  0.17209  1.0000
  H   H811      1.0  0.69646  0.62032  0.22079  1.0000
  H   H812      1.0  0.81294  0.57987  0.02563  1.0000
  H   H813      1.0  0.75114  0.82409  0.01946  1.0000
  H   H814      1.0  0.82498  0.59379  0.99589  1.0000
  H   H815      1.0  0.79025  0.88055  0.12818  1.0000
  C   C460      1.0  0.73898  0.76593  0.11395  1.0000
  C   C461      1.0  0.73103  0.78275  0.13300  1.0000
  C   C462      1.0  0.75852  0.79890  0.15101  1.0000
  C   C463      1.0  0.79436  0.79829  0.15025  1.0000
  C   C464      1.0  0.80243  0.78179  0.13111  1.0000
  C   C465      1.0  0.77506  0.76583  0.11305  1.0000
  H   H816      1.0  0.70335  0.78325  0.13384  1.0000
  H   H817      1.0  0.75204  0.81187  0.16545  1.0000
  H   H818      1.0  0.83003  0.78113  0.13027  1.0000
  H   H819      1.0  0.78173  0.75310  0.09855  1.0000
  C   C466      1.0  0.67491  0.82101  0.07138  1.0000
  C   C467      1.0  0.63654  0.78455  0.06346  1.0000
  H   H820      1.0  0.71520  0.80389  0.05621  1.0000
  H   H821      1.0  0.76264  0.83476  0.08564  1.0000
  H   H822      1.0  0.73983  0.86089  0.09699  1.0000
  H   H823      1.0  0.68002  0.81395  0.08912  1.0000
  H   H824      1.0  0.66946  0.84655  0.07161  1.0000
  H   H825      1.0  0.61138  0.77866  0.07516  1.0000
  H   H826      1.0  0.62907  0.78977  0.04587  1.0000
  H   H827      1.0  0.63989  0.75764  0.06385  1.0000
  H   H828      1.0  0.81838  0.86128  0.11385  1.0000
  H   H829      1.0  0.64978  0.65086  0.22123  1.0000
  C   C468      1.0  0.69817  0.66747  0.18406  1.0000
  C   C469      1.0  0.68239  0.66880  0.22476  1.0000
  H   H830      1.0  0.66578  0.64502  0.18253  1.0000
  H   H831      1.0  0.67944  0.59337  0.26033  1.0000
  H   H832      1.0  0.88024  0.59279  0.01706  1.0000
  C   C470      1.0  0.76203  0.86326  0.08401  1.0000
  C   C471      1.0  0.93465  0.84687  0.18593  1.0000
  H   H833      1.0  0.93370  0.89519  0.20267  1.0000
  H   H834      1.0  0.90450  0.82502  0.19290  1.0000
  H   H835      1.0  0.95724  0.84580  0.19713  1.0000
  H   H836      1.0  0.82528  0.90160  0.00197  1.0000
  H   H837      1.0  0.75166  0.73149  0.22712  1.0000
  N   N25       1.0  0.74980  0.86790  0.06011  1.0000
  C   C472      1.0  0.99631  0.93778  0.24476  1.0000
  H   H838      1.0  0.92216  0.94820  0.14670  1.0000
  C   C473      1.0  0.67471  0.77685  0.20812  1.0000
  H   H839      1.0  0.58460  0.65639  0.99401  1.0000
  H   H840      1.0  0.69837  0.94057  0.05322  1.0000
  C   C474      1.0  0.94297  0.95377  0.11213  1.0000
  C   C475      1.0  0.98679  0.96823  0.14687  1.0000
  H   H841      1.0  0.50767  0.53258  0.02799  1.0000
  H   H842      1.0  0.53036  0.69283  0.00080  1.0000
  C   C476      1.0  0.94412  0.94310  0.13736  1.0000
  C   C477      1.0  0.55516  0.55975  0.00265  1.0000
  H   H843      1.0  0.73730  0.65366  0.14720  1.0000
  C   C478      1.0  0.94628  0.57913  0.02195  1.0000
  H   H844      1.0  0.71273  0.64936  0.18692  1.0000
  H   H845      1.0  0.98782  0.61892  0.04690  1.0000
  C   C479      1.0  0.80605  0.86856  0.00362  1.0000
  C   C480      1.0  0.96506  0.97234  0.18658  1.0000
  H   H846      1.0  0.64739  0.76433  0.19760  1.0000
  H   H847      1.0  0.65585  0.78466  0.00694  1.0000
  H   H848      1.0  0.92053  0.57404  0.03273  1.0000
  H   H849      1.0  0.91079  0.00143  0.18987  1.0000
  S   S120      1.0  0.70197  0.67723  0.99598  1.0000
  H   H850      1.0  0.72648  0.65761  0.24147  1.0000
  C   C481      1.0  0.65464  0.83797  0.99607  1.0000
  H   H851      1.0  0.74917  0.97522  0.04349  1.0000
  H   H852      1.0  0.97539  0.64390  0.02484  1.0000
  H   H853      1.0  0.74234  0.71626  0.16134  1.0000
  H   H854      1.0  0.69972  0.88606  0.03251  1.0000
  H   H855      1.0  0.81472  0.73379  0.23386  1.0000
  H   H856      1.0  0.72327  0.67798  0.12554  1.0000
  C   C482      1.0  0.72104  0.94735  0.03952  1.0000
  C   C483      1.0  0.68154  0.74347  0.21733  1.0000
  C   C484      1.0  0.68570  0.71938  0.19768  1.0000
  C   C485      1.0  0.51599  0.53206  0.01036  1.0000
  H   H857      1.0  0.75490  0.81934  0.30970  1.0000
  C   C486      1.0  0.71457  0.66195  0.14246  1.0000
  C   C487      1.0  0.74822  0.72208  0.20897  1.0000
  H   H858      1.0  0.96229  0.87495  0.23783  1.0000
  H   H859      1.0  0.78242  0.70603  0.18561  1.0000
  H   H860      1.0  0.76051  0.75064  0.19875  1.0000
  H   H861      1.0  0.82370  0.85536  0.01058  1.0000
  C   C488      1.0  0.85493  0.56404  0.01131  1.0000
  C   C489      1.0  0.81404  0.88747  0.11518  1.0000
  H   H862      1.0  0.70101  0.83094  0.03773  1.0000
  H   H863      1.0  0.63195  0.83354  0.00853  1.0000
  H   H864      1.0  0.56420  0.65678  0.03531  1.0000
  H   H865      1.0  0.82750  0.90370  0.07966  1.0000
  H   H866      1.0  0.87929  0.69092  0.02830  1.0000
  H   H867      1.0  0.83239  0.76297  0.20732  1.0000
  H   H868      1.0  0.68535  0.68786  0.23947  1.0000
  H   H869      1.0  0.76565  0.67520  0.21099  1.0000
  H   H870      1.0  0.70847  0.75695  0.22806  1.0000
  C   C490      1.0  0.80305  0.89772  0.09191  1.0000
  H   H871      1.0  0.79656  0.85530  0.05030  1.0000
  C   C491      1.0  0.78228  0.87237  0.04365  1.0000
  H   H872      1.0  0.72714  0.90429  0.07397  1.0000
  C   C492      1.0  0.66851  0.61318  0.25358  1.0000
  C   C493      1.0  0.74569  0.90474  0.05923  1.0000
  C   C494      1.0  0.72857  0.91239  0.03701  1.0000
  H   H873      1.0  0.80670  0.90419  0.04225  1.0000
  H   H874      1.0  0.80195  0.92566  0.09377  1.0000
  H   H875      1.0  0.92366  0.68585  0.99931  1.0000
  H   H876      1.0  0.88191  0.51001  0.02081  1.0000
  C   C495      1.0  0.77725  0.70608  0.20430  1.0000
  H   H877      1.0  0.76004  0.71186  0.32061  1.0000
  C   C496      1.0  0.76972  0.85723  0.01902  1.0000
  H   H878      1.0  0.75027  0.92062  0.02263  1.0000
  C   C497      1.0  0.87002  0.68526  0.01069  1.0000
  H   H879      1.0  0.75216  0.86931  0.01089  1.0000
  H   H880      1.0  0.69127  0.69851  0.15397  1.0000
  C   C498      1.0  0.98185  0.61935  0.02836  1.0000
  H   H881      1.0  0.95084  0.98555  0.11003  1.0000
  H   H882      1.0  0.77529  0.93210  0.06139  1.0000
  C   C499      1.0  0.76021  0.76661  0.31246  1.0000
  H   H883      1.0  0.70321  0.74126  0.18362  1.0000
  H   H884      1.0  0.65546  0.72331  0.22852  1.0000
  C   C500      1.0  0.93989  0.88881  0.18516  1.0000
  H   H885      1.0  0.99814  0.00030  0.14236  1.0000
  H   H886      1.0  0.96405  0.94865  0.10177  1.0000
  N   N26       1.0  0.70449  0.69436  0.20390  1.0000
  C   C501      1.0  0.71247  0.68915  0.16031  1.0000
  C   C502      1.0  0.81791  0.73232  0.21504  1.0000
  H   H887      1.0  0.93312  0.95193  0.18308  1.0000
  C   C503      1.0  0.55368  0.67771  0.03002  1.0000
  H   H888      1.0  0.70080  0.79895  0.19758  1.0000
  H   H889      1.0  0.91238  0.93452  0.10555  1.0000
  H   H890      1.0  0.52758  0.67130  0.04103  1.0000
  C   C504      1.0  0.93740  0.57770  0.99591  1.0000
  H   H891      1.0  0.51651  0.64087  0.00344  1.0000
  H   H892      1.0  0.60378  0.70851  0.99365  1.0000
  C   C505      1.0  0.81897  0.57016  0.00907  1.0000
  H   H893      1.0  0.96863  0.96692  0.20498  1.0000
  H   H894      1.0  0.79189  0.54191  0.00432  1.0000
  C   C506      1.0  0.81393  0.99042  0.23396  1.0000
  C   C507      1.0  0.66814  0.81027  0.99523  1.0000
  H   H895      1.0  0.94481  0.51004  0.00017  1.0000
  C   C508      1.0  0.98307  0.92071  0.17750  1.0000
  H   H896      1.0  0.87188  0.99555  0.23259  1.0000
  C   C509      1.0  0.99180  0.90116  0.23821  1.0000
  H   H897      1.0  0.99180  0.90888  0.16271  1.0000
  H   H898      1.0  0.83703  0.83482  0.31928  1.0000
  C   C510      1.0  0.89528  0.68245  0.99427  1.0000
  H   H899      1.0  0.93886  0.60631  0.99071  1.0000
  C   C511      1.0  0.57704  0.67971  0.98906  1.0000
  H   H900      1.0  0.00203  0.92085  0.19182  1.0000
  C   C512      1.0  0.88527  0.50509  0.00252  1.0000
  Fe  Fe64      1.0  0.69404  0.71691  0.41690  1.0000
  S   S121      1.0  0.74024  0.75941  0.44104  1.0000
  S   S122      1.0  0.69255  0.74415  0.38174  1.0000
  Fe  Fe65      1.0  0.65683  0.64917  0.45421  1.0000
  S   S123      1.0  0.70186  0.68827  0.48021  1.0000
  S   S124      1.0  0.61487  0.58244  0.46459  1.0000
  Fe  Fe66      1.0  0.69084  0.73723  0.46714  1.0000
  S   S125      1.0  0.68678  0.77730  0.49398  1.0000
  Fe  Fe67      1.0  0.74805  0.70766  0.45211  1.0000
  S   S126      1.0  0.81359  0.72400  0.45405  1.0000
  S   S127      1.0  0.64305  0.69714  0.44277  1.0000
  S   S128      1.0  0.70445  0.66604  0.42641  1.0000
  Fe  Fe68      1.0  0.96590  0.68112  0.52235  1.0000
  S   S129      1.0  0.89844  0.65526  0.51943  1.0000
  H   H901      1.0  0.93760  0.70225  0.64493  1.0000
  H   H902      1.0  0.76990  0.53160  0.46392  1.0000
  S   S130      1.0  0.68900  0.94210  0.47504  1.0000
  S   S131      1.0  0.66106  0.98027  0.53244  1.0000
  H   H903      1.0  0.87150  0.83461  0.43664  1.0000
  H   H904      1.0  0.60166  0.92344  0.49618  1.0000
  C   C513      1.0  0.56468  0.55049  0.47497  1.0000
  C   C514      1.0  0.53730  0.56380  0.47773  1.0000
  H   H905      1.0  0.54595  0.59424  0.47272  1.0000
  C   C515      1.0  0.69042  0.82447  0.48816  1.0000
  C   C516      1.0  0.68768  0.83707  0.46594  1.0000
  C   C517      1.0  0.68827  0.87359  0.46223  1.0000
  C   C518      1.0  0.69208  0.89821  0.48058  1.0000
  C   C519      1.0  0.69604  0.88620  0.50272  1.0000
  C   C520      1.0  0.69477  0.84935  0.50648  1.0000
  H   H906      1.0  0.68424  0.81829  0.45167  1.0000
  H   H907      1.0  0.68522  0.88253  0.44503  1.0000
  H   H908      1.0  0.69900  0.90477  0.51701  1.0000
  H   H909      1.0  0.69695  0.83995  0.52372  1.0000
  C   C521      1.0  0.83637  0.70491  0.47289  1.0000
  C   C522      1.0  0.81402  0.67181  0.48759  1.0000
  C   C523      1.0  0.83348  0.65720  0.50185  1.0000
  C   C524      1.0  0.87544  0.67557  0.50166  1.0000
  C   C525      1.0  0.89779  0.70879  0.48707  1.0000
  C   C526      1.0  0.87832  0.72321  0.47270  1.0000
  H   H910      1.0  0.78176  0.65724  0.48772  1.0000
  H   H911      1.0  0.81588  0.63127  0.51289  1.0000
  H   H912      1.0  0.93006  0.72337  0.48681  1.0000
  H   H913      1.0  0.89588  0.74880  0.46139  1.0000
  H   H914      1.0  0.91526  0.77764  0.55922  1.0000
  C   C527      1.0  0.72889  0.78656  0.34166  1.0000
  C   C528      1.0  0.72043  0.75301  0.35568  1.0000
  C   C529      1.0  0.73219  0.72640  0.34796  1.0000
  H   H915      1.0  0.71947  0.80710  0.34724  1.0000
  H   H916      1.0  0.72470  0.69976  0.35809  1.0000
  H   H917      1.0  0.74166  0.95733  0.64345  1.0000
  C   C530      1.0  0.56199  0.85906  0.49717  1.0000
  H   H918      1.0  0.86457  0.51540  0.50197  1.0000
  C   C531      1.0  0.76966  0.94488  0.60410  1.0000
  H   H919      1.0  0.84784  0.94998  0.62525  1.0000
  H   H920      1.0  0.84740  0.55476  0.44811  1.0000
  H   H921      1.0  0.61033  0.70842  0.51270  1.0000
  H   H922      1.0  0.94316  0.51043  0.42976  1.0000
  C   C532      1.0  0.61427  0.62535  0.56332  1.0000
  H   H923      1.0  0.83126  0.68357  0.57957  1.0000
  H   H924      1.0  0.78020  0.59173  0.57916  1.0000
  H   H925      1.0  0.55124  0.86018  0.51462  1.0000
  H   H926      1.0  0.56091  0.55737  0.52220  1.0000
  C   C533      1.0  0.91829  0.63175  0.61709  1.0000
  C   C534      1.0  0.56728  0.56988  0.53962  1.0000
  H   H927      1.0  0.62588  0.61070  0.57514  1.0000
  H   H928      1.0  0.66952  0.71735  0.59010  1.0000
  C   C535      1.0  0.65027  0.68428  0.58961  1.0000
  H   H929      1.0  0.56804  0.65030  0.53894  1.0000
  H   H930      1.0  0.76558  0.62730  0.56988  1.0000
  H   H931      1.0  0.58033  0.81729  0.50934  1.0000
  H   H932      1.0  0.86751  0.88712  0.32581  1.0000
  H   H933      1.0  0.74205  0.63915  0.52620  1.0000
  H   H934      1.0  0.93896  0.76513  0.53685  1.0000
  N   N27       1.0  0.89339  0.67967  0.60312  1.0000
  C   C536      1.0  0.52575  0.91115  0.49745  1.0000
  H   H935      1.0  0.73608  0.88469  0.61870  1.0000
  H   H936      1.0  0.70371  0.60828  0.50652  1.0000
  C   C537      1.0  0.90869  0.72014  0.59148  1.0000
  C   C538      1.0  0.91590  0.72204  0.56524  1.0000
  H   H937      1.0  0.80739  0.65113  0.60411  1.0000
  C   C539      1.0  0.76593  0.91175  0.62118  1.0000
  H   H938      1.0  0.79909  0.97255  0.60549  1.0000
  H   H939      1.0  0.88824  0.73198  0.59475  1.0000
  H   H940      1.0  0.93752  0.74244  0.59901  1.0000
  H   H941      1.0  0.93606  0.71052  0.56095  1.0000
  C   C540      1.0  0.92756  0.55271  0.50899  1.0000
  H   H942      1.0  0.84661  0.61807  0.59991  1.0000
  H   H943      1.0  0.74568  0.95209  0.60705  1.0000
  H   H944      1.0  0.95134  0.68427  0.46108  1.0000
  H   H945      1.0  0.59101  0.67654  0.48826  1.0000
  N   N28       1.0  0.83952  0.82794  0.39128  1.0000
  C   C541      1.0  0.88135  0.84046  0.39897  1.0000
  C   C542      1.0  0.84022  0.84347  0.36712  1.0000
  C   C543      1.0  0.82307  0.84690  0.40712  1.0000
  C   C544      1.0  0.81242  0.78315  0.39316  1.0000
  C   C545      1.0  0.82475  0.75774  0.37889  1.0000
  C   C546      1.0  0.88485  0.82504  0.42314  1.0000
  C   C547      1.0  0.78290  0.84387  0.40015  1.0000
  C   C548      1.0  0.87235  0.84593  0.35008  1.0000
  C   C549      1.0  0.68306  0.62885  0.53515  1.0000
  C   C550      1.0  0.80115  0.71363  0.38647  1.0000
  C   C551      1.0  0.76962  0.86410  0.41752  1.0000
  H   H946      1.0  0.89997  0.87376  0.39844  1.0000
  H   H947      1.0  0.89656  0.83020  0.38712  1.0000
  H   H948      1.0  0.81036  0.82539  0.35920  1.0000
  H   H949      1.0  0.84576  0.87469  0.36740  1.0000
  H   H950      1.0  0.84520  0.87933  0.40889  1.0000
  H   H951      1.0  0.81793  0.83324  0.42466  1.0000
  H   H952      1.0  0.80853  0.77261  0.41136  1.0000
  H   H953      1.0  0.78178  0.77456  0.38768  1.0000
  H   H954      1.0  0.85679  0.76742  0.38055  1.0000
  H   H955      1.0  0.81820  0.75977  0.36058  1.0000
  H   H956      1.0  0.92998  0.82905  0.44653  1.0000
  H   H957      1.0  0.86984  0.79189  0.42373  1.0000
  H   H958      1.0  0.75884  0.81232  0.39943  1.0000
  H   H959      1.0  0.78516  0.85833  0.38317  1.0000
  H   H960      1.0  0.90260  0.86927  0.35541  1.0000
  H   H961      1.0  0.87196  0.81721  0.34912  1.0000
  C   C552      1.0  0.91183  0.62390  0.44933  1.0000
  H   H962      1.0  0.62183  0.67546  0.59894  1.0000
  H   H963      1.0  0.80993  0.70949  0.40394  1.0000
  H   H964      1.0  0.76857  0.70249  0.38659  1.0000
  H   H965      1.0  0.80746  0.69546  0.37453  1.0000
  H   H966      1.0  0.54630  0.93199  0.51047  1.0000
  H   H967      1.0  0.74045  0.86064  0.41239  1.0000
  H   H968      1.0  0.76569  0.85005  0.43485  1.0000
  H   H969      1.0  0.79182  0.89654  0.41826  1.0000
  H   H970      1.0  0.87993  0.56578  0.50883  1.0000
  H   H971      1.0  0.93374  0.54007  0.46564  1.0000
  H   H972      1.0  0.88503  0.62646  0.45291  1.0000
  H   H973      1.0  0.97477  0.66615  0.44152  1.0000
  C   C553      1.0  0.75182  0.73312  0.32651  1.0000
  H   H974      1.0  0.67135  0.68216  0.55605  1.0000
  H   H975      1.0  0.93082  0.56761  0.42892  1.0000
  H   H976      1.0  0.96649  0.62727  0.60040  1.0000
  C   C554      1.0  0.77977  0.85909  0.65044  1.0000
  H   H977      1.0  0.78795  0.90343  0.61526  1.0000
  C   C555      1.0  0.81080  0.95891  0.65067  1.0000
  H   H978      1.0  0.61845  0.86921  0.51059  1.0000
  C   C556      1.0  0.91952  0.60199  0.46960  1.0000
  C   C557      1.0  0.59356  0.84683  0.50023  1.0000
  H   H979      1.0  0.85794  0.69174  0.62683  1.0000
  H   H980      1.0  0.93424  0.66598  0.58544  1.0000
  S   S132      1.0  0.98260  0.64908  0.54880  1.0000
  C   C558      1.0  0.60358  0.96194  0.44788  1.0000
  C   C559      1.0  0.52276  0.88268  0.45913  1.0000
  H   H981      1.0  0.80459  0.62462  0.55454  1.0000
  C   C560      1.0  0.94687  0.66646  0.44558  1.0000
  C   C561      1.0  0.71037  0.61500  0.52492  1.0000
  H   H982      1.0  0.73642  0.90423  0.57676  1.0000
  C   C562      1.0  0.88640  0.99790  0.64678  1.0000
  C   C563      1.0  0.57957  0.90049  0.48459  1.0000
  H   H983      1.0  0.55242  0.96497  0.46086  1.0000
  C   C564      1.0  0.90584  0.53751  0.43408  1.0000
  N   N29       1.0  0.60795  0.60743  0.53989  1.0000
  H   H984      1.0  0.81575  0.54612  0.49724  1.0000
  C   C565      1.0  0.88832  0.54712  0.49850  1.0000
  H   H985      1.0  0.88744  0.70405  0.55614  1.0000
  H   H986      1.0  0.80980  0.87595  0.64233  1.0000
  C   C566      1.0  0.92662  0.66996  0.60318  1.0000
  H   H987      1.0  0.51036  0.88091  0.50577  1.0000
  H   H988      1.0  0.58521  0.61886  0.57112  1.0000
  C   C567      1.0  0.92853  0.84086  0.42926  1.0000
  H   H989      1.0  0.81227  0.98572  0.64237  1.0000
  H   H990      1.0  0.76824  0.95565  0.56763  1.0000
  H   H991      1.0  0.89979  0.51384  0.53911  1.0000
  H   H992      1.0  0.84849  0.59517  0.48531  1.0000
  C   C568      1.0  0.82228  0.65378  0.58736  1.0000
  C   C569      1.0  0.76588  0.93149  0.57936  1.0000
  H   H993      1.0  0.79013  0.92533  0.57482  1.0000
  H   H994      1.0  0.94836  0.59920  0.62707  1.0000
  H   H995      1.0  0.53690  0.83530  0.48758  1.0000
  H   H996      1.0  0.70649  0.58788  0.53424  1.0000
  C   C570      1.0  0.93483  0.76495  0.55569  1.0000
  H   H997      1.0  0.94045  0.68134  0.43108  1.0000
  H   H998      1.0  0.90684  0.60809  0.43308  1.0000
  C   C571      1.0  0.57458  0.64469  0.52136  1.0000
  H   H999      1.0  0.66598  0.67047  0.59840  1.0000
  H   H1000     1.0  0.58956  0.97544  0.48111  1.0000
  C   C572      1.0  0.91458  0.50688  0.42339  1.0000
  H   H1001     1.0  0.80256  0.58219  0.45287  1.0000
  H   H1002     1.0  0.54339  0.57691  0.54363  1.0000
  H   H1003     1.0  0.92726  0.74135  0.63692  1.0000
  H   H1004     1.0  0.86835  0.64286  0.57351  1.0000
  C   C573      1.0  0.95550  0.62758  0.61794  1.0000
  H   H1005     1.0  0.91287  0.99655  0.64066  1.0000
  H   H1006     1.0  0.92074  0.61885  0.48505  1.0000
  C   C574      1.0  0.63866  0.59548  0.53443  1.0000
  H   H1007     1.0  0.59235  0.93651  0.43613  1.0000
  H   H1008     1.0  0.77710  0.57403  0.47996  1.0000
  H   H1009     1.0  0.94505  0.87408  0.42957  1.0000
  H   H1010     1.0  0.91713  0.51133  0.40448  1.0000
  C   C575      1.0  0.60918  0.63536  0.52098  1.0000
  H   H1011     1.0  0.69198  0.63674  0.55318  1.0000
  H   H1012     1.0  0.63784  0.66419  0.52068  1.0000
  C   C576      1.0  0.58423  0.68111  0.50607  1.0000
  N   N30       1.0  0.54952  0.91213  0.47664  1.0000
  C   C577      1.0  0.51646  0.50325  0.55852  1.0000
  H   H1013     1.0  0.60849  0.62268  0.50395  1.0000
  H   H1014     1.0  0.55826  0.68591  0.50576  1.0000
  H   H1015     1.0  0.87767  0.53308  0.42664  1.0000
  H   H1016     1.0  0.93540  0.53096  0.50210  1.0000
  H   H1017     1.0  0.89427  0.60458  0.60907  1.0000
  H   H1018     1.0  0.94314  0.83081  0.41676  1.0000
  H   H1019     1.0  0.95037  0.60703  0.46756  1.0000
  H   H1020     1.0  0.63274  0.58170  0.51722  1.0000
  H   H1021     1.0  0.62820  0.68751  0.55660  1.0000
  H   H1022     1.0  0.96456  0.78409  0.56335  1.0000
  H   H1023     1.0  0.57672  0.52024  0.55025  1.0000
  C   C578      1.0  0.85848  0.64735  0.59060  1.0000
  H   H1024     1.0  0.95280  0.58349  0.50547  1.0000
  N   N31       1.0  0.77112  0.92209  0.64620  1.0000
  C   C579      1.0  0.82733  0.56380  0.48093  1.0000
  H   H1025     1.0  0.70871  0.90515  0.64826  1.0000
  H   H1026     1.0  0.68881  0.65612  0.52548  1.0000
  C   C580      1.0  0.88009  0.68142  0.62717  1.0000
  H   H1027     1.0  0.59751  0.89995  0.46979  1.0000
  C   C581      1.0  0.50478  0.89840  0.44063  1.0000
  H   H1028     1.0  0.60541  0.84440  0.48336  1.0000
  C   C582      1.0  0.64218  0.67143  0.56474  1.0000
  C   C583      1.0  0.57270  0.95454  0.46718  1.0000
  H   H1029     1.0  0.54693  0.61889  0.51479  1.0000
  C   C584      1.0  0.79131  0.62233  0.57179  1.0000
  C   C585      1.0  0.90324  0.53277  0.46050  1.0000
  C   C586      1.0  0.86628  0.85778  0.32593  1.0000
  H   H1030     1.0  0.63640  0.57216  0.54676  1.0000
  H   H1031     1.0  0.95462  0.69549  0.60953  1.0000
  Fe  Fe69      1.0  0.69597  0.99041  0.49966  1.0000
  C   C587      1.0  0.84857  0.95750  0.64350  1.0000
  H   H1032     1.0  0.75844  0.84045  0.63714  1.0000
  H   H1033     1.0  0.63135  0.96544  0.45553  1.0000
  C   C588      1.0  0.92301  0.54530  0.53493  1.0000
  N   N32       1.0  0.89002  0.55780  0.47329  1.0000
  H   H1034     1.0  0.91468  0.56577  0.54315  1.0000
  C   C589      1.0  0.56065  0.53534  0.55650  1.0000
  H   H1035     1.0  0.82849  0.51304  0.46710  1.0000
  H   H1036     1.0  0.52819  0.91858  0.42804  1.0000
  H   H1037     1.0  0.57118  0.54648  0.57389  1.0000
  H   H1038     1.0  0.53918  0.87068  0.44944  1.0000
  C   C590      1.0  0.84813  0.54624  0.46626  1.0000
  C   C591      1.0  0.79206  0.56269  0.46858  1.0000
  H   H1039     1.0  0.99661  0.81388  0.62109  1.0000
  H   H1040     1.0  0.95182  0.55072  0.54210  1.0000
  C   C592      1.0  0.55247  0.51058  0.48150  1.0000
  H   H1041     1.0  0.85151  0.93536  0.65446  1.0000
  C   C593      1.0  0.73843  0.93061  0.65296  1.0000
  H   H1042     1.0  0.86385  0.65103  0.63541  1.0000
  H   H1043     1.0  0.00243  0.51882  0.44963  1.0000
  H   H1044     1.0  0.50331  0.95047  0.48484  1.0000
  H   H1045     1.0  0.90942  0.63237  0.63505  1.0000
  C   C594      1.0  0.91367  0.70993  0.64334  1.0000
  H   H1046     1.0  0.97967  0.65280  0.62730  1.0000
  C   C595      1.0  0.61476  0.99996  0.43372  1.0000
  H   H1047     1.0  0.96614  0.00045  0.35785  1.0000
  H   H1048     1.0  0.58817  0.99722  0.42488  1.0000
  H   H1049     1.0  0.94513  0.69735  0.90445  1.0000
  C   C596      1.0  0.90665  0.75869  0.91522  1.0000
  H   H1050     1.0  0.80588  0.92181  0.78338  1.0000
  H   H1051     1.0  0.92143  0.73956  0.82881  1.0000
  C   C597      1.0  0.88321  0.67423  0.97156  1.0000
  H   H1052     1.0  0.98251  0.83263  0.89877  1.0000
  H   H1053     1.0  0.90049  0.52541  0.91675  1.0000
  S   S133      1.0  0.84650  0.93760  0.70820  1.0000
  C   C598      1.0  0.71224  0.84847  0.96360  1.0000
  H   H1054     1.0  0.94687  0.96408  0.79259  1.0000
  H   H1055     1.0  0.55543  0.71044  0.93780  1.0000
  H   H1056     1.0  0.67159  0.90856  0.68254  1.0000
  Fe  Fe70      1.0  0.97837  0.68584  0.95034  1.0000
  H   H1057     1.0  0.83620  0.66285  0.94793  1.0000
  H   H1058     1.0  0.81391  0.96520  0.66926  1.0000
  H   H1059     1.0  0.79586  0.85665  0.98628  1.0000
  H   H1060     1.0  0.86614  0.75214  0.94291  1.0000
  H   H1061     1.0  0.91473  0.78488  0.80190  1.0000
  C   C599      1.0  0.86700  0.75357  0.92388  1.0000
  H   H1062     1.0  0.96646  0.80506  0.80890  1.0000
  C   C600      1.0  0.67016  0.87134  0.98086  1.0000
  C   C601      1.0  0.90386  0.53315  0.96381  1.0000
  C   C602      1.0  0.86257  0.92633  0.79260  1.0000
  H   H1063     1.0  0.91340  0.86226  0.72924  1.0000
  H   H1064     1.0  0.93923  0.64862  0.87601  1.0000
  C   C603      1.0  0.84599  0.66956  0.96540  1.0000
  H   H1065     1.0  0.93102  0.78612  0.92287  1.0000
  Fe  Fe71      1.0  0.67547  0.96524  0.96347  1.0000
  C   C604      1.0  0.52801  0.93044  0.95187  1.0000
  H   H1066     1.0  0.79244  0.66925  0.97679  1.0000
  H   H1067     1.0  0.95334  0.71536  0.86113  1.0000
  H   H1068     1.0  0.88427  0.67739  0.67509  1.0000
  H   H1069     1.0  0.88710  0.63339  0.87188  1.0000
  H   H1070     1.0  0.94784  0.93395  0.68472  1.0000
  C   C605      1.0  0.91200  0.64594  0.88421  1.0000
  C   C606      1.0  0.69922  0.87657  0.96467  1.0000
  S   S134      1.0  0.64067  0.97766  0.93680  1.0000
  H   H1071     1.0  0.71123  0.90193  0.95278  1.0000
  H   H1072     1.0  0.73443  0.85255  0.95086  1.0000
  H   H1073     1.0  0.96299  0.81460  0.85792  1.0000
  H   H1074     1.0  0.87424  0.71713  0.66711  1.0000
  H   H1075     1.0  0.84156  0.72523  0.91773  1.0000
  H   H1076     1.0  0.90344  0.62493  0.89920  1.0000
  H   H1077     1.0  0.89264  0.68158  0.90126  1.0000
  H   H1078     1.0  0.83793  0.52817  0.98082  1.0000
  H   H1079     1.0  0.83842  0.92907  0.75935  1.0000
  C   C607      1.0  0.92361  0.55549  0.92235  1.0000
  H   H1080     1.0  0.86354  0.77919  0.91805  1.0000
  N   N33       1.0  0.94361  0.75929  0.87745  1.0000
  C   C608      1.0  0.90998  0.76245  0.88862  1.0000
  H   H1081     1.0  0.88073  0.73965  0.88164  1.0000
  S   S135      1.0  0.91207  0.66683  0.95058  1.0000
  H   H1082     1.0  0.61455  0.76458  0.95810  1.0000
  C   C609      1.0  0.92414  0.76730  0.83584  1.0000
  H   H1083     1.0  0.69426  0.96034  0.67287  1.0000
  C   C610      1.0  0.94378  0.92158  0.74268  1.0000
  C   C611      1.0  0.94467  0.95820  0.74363  1.0000
  C   C612      1.0  0.91576  0.96367  0.73239  1.0000
  C   C613      1.0  0.88500  0.93219  0.72068  1.0000
  C   C614      1.0  0.88470  0.89586  0.71917  1.0000
  C   C615      1.0  0.91426  0.89063  0.73001  1.0000
  H   H1084     1.0  0.96798  0.98257  0.75296  1.0000
  H   H1085     1.0  0.00210  0.76778  0.88462  1.0000
  H   H1086     1.0  0.86122  0.87146  0.70997  1.0000
  H   H1087     1.0  0.51677  0.92102  0.93433  1.0000
  C   C616      1.0  0.93669  0.79770  0.81587  1.0000
  H   H1088     1.0  0.59535  0.57837  0.97362  1.0000
  H   H1089     1.0  0.92974  0.52808  0.96263  1.0000
  C   C617      1.0  0.60834  0.69054  0.95110  1.0000
  C   C618      1.0  0.62282  0.65973  0.95260  1.0000
  H   H1090     1.0  0.97353  0.76129  0.90932  1.0000
  H   H1091     1.0  0.58801  0.81012  0.96213  1.0000
  C   C619      1.0  0.66260  0.67537  0.93976  1.0000
  H   H1092     1.0  0.80311  0.84830  0.68202  1.0000
  H   H1093     1.0  0.73385  0.86656  0.66557  1.0000
  S   S136      1.0  0.97807  0.91477  0.75901  1.0000
  H   H1094     1.0  0.69857  0.94835  0.70225  1.0000
  S   S137      1.0  0.65149  0.90482  0.98247  1.0000
  H   H1095     1.0  0.52545  0.69774  0.96285  1.0000
  H   H1096     1.0  0.60641  0.69710  0.93265  1.0000
  H   H1097     1.0  0.63308  0.71898  0.95775  1.0000
  H   H1098     1.0  0.60108  0.63100  0.94492  1.0000
  C   C620      1.0  0.52795  0.63001  0.93198  1.0000
  C   C621      1.0  0.94386  0.97003  0.81085  1.0000
  C   C622      1.0  0.89728  0.70805  0.66744  1.0000
  S   S138      1.0  0.99618  0.65814  0.92248  1.0000
  H   H1099     1.0  0.55495  0.63684  0.92178  1.0000
  H   H1100     1.0  0.98347  0.69310  0.81714  1.0000
  H   H1101     1.0  0.68592  0.70391  0.94704  1.0000
  H   H1102     1.0  0.67264  0.65310  0.94142  1.0000
  H   H1103     1.0  0.65932  0.68036  0.92130  1.0000
  C   C623      1.0  0.82765  0.91387  0.77633  1.0000
  H   H1104     1.0  0.91239  0.79176  0.88415  1.0000
  H   H1105     1.0  0.88160  0.91474  0.78587  1.0000
  H   H1106     1.0  0.78130  0.89745  0.67747  1.0000
  C   C624      1.0  0.69692  0.81532  0.97892  1.0000
  C   C625      1.0  0.88721  0.97263  0.79434  1.0000
  H   H1107     1.0  0.56818  0.78043  0.93714  1.0000
  C   C626      1.0  0.69779  0.93904  0.68432  1.0000
  H   H1108     1.0  0.92203  0.72902  0.67848  1.0000
  Fe  Fe72      1.0  0.84170  0.99030  0.72040  1.0000
  H   H1109     1.0  0.93511  0.59522  0.95040  1.0000
  S   S139      1.0  0.97070  0.81227  0.73677  1.0000
  C   C627      1.0  0.73652  0.93934  0.67862  1.0000
  C   C628      1.0  0.56817  0.77924  0.95615  1.0000
  C   C629      1.0  0.95551  0.78322  0.85508  1.0000
  S   S140      1.0  0.73430  0.00155  0.94462  1.0000
  S   S141      1.0  0.78392  0.98458  0.73270  1.0000
  H   H1110     1.0  0.87415  0.57990  0.97680  1.0000
  H   H1111     1.0  0.89442  0.76075  0.84235  1.0000
  H   H1112     1.0  0.93798  0.82563  0.82139  1.0000
  H   H1113     1.0  0.81210  0.88103  0.77399  1.0000
  C   C630      1.0  0.92017  0.68667  0.89230  1.0000
  C   C631      1.0  0.53638  0.53030  0.96487  1.0000
  H   H1114     1.0  0.92931  0.94005  0.81967  1.0000
  H   H1115     1.0  0.92710  0.57787  0.90895  1.0000
  H   H1116     1.0  0.84976  0.91126  0.80935  1.0000
  C   C632      1.0  0.91132  0.56532  0.94512  1.0000
  C   C633      1.0  0.98046  0.77560  0.89200  1.0000
  N   N34       1.0  0.56972  0.67897  0.96368  1.0000
  H   H1117     1.0  0.88366  0.56652  0.94196  1.0000
  H   H1118     1.0  0.76181  0.96944  0.68249  1.0000
  H   H1119     1.0  0.73804  0.91718  0.69029  1.0000
  S   S142      1.0  0.99803  0.81508  0.67021  1.0000
  H   H1120     1.0  0.90901  0.73313  0.92212  1.0000
  H   H1121     1.0  0.54562  0.91612  0.95700  1.0000
  S   S143      1.0  0.71410  0.78073  0.97690  1.0000
  C   C634      1.0  0.58354  0.75190  0.96477  1.0000
  C   C635      1.0  0.56526  0.55820  0.97980  1.0000
  H   H1122     1.0  0.54464  0.52985  0.94723  1.0000
  H   H1123     1.0  0.90263  0.70340  0.86147  1.0000
  C   C636      1.0  0.93015  0.71642  0.87188  1.0000
  H   H1124     1.0  0.86534  0.98304  0.79633  1.0000
  C   C637      1.0  0.82109  0.67319  0.98173  1.0000
  H   H1125     1.0  0.62724  0.65361  0.97063  1.0000
  C   C638      1.0  0.55658  0.70840  0.95678  1.0000
  H   H1126     1.0  0.76471  0.99890  0.87976  1.0000
  H   H1127     1.0  0.54825  0.96341  0.95168  1.0000
  H   H1128     1.0  0.95261  0.55633  0.92394  1.0000
  H   H1129     1.0  0.54391  0.61450  0.96486  1.0000
  C   C639      1.0  0.53719  0.63743  0.95782  1.0000
  H   H1130     1.0  0.91744  0.99232  0.73275  1.0000
  C   C640      1.0  0.86570  0.55311  0.98807  1.0000
  C   C641      1.0  0.99964  0.99078  0.67400  1.0000
  H   H1131     1.0  0.53746  0.76861  0.96286  1.0000
  H   H1132     1.0  0.88021  0.94486  0.83892  1.0000
  H   H1133     1.0  0.98320  0.78524  0.84793  1.0000
  H   H1134     1.0  0.75111  0.81230  0.67705  1.0000
  H   H1135     1.0  0.80505  0.99444  0.84786  1.0000
  C   C642      1.0  0.78098  0.83087  0.66875  1.0000
  C   C643      1.0  0.95475  0.96104  0.67421  1.0000
  H   H1136     1.0  0.90203  0.98442  0.77733  1.0000
  H   H1137     1.0  0.50782  0.56617  0.93336  1.0000
  H   H1138     1.0  0.94460  0.95165  0.65650  1.0000
  S   S144      1.0  0.99775  0.75563  0.78443  1.0000
  H   H1139     1.0  0.50851  0.63030  0.96630  1.0000
  H   H1140     1.0  0.51597  0.64883  0.92516  1.0000
  C   C644      1.0  0.89561  0.97773  0.83568  1.0000
  H   H1141     1.0  0.87418  0.95519  0.88133  1.0000
  H   H1142     1.0  0.58428  0.75310  0.98372  1.0000
  C   C645      1.0  0.98766  0.99457  0.81904  1.0000
  C   C646      1.0  0.76596  0.88687  0.66085  1.0000
  H   H1143     1.0  0.99247  0.94335  0.83120  1.0000
  H   H1144     1.0  0.93968  0.98317  0.86083  1.0000
  H   H1145     1.0  0.87098  0.98479  0.83525  1.0000
  N   N35       1.0  0.91789  0.98890  0.81299  1.0000
  H   H1146     1.0  0.93798  0.97491  0.68123  1.0000
  H   H1147     1.0  0.79003  0.81071  0.66082  1.0000
  C   C647      1.0  0.92070  0.99653  0.85720  1.0000
  C   C648      1.0  0.89363  0.98797  0.87822  1.0000
  H   H1148     1.0  0.96349  0.57882  0.98702  1.0000
  H   H1149     1.0  0.87715  0.50474  0.95858  1.0000
  H   H1150     1.0  0.87453  0.00167  0.87584  1.0000
  H   H1151     1.0  0.91218  0.00092  0.89357  1.0000
  H   H1152     1.0  0.50662  0.92649  0.98610  1.0000
  N   N36       1.0  0.89849  0.54270  0.98809  1.0000
