data_image0
_chemical_formula_structural       FeS2FeS2Fe2S3FeS2FeS2FeSFeHS2FeS2FeHSFeCFeS3C2H4C3H2CH2CNCHCHC6H4C2HCH7C4HCH4C6H4C2NH3CH3CHCHCHC2H2C2H2C3H2CH7SH2CNC11H17CH5NC2HC3HC3H10CHCH4CH2CH3CH3NHNC5HCH11CHCH4CH2SH3CH3CH4C3H3C2HCH6C3H10C2HCH2CH3C2H3SHCHC4H6C4HCH3CH3CH4C2H3CH6C2H6CH5C2HCHC2H2C2SHC2H3CH2FeS2FeS2HFeS3FeS2FeS2FeSFeCS2FeS2FeHSFeCFeS3C4H3C2H5FeH5C6H4C4H2NCHCHC3H2CH4C6H6C2H2CH4CHC2H3C2H3C2HCH6CH2CH4C2H5CH2CH4NCH3C2H4CNC4HC3H2C2H8CH8CH2CSH2CH4CNCHCH5C2HNHCH5CH3CH3CH2CH5CH4C4H5C2H3CHCH3CHNC2H2C2HCHCHCH2C3H5CH2CH3CH2CHC2NCH6CHC2H3C2H3CNH7CH4SH2C2H2CSCHCHCHCHFeS2FeS2FeSFeS3FeS2FeS2FeSFeS4CH2C6H7C2HCH2CH3C6H4C6H6C2HCH3CH7NHNC10NH23CHC4H6CH3CH4CH10CH9CH5CHC3HCH3CNHC3H7CH2C2NC4H4CH2NC10HCH8CHC4H4C2H2CHCH5CH2CH2CH8C2H8CH2CHC2HC2HNH3CH3FeS2FeSHFeSFeS3FeS2FeS2FeSFeS4CHC7H6CHNC5H2C7H4C6H2CH8CH3CH6C3HCNH2C2H2CNC12H29CH13C2HCSH2CNHCH2NC12H29CH2CHCHC2H5CH2CH2CHCHC2H10C3H7C3H2FeS2FeS2FeHFeSCSFeSCFeS2FeSFeS3FeS2FeS2FeSFeS3C4H2CHNHCHC4H4C6H4CHC3HCH5C6H8NC8HCH14C2H4NC2H2C2HC4H3CH9CH3NH2CH2CH5C2H2CSH4CH5CH4CH5CHCH2CH7C6SC2H9C2H7C2H6CHCHCHCH5C2H4CHC2H2NHC2H12CH4C2H9CH3CH2C5H4C2H2CH2CHCH2C2HFeS2FeSCFeSFeSHSFeSHFeSHFeSFeS3FeS2FeS2FeSFeS3C4H2CH5C3HCH2C7H4C2HCH6C8H5C2H3C3HCH7NH2CH4CH2SCH2CHCH2CH2CH3C3H5CHCH2C2H4C2SHCH5NH5C2H3CHCHCH15NC12H25CHCHCNHC5H3CHCH2CH6CSH2SH2C2H7CHCHFeS2FeSFeSFeS3FeS2FeS2FeCFeS3FeS2FeS2FeHFeS3CH2CHC2HCH2CHCHC6H4C6H4C6H4C3HC2H2CH2CHNC4HC4HC2H8CH8CH3CH10C5H8CH5CH5CH6CNHCHC2H2CHCSHCH3CH12CH6C3HNH2CHC3H4C3H4SHNH3CH10C3H4CH5C3H4CHCH4CHCHCH2C4FeS2FeSFeSFeS3FeS2FeS2FeCFeS3FeS2FeS2FeHFeS3HCH3SC2H4CH2C6H4C2H2C2H4C6H5CH2C2H3C3H2C3H3NCH3CH3C2H6CHC2H4CH4CSCHCH2CH2C2H3CH2C3HCH5CH2C4H4CHC2H9CH4CH2CHC3HC2H11CH4CH5NH5C2N2C12H12CH3CH2CH9CHC2HCH7CHCH2NC2H3CH5CHFeS2FeS2FeSFeS3FeS2FeSHFeSFeS3HC6H4C2H2C2H4C6H4C6H5C2H3C7HCH3CH4CHCH15C2HC2H2CH2C2HCH8NH2CHC2HCH3CH2CH3C2H3NC11H27CH2CHC2HCH2CHC2H2NC2HCH4C3NHC2HCHCH5CH7CH3S2H2CH7C2H5CHNCH4CH2NHFeS2FeS2FeSFeS3FeS2FeSHFeSFeS3HC6H2CHC2H2C2H4C6H4C6H6C2H4C3H3NC4HCH2CH5CHCH2CHC2H3C3HCNH4CH10NC9H22C4H6CHCH2SH4CH6C2HC4H3CH3C3H4CHCH3CH2CHCH2CHSH2CH3CHCH3CH9CHCHFeS2FeSHFeSFeCS2FeSHFeSHFeSFeS3FeS2FeS2FeSFeS3C5H5C6H4C2H2C2H4C2H3CH3C6H5CHC3H6CHC2HCH3NSCH4CHC2HCH7CH2C3H8CHNHC4HC2HC2H8CH6CH2NC3H3CHCH2CH6CNC2H4CHCH9C2HCH3C3HCHCH3C2HCH4CH2NCH2CH2CH2C2H2CH3C3H4CHSC2H2SH2CH4CHCH2CHSH3CHCH6SHCHCH5FeS2FeSCFeSFeHS2FeSHFeSHFeSFeS3FeS2FeS2FeSFeS3HC5H4C6H4C3HC4HCH2CH6C6H8NC7HC4H14C2H7CH2CNC8HCH15CH3C2H4NHCH5C2H2C2H2SCH3CHC2HCH3C3HCH5CHSH5CH5C3H2C2H4CHNCNCHC2SC2HCHC2H14C2H3CHCH12CH4NCH5CHCH6CH2CH2C2H7C
_chemical_formula_sum              "Fe128 S256 H2048 C1152 N64"
_cell_length_a       39.9024
_cell_length_b       79.6816
_cell_length_c       43.9942
_cell_angle_alpha    89.227
_cell_angle_beta     86.868
_cell_angle_gamma    89.9833

_space_group_name_H-M_alt    "P 1"
_space_group_IT_number       1

loop_
  _space_group_symop_operation_xyz
  'x, y, z'

loop_
  _atom_site_type_symbol
  _atom_site_label
  _atom_site_symmetry_multiplicity
  _atom_site_fract_x
  _atom_site_fract_y
  _atom_site_fract_z
  _atom_site_occupancy
  Fe  Fe1       1.0  0.11317  0.29927  0.31236  1.0000
  S   S1        1.0  0.14831  0.30741  0.27287  1.0000
  S   S2        1.0  0.05686  0.30583  0.31487  1.0000
  Fe  Fe2       1.0  0.17264  0.29097  0.35362  1.0000
  S   S3        1.0  0.21123  0.29874  0.31675  1.0000
  S   S4        1.0  0.17860  0.28542  0.40468  1.0000
  Fe  Fe3       1.0  0.17712  0.32080  0.30801  1.0000
  Fe  Fe4       1.0  0.17966  0.28474  0.28418  1.0000
  S   S5        1.0  0.20009  0.26427  0.25127  1.0000
  S   S6        1.0  0.14088  0.31393  0.34653  1.0000
  S   S7        1.0  0.14246  0.27574  0.32199  1.0000
  Fe  Fe5       1.0  0.30440  0.23827  0.09045  1.0000
  S   S8        1.0  0.32524  0.24898  0.04538  1.0000
  S   S9        1.0  0.28781  0.25890  0.12455  1.0000
  Fe  Fe6       1.0  0.31685  0.20187  0.06848  1.0000
  S   S10       1.0  0.33733  0.21046  0.02230  1.0000
  S   S11       1.0  0.31965  0.17489  0.08707  1.0000
  Fe  Fe7       1.0  0.36623  0.22950  0.04788  1.0000
  S   S12       1.0  0.42139  0.23494  0.03382  1.0000
  Fe  Fe8       1.0  0.29469  0.22931  0.02352  1.0000
  H   H1        1.0  0.08756  0.27696  0.11342  1.0000
  S   S13       1.0  0.34776  0.22021  0.09399  1.0000
  S   S14       1.0  0.27192  0.21927  0.06843  1.0000
  Fe  Fe9       1.0  0.32481  0.05179  0.08543  1.0000
  S   S15       1.0  0.34523  0.03315  0.05130  1.0000
  S   S16       1.0  0.32862  0.04894  0.13685  1.0000
  Fe  Fe10      1.0  0.31254  0.07898  0.03622  1.0000
  H   H2        1.0  0.43972  0.03416  0.41318  1.0000
  S   S17       1.0  0.29597  0.10510  0.02092  1.0000
  Fe  Fe11      1.0  0.30341  0.04152  0.02225  1.0000
  C   C1        1.0  0.42836  0.10547  0.09395  1.0000
  Fe  Fe12      1.0  0.37241  0.05524  0.02983  1.0000
  S   S18       1.0  0.42566  0.05299  0.01153  1.0000
  S   S19       1.0  0.28014  0.05855  0.05839  1.0000
  S   S20       1.0  0.35524  0.07354  0.06553  1.0000
  C   C2        1.0  0.45228  0.05467  0.04163  1.0000
  C   C3        1.0  0.43899  0.05651  0.07148  1.0000
  H   H3        1.0  0.29826  0.26346  0.22676  1.0000
  H   H4        1.0  0.40912  0.05077  0.25924  1.0000
  H   H5        1.0  0.41231  0.05585  0.07640  1.0000
  H   H6        1.0  0.46153  0.26833  0.48356  1.0000
  C   C4        1.0  0.32563  0.03044  0.18999  1.0000
  C   C5        1.0  0.31850  0.03072  0.15903  1.0000
  C   C6        1.0  0.22771  0.26542  0.47609  1.0000
  H   H7        1.0  0.27846  0.30361  0.05286  1.0000
  H   H8        1.0  0.04027  0.27162  0.44705  1.0000
  C   C7        1.0  0.38542  0.24078  0.47440  1.0000
  H   H9        1.0  0.38473  0.11599  0.05105  1.0000
  H   H10       1.0  0.33222  0.04080  0.39461  1.0000
  C   C8        1.0  0.31493  0.03518  0.44091  1.0000
  N   N1        1.0  0.24061  0.02783  0.28815  1.0000
  C   C9        1.0  0.18249  0.04162  0.30273  1.0000
  H   H11       1.0  0.48306  0.13910  0.17983  1.0000
  C   C10       1.0  0.39064  0.09004  0.13347  1.0000
  H   H12       1.0  0.30567  0.28672  0.45339  1.0000
  C   C11       1.0  0.31450  0.15567  0.06758  1.0000
  C   C12       1.0  0.30446  0.15519  0.03762  1.0000
  C   C13       1.0  0.29930  0.13963  0.02358  1.0000
  C   C14       1.0  0.30442  0.12436  0.03913  1.0000
  C   C15       1.0  0.31503  0.12484  0.06890  1.0000
  C   C16       1.0  0.31999  0.14039  0.08301  1.0000
  H   H13       1.0  0.30008  0.16681  0.02545  1.0000
  H   H14       1.0  0.19453  0.01547  0.24620  1.0000
  H   H15       1.0  0.31835  0.11323  0.08136  1.0000
  H   H16       1.0  0.32742  0.14059  0.10628  1.0000
  C   C17       1.0  0.45790  0.23082  0.05431  1.0000
  C   C18       1.0  0.45605  0.22533  0.08473  1.0000
  H   H17       1.0  0.32102  0.04747  0.44915  1.0000
  C   C19       1.0  0.48700  0.05462  0.03574  1.0000
  H   H18       1.0  0.43181  0.22295  0.09613  1.0000
  H   H19       1.0  0.23323  0.08825  0.04659  1.0000
  H   H20       1.0  0.18448  0.28108  0.46918  1.0000
  H   H21       1.0  0.45515  0.14828  0.15340  1.0000
  H   H22       1.0  0.47677  0.09248  0.04778  1.0000
  H   H23       1.0  0.33727  0.04126  0.19963  1.0000
  H   H24       1.0  0.03666  0.27152  0.29921  1.0000
  C   C20       1.0  0.20855  0.27422  0.42604  1.0000
  C   C21       1.0  0.23533  0.26529  0.41220  1.0000
  C   C22       1.0  0.25819  0.25659  0.43019  1.0000
  C   C23       1.0  0.25449  0.25647  0.46226  1.0000
  H   H25       1.0  0.47319  0.12552  0.03573  1.0000
  C   C24       1.0  0.20506  0.27427  0.45811  1.0000
  H   H26       1.0  0.23839  0.26501  0.38763  1.0000
  H   H27       1.0  0.27872  0.24974  0.41913  1.0000
  H   H28       1.0  0.44773  0.24842  0.14135  1.0000
  H   H29       1.0  0.32322  0.01625  0.23233  1.0000
  C   C25       1.0  0.22389  0.26322  0.21559  1.0000
  C   C26       1.0  0.23687  0.27749  0.20016  1.0000
  C   C27       1.0  0.25610  0.27587  0.17234  1.0000
  C   C28       1.0  0.26253  0.26004  0.15936  1.0000
  C   C29       1.0  0.24947  0.24578  0.17468  1.0000
  C   C30       1.0  0.23038  0.24738  0.20256  1.0000
  H   H30       1.0  0.23225  0.28975  0.20976  1.0000
  H   H31       1.0  0.26609  0.28702  0.16085  1.0000
  H   H32       1.0  0.25420  0.23350  0.16521  1.0000
  H   H33       1.0  0.22056  0.23624  0.21421  1.0000
  C   C31       1.0  0.13434  0.26794  0.09202  1.0000
  C   C32       1.0  0.21145  0.02550  0.23683  1.0000
  N   N2        1.0  0.42750  0.00524  0.19184  1.0000
  H   H34       1.0  0.41197  0.26269  0.08123  1.0000
  H   H35       1.0  0.39499  0.00117  0.37215  1.0000
  H   H36       1.0  0.48456  0.12785  0.07396  1.0000
  C   C33       1.0  0.43291  0.15160  0.06409  1.0000
  H   H37       1.0  0.27416  0.03043  0.32482  1.0000
  H   H38       1.0  0.36770  0.09725  0.01021  1.0000
  H   H39       1.0  0.09858  0.24901  0.35573  1.0000
  C   C34       1.0  0.47041  0.11962  0.05886  1.0000
  H   H40       1.0  0.44402  0.10131  0.01181  1.0000
  C   C35       1.0  0.23806  0.28538  0.05233  1.0000
  H   H41       1.0  0.21918  0.02129  0.34811  1.0000
  C   C36       1.0  0.01439  0.27860  0.30560  1.0000
  H   H42       1.0  0.41406  0.12677  0.02672  1.0000
  C   C37       1.0  0.41169  0.11611  0.04320  1.0000
  C   C38       1.0  0.39355  0.10508  0.11150  1.0000
  H   H43       1.0  0.08551  0.24352  0.44318  1.0000
  H   H44       1.0  0.38515  0.01517  0.16842  1.0000
  C   C39       1.0  0.46824  0.28091  0.44033  1.0000
  C   C40       1.0  0.30341  0.01668  0.14679  1.0000
  H   H45       1.0  0.34397  0.03432  0.30497  1.0000
  H   H46       1.0  0.47741  0.24267  0.20367  1.0000
  C   C41       1.0  0.16879  0.27477  0.07905  1.0000
  C   C42       1.0  0.40178  0.22347  0.47523  1.0000
  C   C43       1.0  0.32110  0.03137  0.40994  1.0000
  H   H47       1.0  0.17028  0.06680  0.28661  1.0000
  H   H48       1.0  0.38879  0.18182  0.47860  1.0000
  C   C44       1.0  0.42398  0.13558  0.08351  1.0000
  H   H49       1.0  0.25976  0.01535  0.24769  1.0000
  H   H50       1.0  0.41072  0.01275  0.31984  1.0000
  H   H51       1.0  0.39156  0.24663  0.45178  1.0000
  H   H52       1.0  0.06891  0.31838  0.37493  1.0000
  H   H53       1.0  0.25165  0.32116  0.44599  1.0000
  H   H54       1.0  0.38501  0.04654  0.42959  1.0000
  H   H55       1.0  0.12079  0.26097  0.07493  1.0000
  S   S21       1.0  0.32190  0.01165  0.35948  1.0000
  H   H56       1.0  0.29843  0.30106  0.37840  1.0000
  H   H57       1.0  0.40978  0.09080  0.15081  1.0000
  C   C45       1.0  0.29497  0.00265  0.16553  1.0000
  N   N3        1.0  0.38109  0.25020  0.17120  1.0000
  C   C46       1.0  0.41542  0.25328  0.18273  1.0000
  C   C47       1.0  0.35638  0.26191  0.18710  1.0000
  C   C48       1.0  0.37167  0.23204  0.17734  1.0000
  C   C49       1.0  0.38088  0.25345  0.13733  1.0000
  C   C50       1.0  0.39284  0.27108  0.12594  1.0000
  C   C51       1.0  0.44483  0.24408  0.16543  1.0000
  C   C52       1.0  0.33399  0.22759  0.17500  1.0000
  C   C53       1.0  0.35241  0.25985  0.22225  1.0000
  C   C54       1.0  0.32139  0.26917  0.23507  1.0000
  C   C55       1.0  0.39429  0.27217  0.09119  1.0000
  C   C56       1.0  0.32820  0.20864  0.17726  1.0000
  H   H58       1.0  0.41596  0.24933  0.20707  1.0000
  H   H59       1.0  0.42122  0.26695  0.18256  1.0000
  H   H60       1.0  0.36383  0.27521  0.18282  1.0000
  H   H61       1.0  0.33129  0.26085  0.17739  1.0000
  H   H62       1.0  0.37894  0.22787  0.20032  1.0000
  H   H63       1.0  0.38617  0.22375  0.16122  1.0000
  H   H64       1.0  0.39610  0.24388  0.12458  1.0000
  H   H65       1.0  0.35522  0.25186  0.12942  1.0000
  H   H66       1.0  0.41826  0.27405  0.13330  1.0000
  H   H67       1.0  0.37517  0.28093  0.13444  1.0000
  H   H68       1.0  0.44874  0.03172  0.23298  1.0000
  H   H69       1.0  0.32452  0.23206  0.15320  1.0000
  H   H70       1.0  0.31836  0.23341  0.19363  1.0000
  H   H71       1.0  0.34988  0.24655  0.22960  1.0000
  H   H72       1.0  0.37473  0.26513  0.23277  1.0000
  H   H73       1.0  0.31996  0.26828  0.26032  1.0000
  H   H74       1.0  0.32236  0.28264  0.22821  1.0000
  C   C57       1.0  0.20080  0.08264  0.00967  1.0000
  H   H75       1.0  0.13776  0.25927  0.11155  1.0000
  H   H76       1.0  0.40311  0.28482  0.08348  1.0000
  H   H77       1.0  0.33627  0.20360  0.19935  1.0000
  H   H78       1.0  0.48397  0.21916  0.12411  1.0000
  H   H79       1.0  0.34216  0.20213  0.15830  1.0000
  N   N4        1.0  0.05629  0.26660  0.40013  1.0000
  C   C58       1.0  0.09167  0.26440  0.41002  1.0000
  C   C59       1.0  0.05328  0.28395  0.38636  1.0000
  H   H80       1.0  0.44063  0.23032  0.16577  1.0000
  C   C60       1.0  0.04785  0.25388  0.37660  1.0000
  C   C61       1.0  0.07316  0.25245  0.34881  1.0000
  C   C62       1.0  0.27151  0.30359  0.38429  1.0000
  H   H81       1.0  0.20745  0.32239  0.45354  1.0000
  C   C63       1.0  0.05605  0.29881  0.40862  1.0000
  C   C64       1.0  0.04905  0.31557  0.39291  1.0000
  C   C65       1.0  0.06230  0.23899  0.32696  1.0000
  H   H82       1.0  0.32136  0.04916  0.32909  1.0000
  H   H83       1.0  0.14330  0.25489  0.44690  1.0000
  H   H84       1.0  0.42180  0.02745  0.16358  1.0000
  H   H85       1.0  0.11029  0.26799  0.39124  1.0000
  H   H86       1.0  0.07328  0.28601  0.36805  1.0000
  H   H87       1.0  0.02933  0.28526  0.37468  1.0000
  H   H88       1.0  0.28370  0.05574  0.28704  1.0000
  H   H89       1.0  0.17590  0.06516  0.32716  1.0000
  H   H90       1.0  0.04457  0.24115  0.38712  1.0000
  H   H91       1.0  0.02321  0.25691  0.36713  1.0000
  C   C66       1.0  0.30614  0.29219  0.47646  1.0000
  H   H92       1.0  0.07477  0.26453  0.33609  1.0000
  C   C67       1.0  0.03220  0.26419  0.42748  1.0000
  H   H93       1.0  0.09620  0.23684  0.40496  1.0000
  H   H94       1.0  0.19865  0.01048  0.29451  1.0000
  H   H95       1.0  0.47441  0.00509  0.23890  1.0000
  H   H96       1.0  0.41890  0.15198  0.04301  1.0000
  C   C68       1.0  0.11166  0.28220  0.10363  1.0000
  H   H97       1.0  0.14253  0.24539  0.03014  1.0000
  H   H98       1.0  0.47906  0.16170  0.17664  1.0000
  C   C69       1.0  0.41292  0.01423  0.16514  1.0000
  H   H99       1.0  0.06211  0.22643  0.33824  1.0000
  H   H100      1.0  0.44658  0.02658  0.31524  1.0000
  H   H101      1.0  0.03688  0.24174  0.31904  1.0000
  C   C70       1.0  0.41898  0.10030  0.02395  1.0000
  H   H102      1.0  0.36899  0.27009  0.08263  1.0000
  H   H103      1.0  0.25781  0.03756  0.24361  1.0000
  H   H104      1.0  0.29165  0.28218  0.05806  1.0000
  N   N5        1.0  0.43368  0.11890  0.06954  1.0000
  H   H105      1.0  0.39631  0.13618  0.08859  1.0000
  N   N6        1.0  0.19213  0.26249  0.06265  1.0000
  C   C71       1.0  0.18862  0.24480  0.07514  1.0000
  C   C72       1.0  0.18665  0.26232  0.02895  1.0000
  C   C73       1.0  0.22796  0.26797  0.06627  1.0000
  C   C74       1.0  0.19951  0.24215  0.10823  1.0000
  C   C75       1.0  0.15112  0.25747  0.01968  1.0000
  H   H106      1.0  0.35781  0.23887  0.47659  1.0000
  C   C76       1.0  0.18564  0.22577  0.12228  1.0000
  H   H107      1.0  0.20392  0.23600  0.06054  1.0000
  H   H108      1.0  0.16255  0.24016  0.07407  1.0000
  H   H109      1.0  0.19139  0.27490  0.01840  1.0000
  H   H110      1.0  0.20510  0.25368  0.01731  1.0000
  H   H111      1.0  0.24591  0.25851  0.05633  1.0000
  H   H112      1.0  0.23293  0.26863  0.09083  1.0000
  H   H113      1.0  0.22727  0.24142  0.10815  1.0000
  H   H114      1.0  0.19139  0.25265  0.12320  1.0000
  H   H115      1.0  0.24126  0.28467  0.02718  1.0000
  H   H116      1.0  0.44448  0.25756  0.45274  1.0000
  H   H117      1.0  0.14343  0.23289  0.43805  1.0000
  C   C77       1.0  0.01729  0.29552  0.31315  1.0000
  H   H118      1.0  0.15777  0.22604  0.12409  1.0000
  C   C78       1.0  0.41197  0.27807  0.47008  1.0000
  H   H119      1.0  0.21496  0.31659  0.40294  1.0000
  H   H120      1.0  0.17094  0.03554  0.28343  1.0000
  H   H121      1.0  0.19479  0.22409  0.14553  1.0000
  H   H122      1.0  0.10610  0.29098  0.08472  1.0000
  C   C79       1.0  0.31782  0.01627  0.20853  1.0000
  H   H123      1.0  0.37302  0.10423  0.09572  1.0000
  H   H124      1.0  0.16391  0.28569  0.06382  1.0000
  S   S22       1.0  0.28470  0.24542  0.48360  1.0000
  H   H125      1.0  0.03271  0.25092  0.43563  1.0000
  H   H126      1.0  0.34451  0.05638  0.29509  1.0000
  H   H127      1.0  0.38963  0.11652  0.12537  1.0000
  C   C80       1.0  0.40727  0.01255  0.42816  1.0000
  H   H128      1.0  0.09669  0.27322  0.42864  1.0000
  H   H129      1.0  0.37546  0.01507  0.11271  1.0000
  H   H130      1.0  0.36532  0.08986  0.14532  1.0000
  C   C81       1.0  0.42653  0.02905  0.43403  1.0000
  H   H131      1.0  0.37385  0.03855  0.24828  1.0000
  H   H132      1.0  0.44729  0.10694  0.11145  1.0000
  H   H133      1.0  0.19910  0.09608  0.00292  1.0000
  H   H134      1.0  0.08168  0.29944  0.41718  1.0000
  C   C82       1.0  0.22496  0.01180  0.30097  1.0000
  C   C83       1.0  0.42350  0.16748  0.08174  1.0000
  C   C84       1.0  0.30010  0.02325  0.46098  1.0000
  H   H135      1.0  0.08024  0.23869  0.30675  1.0000
  H   H136      1.0  0.21888  0.29505  0.05820  1.0000
  H   H137      1.0  0.03775  0.29765  0.42838  1.0000
  C   C85       1.0  0.40311  0.01639  0.10885  1.0000
  C   C86       1.0  0.40058  0.03791  0.25403  1.0000
  H   H138      1.0  0.39401  0.07806  0.12106  1.0000
  C   C87       1.0  0.47969  0.14978  0.16379  1.0000
  H   H139      1.0  0.16194  0.32214  0.41460  1.0000
  H   H140      1.0  0.48389  0.26106  0.17931  1.0000
  H   H141      1.0  0.17605  0.03393  0.32344  1.0000
  H   H142      1.0  0.38437  0.01226  0.22047  1.0000
  H   H143      1.0  0.47174  0.02103  0.18691  1.0000
  H   H144      1.0  0.13836  0.05712  0.31157  1.0000
  C   C88       1.0  0.32877  0.04600  0.30513  1.0000
  C   C89       1.0  0.42203  0.03098  0.22726  1.0000
  C   C90       1.0  0.44710  0.27010  0.46301  1.0000
  H   H145      1.0  0.49153  0.23771  0.01618  1.0000
  H   H146      1.0  0.43584  0.13691  0.10570  1.0000
  H   H147      1.0  0.23553  0.06197  0.00064  1.0000
  H   H148      1.0  0.46013  0.15236  0.05762  1.0000
  H   H149      1.0  0.25113  0.00564  0.34228  1.0000
  H   H150      1.0  0.28963  0.01713  0.29513  1.0000
  H   H151      1.0  0.41798  0.08874  0.03817  1.0000
  H   H152      1.0  0.44999  0.06072  0.11823  1.0000
  H   H153      1.0  0.18095  0.28025  0.09891  1.0000
  H   H154      1.0  0.43265  0.09279  0.08445  1.0000
  C   C91       1.0  0.46034  0.05907  0.09522  1.0000
  C   C92       1.0  0.27145  0.29138  0.06378  1.0000
  H   H155      1.0  0.30681  0.04119  0.26289  1.0000
  C   C93       1.0  0.29775  0.04372  0.28668  1.0000
  H   H156      1.0  0.47307  0.29341  0.45009  1.0000
  H   H157      1.0  0.30104  0.20593  0.17566  1.0000
  C   C94       1.0  0.27555  0.02900  0.29965  1.0000
  H   H158      1.0  0.42956  0.22454  0.47278  1.0000
  H   H159      1.0  0.22639  0.05370  0.28071  1.0000
  H   H160      1.0  0.23001  0.04825  0.31950  1.0000
  C   C95       1.0  0.49027  0.10277  0.05845  1.0000
  C   C96       1.0  0.49506  0.05932  0.08919  1.0000
  H   H161      1.0  0.39612  0.16767  0.08802  1.0000
  H   H162      1.0  0.26943  0.29302  0.08886  1.0000
  H   H163      1.0  0.19823  0.03775  0.23799  1.0000
  S   S23       1.0  0.33239  0.06224  0.99850  1.0000
  H   H164      1.0  0.39883  0.00797  0.45141  1.0000
  C   C97       1.0  0.48978  0.23355  0.03972  1.0000
  H   H165      1.0  0.19536  0.02230  0.19085  1.0000
  C   C98       1.0  0.22119  0.04338  0.29766  1.0000
  C   C99       1.0  0.24424  0.02653  0.25392  1.0000
  C   C100      1.0  0.16587  0.05876  0.30728  1.0000
  C   C101      1.0  0.21893  0.02175  0.20313  1.0000
  H   H166      1.0  0.46465  0.01786  0.36611  1.0000
  H   H167      1.0  0.39869  0.27729  0.44849  1.0000
  H   H168      1.0  0.26521  0.29846  0.40749  1.0000
  H   H169      1.0  0.39306  0.21581  0.45629  1.0000
  H   H170      1.0  0.20907  0.06902  0.05188  1.0000
  H   H171      1.0  0.13304  0.26753  0.02632  1.0000
  C   C102      1.0  0.22560  0.00948  0.33605  1.0000
  C   C103      1.0  0.47816  0.24741  0.17979  1.0000
  C   C104      1.0  0.10064  0.24663  0.42195  1.0000
  C   C105      1.0  0.29177  0.00742  0.44970  1.0000
  H   H172      1.0  0.28020  0.32841  0.40048  1.0000
  C   C106      1.0  0.31317  0.01551  0.39873  1.0000
  H   H173      1.0  0.18902  0.08911  0.05680  1.0000
  H   H174      1.0  0.34822  0.26703  0.46840  1.0000
  H   H175      1.0  0.29769  0.01675  0.12302  1.0000
  C   C107      1.0  0.43689  0.01483  0.32638  1.0000
  H   H176      1.0  0.02431  0.31533  0.38246  1.0000
  H   H177      1.0  0.38867  0.03807  0.46773  1.0000
  H   H178      1.0  0.12378  0.28923  0.12173  1.0000
  C   C108      1.0  0.46509  0.00750  0.18972  1.0000
  H   H179      1.0  0.19427  0.21491  0.10832  1.0000
  H   H180      1.0  0.44857  0.00744  0.12733  1.0000
  H   H181      1.0  0.38387  0.01584  0.41674  1.0000
  H   H182      1.0  0.21553  0.32527  0.36611  1.0000
  C   C109      1.0  0.20867  0.08217  0.04325  1.0000
  C   C110      1.0  0.40289  0.04263  0.44680  1.0000
  H   H183      1.0  0.25622  0.29699  0.36783  1.0000
  H   H184      1.0  0.49278  0.27470  0.43512  1.0000
  H   H185      1.0  0.40965  0.02992  0.10920  1.0000
  C   C111      1.0  0.13760  0.24563  0.42926  1.0000
  H   H186      1.0  0.04870  0.32582  0.40974  1.0000
  H   H187      1.0  0.41550  0.29176  0.47366  1.0000
  H   H188      1.0  0.23692  0.03103  0.19247  1.0000
  H   H189      1.0  0.42956  0.17876  0.06733  1.0000
  H   H190      1.0  0.15403  0.24813  0.40848  1.0000
  H   H191      1.0  0.45530  0.28257  0.41876  1.0000
  C   C112      1.0  0.48568  0.22318  0.10052  1.0000
  C   C113      1.0  0.43801  0.01623  0.36092  1.0000
  H   H192      1.0  0.40270  0.02984  0.27455  1.0000
  H   H193      1.0  0.41837  0.03938  0.20746  1.0000
  H   H194      1.0  0.17608  0.07653  0.00802  1.0000
  H   H195      1.0  0.35833  0.29908  0.47288  1.0000
  H   H196      1.0  0.29097  0.13944  0.00060  1.0000
  H   H197      1.0  0.42353  0.02759  0.36775  1.0000
  C   C114      1.0  0.22700  0.32662  0.38851  1.0000
  H   H198      1.0  0.41764  0.05382  0.45282  1.0000
  H   H199      1.0  0.10537  0.33150  0.43055  1.0000
  H   H200      1.0  0.43766  0.16825  0.10272  1.0000
  H   H201      1.0  0.44553  0.02668  0.45116  1.0000
  H   H202      1.0  0.29775  0.30545  0.47518  1.0000
  C   C115      1.0  0.41214  0.01259  0.22078  1.0000
  C   C116      1.0  0.26492  0.32247  0.38325  1.0000
  H   H203      1.0  0.47485  0.01101  0.41271  1.0000
  C   C117      1.0  0.29847  0.00350  0.41875  1.0000
  H   H204      1.0  0.41054  0.01146  0.08597  1.0000
  C   C118      1.0  0.39344  0.09846  0.99956  1.0000
  C   C119      1.0  0.23104  0.32965  0.45385  1.0000
  H   H205      1.0  0.27403  0.32739  0.36049  1.0000
  H   H206      1.0  0.22965  0.00895  0.20051  1.0000
  C   C120      1.0  0.42123  0.00669  0.13329  1.0000
  C   C121      1.0  0.30212  0.00237  0.19646  1.0000
  S   S24       1.0  0.27005  0.02386  0.99720  1.0000
  H   H207      1.0  0.34619  0.01020  0.99812  1.0000
  C   C122      1.0  0.34145  0.29137  0.48829  1.0000
  C   C123      1.0  0.23673  0.33395  0.48691  1.0000
  H   H208      1.0  0.49478  0.09861  0.08209  1.0000
  H   H209      1.0  0.45281  0.00424  0.31799  1.0000
  H   H210      1.0  0.41797  0.00473  0.24095  1.0000
  C   C124      1.0  0.35408  0.27297  0.49026  1.0000
  H   H211      1.0  0.20043  0.04181  0.99134  1.0000
  H   H212      1.0  0.47614  0.00143  0.16886  1.0000
  Fe  Fe13      1.0  0.09884  0.29742  0.84484  1.0000
  S   S25       1.0  0.11554  0.30634  0.79786  1.0000
  S   S26       1.0  0.04550  0.29103  0.86317  1.0000
  Fe  Fe14      1.0  0.17072  0.29896  0.86782  1.0000
  S   S27       1.0  0.19222  0.30872  0.82225  1.0000
  S   S28       1.0  0.20365  0.29598  0.90903  1.0000
  H   H213      1.0  0.29145  0.07976  0.95567  1.0000
  Fe  Fe15      1.0  0.16015  0.28908  0.80146  1.0000
  S   S29       1.0  0.17876  0.26801  0.76942  1.0000
  S   S30       1.0  0.12724  0.31723  0.86886  1.0000
  S   S31       1.0  0.14093  0.27863  0.84720  1.0000
  Fe  Fe16      1.0  0.27621  0.24534  0.60323  1.0000
  S   S32       1.0  0.31131  0.25732  0.56707  1.0000
  S   S33       1.0  0.24908  0.26467  0.63455  1.0000
  Fe  Fe17      1.0  0.29549  0.20982  0.58061  1.0000
  S   S34       1.0  0.33116  0.21969  0.54327  1.0000
  S   S35       1.0  0.29286  0.18220  0.59596  1.0000
  Fe  Fe18      1.0  0.34885  0.23736  0.57822  1.0000
  S   S36       1.0  0.40274  0.24414  0.58872  1.0000
  Fe  Fe19      1.0  0.29069  0.23894  0.53439  1.0000
  C   C125      1.0  0.30336  0.26610  0.76727  1.0000
  S   S37       1.0  0.31531  0.22674  0.61639  1.0000
  S   S38       1.0  0.25346  0.22777  0.56974  1.0000
  Fe  Fe20      1.0  0.33106  0.06057  0.58821  1.0000
  S   S39       1.0  0.35445  0.04174  0.55632  1.0000
  S   S40       1.0  0.32814  0.05768  0.63983  1.0000
  Fe  Fe21      1.0  0.32352  0.08715  0.53786  1.0000
  H   H214      1.0  0.19388  0.02407  0.74486  1.0000
  S   S41       1.0  0.31029  0.11375  0.52228  1.0000
  Fe  Fe22      1.0  0.31521  0.04943  0.52402  1.0000
  C   C126      1.0  0.42243  0.06347  0.66228  1.0000
  Fe  Fe23      1.0  0.38349  0.06352  0.53600  1.0000
  S   S42       1.0  0.43732  0.05923  0.52083  1.0000
  S   S43       1.0  0.28886  0.06691  0.55781  1.0000
  S   S44       1.0  0.36364  0.08199  0.57041  1.0000
  C   C127      1.0  0.46497  0.06187  0.54994  1.0000
  C   C128      1.0  0.45628  0.07186  0.57506  1.0000
  C   C129      1.0  0.05604  0.26242  0.76176  1.0000
  C   C130      1.0  0.00685  0.29585  0.81300  1.0000
  H   H215      1.0  0.43231  0.07808  0.57673  1.0000
  H   H216      1.0  0.37630  0.01789  0.68935  1.0000
  H   H217      1.0  0.21774  0.26872  0.82576  1.0000
  C   C131      1.0  0.31962  0.03874  0.66024  1.0000
  C   C132      1.0  0.31795  0.03899  0.69222  1.0000
  H   H218      1.0  0.30425  0.28218  0.86830  1.0000
  H   H219      1.0  0.48228  0.03783  0.91130  1.0000
  H   H220      1.0  0.32286  0.05056  0.70379  1.0000
  H   H221      1.0  0.20902  0.02090  0.60728  1.0000
  H   H222      1.0  0.48303  0.21328  0.52042  1.0000
  Fe  Fe24      1.0  0.14627  0.32546  0.82203  1.0000
  H   H223      1.0  0.10383  0.27333  0.77372  1.0000
  H   H224      1.0  0.20424  0.23427  0.87151  1.0000
  H   H225      1.0  0.07745  0.23594  0.88611  1.0000
  H   H226      1.0  0.04600  0.22137  0.78583  1.0000
  H   H227      1.0  0.33204  0.22754  0.86366  1.0000
  C   C133      1.0  0.29759  0.16334  0.57494  1.0000
  C   C134      1.0  0.29817  0.16319  0.54314  1.0000
  C   C135      1.0  0.30222  0.14792  0.52749  1.0000
  C   C136      1.0  0.30602  0.13262  0.54334  1.0000
  C   C137      1.0  0.30583  0.13278  0.57515  1.0000
  C   C138      1.0  0.30145  0.14805  0.59082  1.0000
  H   H228      1.0  0.29512  0.17482  0.53060  1.0000
  H   H229      1.0  0.23700  0.03133  0.55811  1.0000
  H   H230      1.0  0.30862  0.12113  0.58765  1.0000
  H   H231      1.0  0.30099  0.14801  0.61542  1.0000
  C   C139      1.0  0.44303  0.23703  0.57517  1.0000
  C   C140      1.0  0.44737  0.22621  0.55052  1.0000
  C   C141      1.0  0.06739  0.25266  0.81296  1.0000
  C   C142      1.0  0.47163  0.24292  0.58907  1.0000
  H   H232      1.0  0.42564  0.22151  0.53983  1.0000
  H   H233      1.0  0.46860  0.25134  0.60811  1.0000
  N   N7        1.0  0.22101  0.07129  0.95667  1.0000
  C   C143      1.0  0.27317  0.01284  0.96218  1.0000
  H   H234      1.0  0.21337  0.24196  0.80284  1.0000
  C   C144      1.0  0.29804  0.25266  0.83282  1.0000
  H   H235      1.0  0.03004  0.29878  0.80014  1.0000
  C   C145      1.0  0.21983  0.27822  0.92880  1.0000
  C   C146      1.0  0.21134  0.26171  0.92193  1.0000
  C   C147      1.0  0.22476  0.24809  0.93823  1.0000
  H   H236      1.0  0.07962  0.23570  0.72605  1.0000
  H   H237      1.0  0.31925  0.23382  0.90179  1.0000
  C   C148      1.0  0.24201  0.28083  0.95215  1.0000
  H   H238      1.0  0.19395  0.25948  0.90443  1.0000
  H   H239      1.0  0.21764  0.23540  0.93292  1.0000
  H   H240      1.0  0.41410  0.06475  0.63868  1.0000
  H   H241      1.0  0.44601  0.00511  0.66800  1.0000
  C   C149      1.0  0.19887  0.26747  0.73209  1.0000
  C   C150      1.0  0.20411  0.28191  0.71402  1.0000
  C   C151      1.0  0.21955  0.28074  0.68442  1.0000
  C   C152      1.0  0.23035  0.26520  0.67245  1.0000
  C   C153      1.0  0.22551  0.25078  0.69072  1.0000
  C   C154      1.0  0.20978  0.25192  0.72024  1.0000
  H   H242      1.0  0.19593  0.29396  0.72266  1.0000
  H   H243      1.0  0.22309  0.29199  0.67058  1.0000
  H   H244      1.0  0.23355  0.23873  0.68194  1.0000
  H   H245      1.0  0.20593  0.24064  0.73392  1.0000
  H   H246      1.0  0.00592  0.23818  0.81096  1.0000
  H   H247      1.0  0.46198  0.28598  0.57470  1.0000
  C   C155      1.0  0.43354  0.27893  0.53619  1.0000
  C   C156      1.0  0.23628  0.06365  0.66018  1.0000
  H   H248      1.0  0.44582  0.00469  0.61859  1.0000
  H   H249      1.0  0.40861  0.01257  0.57746  1.0000
  C   C157      1.0  0.23496  0.02574  0.60695  1.0000
  H   H250      1.0  0.22814  0.05246  0.59843  1.0000
  H   H251      1.0  0.38265  0.24738  0.52190  1.0000
  H   H252      1.0  0.44862  0.01814  0.89124  1.0000
  H   H253      1.0  0.30414  0.31162  0.84837  1.0000
  C   C158      1.0  0.25130  0.06296  0.94108  1.0000
  H   H254      1.0  0.38249  0.01894  0.95448  1.0000
  C   C159      1.0  0.05981  0.22829  0.73882  1.0000
  C   C160      1.0  0.23670  0.04429  0.61726  1.0000
  H   H255      1.0  0.22447  0.26554  0.50067  1.0000
  H   H256      1.0  0.26101  0.05964  0.66835  1.0000
  H   H257      1.0  0.22187  0.06855  0.68051  1.0000
  C   C161      1.0  0.05929  0.24132  0.84141  1.0000
  C   C162      1.0  0.43003  0.01478  0.91015  1.0000
  H   H258      1.0  0.37642  0.02155  0.87269  1.0000
  H   H259      1.0  0.08722  0.22917  0.77922  1.0000
  H   H260      1.0  0.39434  0.10949  0.98384  1.0000
  C   C163      1.0  0.37629  0.18053  0.50169  1.0000
  C   C164      1.0  0.39708  0.27929  0.52583  1.0000
  H   H261      1.0  0.08271  0.25744  0.87378  1.0000
  C   C165      1.0  0.40272  0.17927  0.52550  1.0000
  H   H262      1.0  0.20880  0.02289  0.66110  1.0000
  H   H263      1.0  0.40398  0.02123  0.98886  1.0000
  H   H264      1.0  0.26406  0.04682  0.61829  1.0000
  H   H265      1.0  0.15968  0.02886  0.64459  1.0000
  H   H266      1.0  0.41721  0.16768  0.52069  1.0000
  H   H267      1.0  0.27745  0.02765  0.57364  1.0000
  C   C166      1.0  0.22013  0.03447  0.66971  1.0000
  H   H268      1.0  0.32072  0.02262  0.94425  1.0000
  H   H269      1.0  0.16617  0.03775  0.60659  1.0000
  C   C167      1.0  0.29989  0.01448  0.94005  1.0000
  H   H270      1.0  0.41900  0.04527  0.69968  1.0000
  H   H271      1.0  0.25919  0.28289  0.87386  1.0000
  H   H272      1.0  0.42812  0.30017  0.56695  1.0000
  H   H273      1.0  0.38031  0.27395  0.54469  1.0000
  C   C168      1.0  0.41623  0.04529  0.67458  1.0000
  C   C169      1.0  0.43028  0.03097  0.62689  1.0000
  H   H274      1.0  0.33986  0.29708  0.51120  1.0000
  H   H275      1.0  0.31832  0.05333  0.93484  1.0000
  H   H276      1.0  0.03560  0.23184  0.72954  1.0000
  H   H277      1.0  0.12055  0.05829  0.61769  1.0000
  H   H278      1.0  0.15907  0.26732  0.97324  1.0000
  C   C170      1.0  0.29932  0.00555  0.91227  1.0000
  H   H279      1.0  0.17416  0.24520  0.84902  1.0000
  H   H280      1.0  0.18496  0.22370  0.84100  1.0000
  C   C171      1.0  0.17756  0.11285  0.93008  1.0000
  H   H281      1.0  0.38930  0.04277  0.67134  1.0000
  H   H282      1.0  0.40276  0.02963  0.62449  1.0000
  H   H283      1.0  0.43694  0.04302  0.61502  1.0000
  H   H284      1.0  0.06021  0.22785  0.83542  1.0000
  N   N8        1.0  0.43809  0.03180  0.66001  1.0000
  C   C172      1.0  0.16308  0.03146  0.96390  1.0000
  H   H285      1.0  0.41938  0.27995  0.58483  1.0000
  H   H286      1.0  0.18600  0.05851  0.92934  1.0000
  H   H287      1.0  0.44723  0.18173  0.63325  1.0000
  C   C173      1.0  0.28230  0.30639  0.86209  1.0000
  C   C174      1.0  0.44887  0.01730  0.60791  1.0000
  H   H288      1.0  0.30765  0.02483  0.73403  1.0000
  H   H289      1.0  0.30216  0.14792  0.50290  1.0000
  H   H290      1.0  0.44685  0.03275  0.95791  1.0000
  H   H291      1.0  0.37522  0.07328  0.68217  1.0000
  C   C175      1.0  0.06070  0.23150  0.77357  1.0000
  N   N9        1.0  0.40797  0.17355  0.58328  1.0000
  C   C176      1.0  0.42147  0.15612  0.57741  1.0000
  C   C177      1.0  0.43703  0.18554  0.58465  1.0000
  C   C178      1.0  0.38688  0.17313  0.61286  1.0000
  C   C179      1.0  0.38618  0.17941  0.55828  1.0000
  H   H292      1.0  0.21897  0.08447  0.63111  1.0000
  C   C180      1.0  0.39516  0.14279  0.56921  1.0000
  C   C181      1.0  0.37586  0.19042  0.62582  1.0000
  C   C182      1.0  0.20651  0.02183  0.72215  1.0000
  H   H293      1.0  0.31477  0.02336  0.62091  1.0000
  H   H294      1.0  0.28475  0.30970  0.88632  1.0000
  C   C183      1.0  0.41160  0.12573  0.56348  1.0000
  C   C184      1.0  0.35467  0.18829  0.65563  1.0000
  H   H295      1.0  0.43364  0.15117  0.59786  1.0000
  H   H296      1.0  0.44192  0.15635  0.55917  1.0000
  H   H297      1.0  0.09107  0.20583  0.73961  1.0000
  H   H298      1.0  0.42782  0.19870  0.58633  1.0000
  H   H299      1.0  0.39998  0.16623  0.63090  1.0000
  H   H300      1.0  0.36340  0.16587  0.61012  1.0000
  H   H301      1.0  0.36260  0.17201  0.55878  1.0000
  H   H302      1.0  0.37766  0.19251  0.56225  1.0000
  C   C185      1.0  0.30196  0.00955  0.69472  1.0000
  H   H303      1.0  0.16593  0.09415  0.96443  1.0000
  H   H304      1.0  0.37572  0.14120  0.58802  1.0000
  H   H305      1.0  0.38254  0.14634  0.54822  1.0000
  H   H306      1.0  0.36058  0.19734  0.60954  1.0000
  H   H307      1.0  0.39771  0.19833  0.63073  1.0000
  H   H308      1.0  0.47536  0.20829  0.61635  1.0000
  H   H309      1.0  0.39913  0.08701  0.98614  1.0000
  H   H310      1.0  0.10886  0.25485  0.75133  1.0000
  C   C186      1.0  0.43011  0.01552  0.67693  1.0000
  H   H311      1.0  0.10644  0.03690  0.62272  1.0000
  H   H312      1.0  0.40640  0.08897  0.67174  1.0000
  C   C187      1.0  0.31331  0.02373  0.64552  1.0000
  S   S45       1.0  0.34616  0.07005  0.50161  1.0000
  H   H313      1.0  0.42308  0.12089  0.58430  1.0000
  H   H314      1.0  0.39222  0.11664  0.55695  1.0000
  C   C188      1.0  0.39439  0.01194  0.97292  1.0000
  H   H315      1.0  0.33183  0.18075  0.65207  1.0000
  H   H316      1.0  0.36943  0.18205  0.67322  1.0000
  H   H317      1.0  0.34657  0.20081  0.66407  1.0000
  H   H318      1.0  0.08469  0.28942  0.72883  1.0000
  C   C189      1.0  0.12279  0.04672  0.63182  1.0000
  N   N10       1.0  0.21843  0.04885  0.64711  1.0000
  C   C190      1.0  0.18281  0.05415  0.64223  1.0000
  H   H319      1.0  0.28028  0.26781  0.72352  1.0000
  C   C191      1.0  0.31178  0.06402  0.91987  1.0000
  H   H320      1.0  0.04398  0.27428  0.76983  1.0000
  H   H321      1.0  0.21525  0.04789  0.71335  1.0000
  H   H322      1.0  0.19474  0.01073  0.71203  1.0000
  H   H323      1.0  0.45012  0.28644  0.52019  1.0000
  H   H324      1.0  0.15708  0.03051  0.93962  1.0000
  C   C192      1.0  0.43574  0.28677  0.56756  1.0000
  C   C193      1.0  0.08400  0.24421  0.86615  1.0000
  H   H325      1.0  0.17105  0.05954  0.66344  1.0000
  N   N11       1.0  0.39073  0.27057  0.49639  1.0000
  H   H326      1.0  0.25883  0.31221  0.85446  1.0000
  C   C194      1.0  0.06629  0.20982  0.73166  1.0000
  H   H327      1.0  0.47582  0.01884  0.97344  1.0000
  H   H328      1.0  0.09505  0.25199  0.80809  1.0000
  H   H329      1.0  0.23337  0.01903  0.72542  1.0000
  H   H330      1.0  0.43104  0.12665  0.54449  1.0000
  H   H331      1.0  0.32543  0.25971  0.77646  1.0000
  C   C195      1.0  0.24281  0.07902  0.63849  1.0000
  H   H332      1.0  0.06220  0.26586  0.81978  1.0000
  H   H333      1.0  0.18247  0.06453  0.62510  1.0000
  H   H334      1.0  0.03389  0.24429  0.85157  1.0000
  C   C196      1.0  0.30399  0.00926  0.66272  1.0000
  H   H335      1.0  0.25844  0.07556  0.61795  1.0000
  H   H336      1.0  0.39086  0.29284  0.52427  1.0000
  H   H337      1.0  0.06643  0.20798  0.70667  1.0000
  C   C197      1.0  0.26157  0.09289  0.65421  1.0000
  H   H338      1.0  0.38520  0.00790  0.65320  1.0000
  H   H339      1.0  0.21559  0.03492  0.95416  1.0000
  C   C198      1.0  0.39341  0.00920  0.67673  1.0000
  H   H340      1.0  0.43621  0.01675  0.70126  1.0000
  H   H341      1.0  0.45285  0.18529  0.56302  1.0000
  H   H342      1.0  0.04449  0.25983  0.73997  1.0000
  H   H343      1.0  0.00463  0.26030  0.80528  1.0000
  H   H344      1.0  0.29687  0.24727  0.73228  1.0000
  C   C199      1.0  0.28283  0.07420  0.93453  1.0000
  H   H345      1.0  0.04628  0.20179  0.74274  1.0000
  H   H346      1.0  0.18898  0.11397  0.90653  1.0000
  H   H347      1.0  0.42316  0.24925  0.50459  1.0000
  H   H348      1.0  0.12595  0.28056  0.72224  1.0000
  C   C200      1.0  0.29256  0.24650  0.86652  1.0000
  C   C201      1.0  0.22330  0.24172  0.82594  1.0000
  C   C202      1.0  0.32427  0.23839  0.87798  1.0000
  C   C203      1.0  0.19491  0.23592  0.84833  1.0000
  H   H349      1.0  0.23489  0.26069  0.85877  1.0000
  H   H350      1.0  0.27234  0.23694  0.86868  1.0000
  H   H351      1.0  0.28521  0.25671  0.88227  1.0000
  H   H352      1.0  0.24351  0.23217  0.82592  1.0000
  H   H353      1.0  0.34505  0.24767  0.87780  1.0000
  C   C204      1.0  0.23641  0.25945  0.83371  1.0000
  C   C205      1.0  0.00743  0.29209  0.84410  1.0000
  H   H354      1.0  0.24464  0.05769  0.91884  1.0000
  H   H355      1.0  0.47426  0.17006  0.60716  1.0000
  H   H356      1.0  0.30133  0.24107  0.81906  1.0000
  C   C206      1.0  0.47450  0.03662  0.66330  1.0000
  H   H357      1.0  0.30487  0.05907  0.89757  1.0000
  C   C207      1.0  0.28083  0.28731  0.85930  1.0000
  H   H358      1.0  0.24662  0.09742  0.67449  1.0000
  H   H359      1.0  0.30771  0.27985  0.76698  1.0000
  H   H360      1.0  0.32276  0.25917  0.83036  1.0000
  C   C208      1.0  0.40248  0.07618  0.68166  1.0000
  H   H361      1.0  0.26617  0.10363  0.63813  1.0000
  N   N12       1.0  0.27107  0.26373  0.82035  1.0000
  C   C209      1.0  0.25533  0.26720  0.96854  1.0000
  C   C210      1.0  0.15912  0.04055  0.63073  1.0000
  H   H362      1.0  0.33428  0.07215  0.91614  1.0000
  H   H363      1.0  0.24685  0.03117  0.67281  1.0000
  C   C211      1.0  0.19512  0.04168  0.96687  1.0000
  C   C212      1.0  0.30945  0.02443  0.70942  1.0000
  H   H364      1.0  0.32486  0.26424  0.72094  1.0000
  C   C213      1.0  0.27806  0.28205  0.82583  1.0000
  H   H365      1.0  0.26498  0.24827  0.78077  1.0000
  C   C214      1.0  0.24656  0.25071  0.96189  1.0000
  H   H366      1.0  0.11004  0.24128  0.85765  1.0000
  C   C215      1.0  0.30111  0.26099  0.73404  1.0000
  H   H367      1.0  0.48360  0.04487  0.64392  1.0000
  H   H368      1.0  0.24919  0.01753  0.62224  1.0000
  C   C216      1.0  0.27060  0.26153  0.78625  1.0000
  C   C217      1.0  0.39650  0.25198  0.50070  1.0000
  C   C218      1.0  0.21501  0.08784  0.94054  1.0000
  H   H369      1.0  0.28627  0.08824  0.66129  1.0000
  H   H370      1.0  0.24896  0.29352  0.95761  1.0000
  H   H371      1.0  0.25849  0.28997  0.81552  1.0000
  H   H372      1.0  0.25003  0.26916  0.77693  1.0000
  H   H373      1.0  0.17608  0.04007  0.70033  1.0000
  C   C219      1.0  0.46097  0.18217  0.61067  1.0000
  H   H374      1.0  0.44338  0.26598  0.53768  1.0000
  H   H375      1.0  0.03730  0.32921  0.83625  1.0000
  C   C220      1.0  0.20323  0.03738  0.70179  1.0000
  H   H376      1.0  0.41669  0.02676  0.91549  1.0000
  H   H377      1.0  0.11376  0.04933  0.65562  1.0000
  H   H378      1.0  0.30237  0.28594  0.81445  1.0000
  C   C221      1.0  0.46530  0.02275  0.95148  1.0000
  H   H379      1.0  0.27238  0.26946  0.98633  1.0000
  H   H380      1.0  0.42007  0.19013  0.52216  1.0000
  C   C222      1.0  0.47926  0.07434  0.59755  1.0000
  H   H381      1.0  0.09064  0.27084  0.70571  1.0000
  C   C223      1.0  0.09887  0.27749  0.72604  1.0000
  C   C224      1.0  0.25069  0.02371  0.57475  1.0000
  N   N13       1.0  0.04899  0.24850  0.78483  1.0000
  C   C225      1.0  0.09371  0.26642  0.75453  1.0000
  H   H382      1.0  0.41093  0.07608  0.70530  1.0000
  H   H383      1.0  0.49428  0.05433  0.95727  1.0000
  H   H384      1.0  0.22200  0.08680  0.91575  1.0000
  H   H385      1.0  0.44926  0.06705  0.66231  1.0000
  H   H386      1.0  0.43797  0.02867  0.56412  1.0000
  H   H387      1.0  0.41121  0.01247  0.85043  1.0000
  C   C226      1.0  0.39058  0.00980  0.86780  1.0000
  H   H388      1.0  0.33789  0.26638  0.50801  1.0000
  C   C227      1.0  0.01189  0.24831  0.79389  1.0000
  C   C228      1.0  0.47994  0.22153  0.53969  1.0000
  H   H389      1.0  0.23767  0.32219  0.50073  1.0000
  H   H390      1.0  0.27776  0.08466  0.91854  1.0000
  H   H391      1.0  0.25964  0.05209  0.95495  1.0000
  C   C229      1.0  0.43547  0.01634  0.57609  1.0000
  C   C230      1.0  0.24637  0.00228  0.95630  1.0000
  H   H392      1.0  0.16679  0.01857  0.97307  1.0000
  H   H393      1.0  0.16315  0.08706  0.92630  1.0000
  H   H394      1.0  0.31964  0.00688  0.89517  1.0000
  C   C231      1.0  0.19137  0.05972  0.95383  1.0000
  N   N14       1.0  0.44786  0.00825  0.93731  1.0000
  H   H395      1.0  0.47287  0.08244  0.61652  1.0000
  H   H396      1.0  0.15114  0.11725  0.93002  1.0000
  H   H397      1.0  0.45002  0.00693  0.56246  1.0000
  H   H398      1.0  0.35970  0.19153  0.50583  1.0000
  H   H399      1.0  0.23169  0.09773  0.94924  1.0000
  H   H400      1.0  0.39447  0.21695  0.49699  1.0000
  H   H401      1.0  0.24962  0.01035  0.56801  1.0000
  C   C232      1.0  0.17845  0.09465  0.94142  1.0000
  H   H402      1.0  0.47595  0.02047  0.60500  1.0000
  H   H403      1.0  0.16646  0.24498  0.97746  1.0000
  H   H404      1.0  0.19137  0.12110  0.94530  1.0000
  H   H405      1.0  0.12425  0.25301  0.97892  1.0000
  S   S46       1.0  0.29045  0.02791  0.49985  1.0000
  H   H406      1.0  0.46769  0.10096  0.53506  1.0000
  H   H407      1.0  0.16817  0.06498  0.96493  1.0000
  C   C233      1.0  0.15030  0.25561  0.98520  1.0000
  C   C234      1.0  0.40450  0.00258  0.89688  1.0000
  H   H408      1.0  0.36061  0.16899  0.50231  1.0000
  H   H409      1.0  0.47713  0.04429  0.68406  1.0000
  C   C235      1.0  0.48746  0.19597  0.61163  1.0000
  S   S47       1.0  0.26089  0.23298  0.98295  1.0000
  C   C236      1.0  0.49331  0.03138  0.93092  1.0000
  H   H410      1.0  0.47270  0.10410  0.49447  1.0000
  C   C237      1.0  0.48622  0.10117  0.51530  1.0000
  H   H411      1.0  0.28818  0.28520  0.49215  1.0000
  C   C238      1.0  0.22857  0.07400  0.98951  1.0000
  H   H412      1.0  0.14166  0.03729  0.97704  1.0000
  C   C239      1.0  0.36684  0.00173  0.99013  1.0000
  H   H413      1.0  0.25121  0.08199  0.99094  1.0000
  Fe  Fe25      1.0  0.17077  0.58086  0.07921  1.0000
  S   S48       1.0  0.14887  0.57884  0.12707  1.0000
  S   S49       1.0  0.19197  0.60519  0.05828  1.0000
  Fe  Fe26      1.0  0.15349  0.54433  0.06431  1.0000
  S   S50       1.0  0.12955  0.53986  0.11131  1.0000
  S   S51       1.0  0.14986  0.52076  0.03573  1.0000
  Fe  Fe27      1.0  0.10705  0.56536  0.10599  1.0000
  S   S52       1.0  0.05432  0.57011  0.12371  1.0000
  Fe  Fe28      1.0  0.17327  0.55343  0.12885  1.0000
  S   S53       1.0  0.19958  0.54556  0.17148  1.0000
  S   S54       1.0  0.12694  0.56888  0.05769  1.0000
  S   S55       1.0  0.19952  0.55639  0.08224  1.0000
  Fe  Fe29      1.0  0.18268  0.47793  0.36825  1.0000
  S   S56       1.0  0.19715  0.46047  0.32911  1.0000
  S   S57       1.0  0.22223  0.48902  0.39744  1.0000
  Fe  Fe30      1.0  0.10908  0.47543  0.35796  1.0000
  S   S58       1.0  0.11770  0.45782  0.31926  1.0000
  S   S59       1.0  0.05772  0.48415  0.37486  1.0000
  Fe  Fe31      1.0  0.15400  0.44429  0.34776  1.0000
  S   S60       1.0  0.14348  0.41621  0.35658  1.0000
  Fe  Fe32      1.0  0.15920  0.47545  0.30333  1.0000
  S   S61       1.0  0.15383  0.48192  0.25289  1.0000
  S   S62       1.0  0.14231  0.46092  0.38814  1.0000
  S   S63       1.0  0.14836  0.49381  0.34092  1.0000
  S   S64       1.0  0.19897  0.34721  0.30135  1.0000
  C   C240      1.0  0.18216  0.34697  0.40017  1.0000
  H   H414      1.0  0.27577  0.51775  0.47875  1.0000
  H   H415      1.0  0.05968  0.47304  0.31317  1.0000
  C   C241      1.0  0.15757  0.39753  0.33832  1.0000
  C   C242      1.0  0.18653  0.39704  0.31897  1.0000
  C   C243      1.0  0.19830  0.38159  0.30722  1.0000
  C   C244      1.0  0.18108  0.36650  0.31428  1.0000
  C   C245      1.0  0.15132  0.36710  0.33261  1.0000
  C   C246      1.0  0.13995  0.38248  0.34490  1.0000
  H   H416      1.0  0.20041  0.40848  0.31378  1.0000
  H   H417      1.0  0.22123  0.38130  0.29292  1.0000
  H   H418      1.0  0.13744  0.35567  0.33781  1.0000
  H   H419      1.0  0.11753  0.38270  0.35985  1.0000
  H   H420      1.0  0.09302  0.42192  0.31277  1.0000
  H   H421      1.0  0.05866  0.57693  0.05908  1.0000
  H   H422      1.0  0.07298  0.46342  0.23549  1.0000
  C   C247      1.0  0.25172  0.51464  0.47008  1.0000
  C   C248      1.0  0.04524  0.41146  0.35502  1.0000
  H   H423      1.0  0.28016  0.38514  0.37881  1.0000
  C   C249      1.0  0.22010  0.50098  0.43147  1.0000
  H   H424      1.0  0.16293  0.33740  0.44472  1.0000
  H   H425      1.0  0.02963  0.35293  0.31494  1.0000
  C   C250      1.0  0.09715  0.54305  0.47342  1.0000
  H   H426      1.0  0.27394  0.50119  0.43206  1.0000
  H   H427      1.0  0.16627  0.50320  0.43768  1.0000
  H   H428      1.0  0.03842  0.63509  0.09416  1.0000
  C   C251      1.0  0.18418  0.52903  0.19594  1.0000
  C   C252      1.0  0.19977  0.52556  0.22326  1.0000
  C   C253      1.0  0.18987  0.51161  0.24179  1.0000
  C   C254      1.0  0.16489  0.50073  0.23266  1.0000
  C   C255      1.0  0.14920  0.50434  0.20549  1.0000
  C   C256      1.0  0.15804  0.51865  0.18776  1.0000
  H   H429      1.0  0.21995  0.53354  0.22995  1.0000
  H   H430      1.0  0.20235  0.50894  0.26254  1.0000
  H   H431      1.0  0.13018  0.49596  0.19799  1.0000
  H   H432      1.0  0.14509  0.52141  0.16740  1.0000
  C   C257      1.0  0.18569  0.62536  0.07431  1.0000
  C   C258      1.0  0.17295  0.62733  0.10429  1.0000
  C   C259      1.0  0.17240  0.64332  0.11761  1.0000
  C   C260      1.0  0.18329  0.65761  0.10074  1.0000
  C   C261      1.0  0.19427  0.65578  0.07023  1.0000
  C   C262      1.0  0.19577  0.63970  0.05721  1.0000
  H   H433      1.0  0.16436  0.61650  0.11747  1.0000
  H   H434      1.0  0.16375  0.64461  0.14120  1.0000
  H   H435      1.0  0.03352  0.40486  0.37533  1.0000
  H   H436      1.0  0.20565  0.63832  0.03397  1.0000
  H   H437      1.0  0.09807  0.49813  0.47127  1.0000
  H   H438      1.0  0.22996  0.37787  0.41197  1.0000
  C   C263      1.0  0.28154  0.55097  0.12917  1.0000
  C   C264      1.0  0.05939  0.49647  0.24763  1.0000
  H   H439      1.0  0.07231  0.40806  0.35491  1.0000
  C   C265      1.0  0.04210  0.48509  0.22501  1.0000
  H   H440      1.0  0.02895  0.48159  0.46412  1.0000
  H   H441      1.0  0.23508  0.50860  0.01612  1.0000
  H   H442      1.0  0.05305  0.53489  0.28096  1.0000
  C   C266      1.0  0.03722  0.52376  0.22838  1.0000
  H   H443      1.0  0.22734  0.52953  0.03023  1.0000
  H   H444      1.0  0.04973  0.55163  0.19049  1.0000
  H   H445      1.0  0.07805  0.46303  0.45048  1.0000
  H   H446      1.0  0.05104  0.46177  0.20089  1.0000
  H   H447      1.0  0.06571  0.35603  0.33745  1.0000
  H   H448      1.0  0.30219  0.54495  0.11532  1.0000
  H   H449      1.0  0.08019  0.44093  0.26968  1.0000
  N   N15       1.0  0.02777  0.50869  0.46543  1.0000
  H   H450      1.0  0.21701  0.49798  0.17427  1.0000
  N   N16       1.0  0.25793  0.59758  0.14628  1.0000
  C   C267      1.0  0.25371  0.57891  0.14247  1.0000
  C   C268      1.0  0.22509  0.60479  0.15879  1.0000
  C   C269      1.0  0.26501  0.60526  0.11494  1.0000
  C   C270      1.0  0.28633  0.60198  0.16615  1.0000
  C   C271      1.0  0.29403  0.58936  0.19213  1.0000
  C   C272      1.0  0.28272  0.56998  0.12412  1.0000
  C   C273      1.0  0.26689  0.62473  0.11318  1.0000
  C   C274      1.0  0.21163  0.59827  0.19043  1.0000
  C   C275      1.0  0.17675  0.60541  0.19857  1.0000
  C   C276      1.0  0.31863  0.59685  0.21368  1.0000
  N   N17       1.0  0.02989  0.40549  0.32647  1.0000
  H   H451      1.0  0.23026  0.57630  0.13073  1.0000
  H   H452      1.0  0.24995  0.57238  0.16479  1.0000
  H   H453      1.0  0.22689  0.61863  0.16113  1.0000
  H   H454      1.0  0.20531  0.60253  0.14245  1.0000
  H   H455      1.0  0.24562  0.60121  0.09924  1.0000
  H   H456      1.0  0.28939  0.60066  0.10479  1.0000
  H   H457      1.0  0.31035  0.60340  0.15219  1.0000
  H   H458      1.0  0.28176  0.61453  0.17648  1.0000
  H   H459      1.0  0.30568  0.57780  0.18254  1.0000
  H   H460      1.0  0.27125  0.58549  0.20587  1.0000
  H   H461      1.0  0.28049  0.57244  0.09937  1.0000
  H   H462      1.0  0.30759  0.57462  0.13041  1.0000
  H   H463      1.0  0.28380  0.62974  0.13007  1.0000
  H   H464      1.0  0.24168  0.63033  0.11742  1.0000
  H   H465      1.0  0.20939  0.58440  0.19126  1.0000
  H   H466      1.0  0.22825  0.60249  0.20821  1.0000
  H   H467      1.0  0.15853  0.60134  0.18194  1.0000
  H   H468      1.0  0.16781  0.60077  0.22151  1.0000
  H   H469      1.0  0.17749  0.61935  0.19885  1.0000
  H   H470      1.0  0.30753  0.60807  0.22510  1.0000
  H   H471      1.0  0.32436  0.58742  0.23150  1.0000
  H   H472      1.0  0.34248  0.60045  0.20106  1.0000
  H   H473      1.0  0.03938  0.53625  0.02319  1.0000
  C   C277      1.0  0.24489  0.51870  0.03039  1.0000
  H   H474      1.0  0.05555  0.43806  0.34329  1.0000
  C   C278      1.0  0.25470  0.38691  0.37030  1.0000
  C   C279      1.0  0.23728  0.35653  0.38055  1.0000
  C   C280      1.0  0.06318  0.53851  0.00943  1.0000
  C   C281      1.0  0.04209  0.41576  0.29903  1.0000
  H   H475      1.0  0.24701  0.40018  0.37387  1.0000
  H   H476      1.0  0.26388  0.62573  0.06380  1.0000
  H   H477      1.0  0.10253  0.62087  0.12026  1.0000
  H   H478      1.0  0.01897  0.47958  0.23621  1.0000
  H   H479      1.0  0.05477  0.44851  0.39562  1.0000
  H   H480      1.0  0.01258  0.49824  0.42325  1.0000
  C   C282      1.0  0.06324  0.52201  0.27719  1.0000
  H   H481      1.0  0.25552  0.38446  0.34547  1.0000
  H   H482      1.0  0.08553  0.49903  0.23878  1.0000
  H   H483      1.0  0.26087  0.34073  0.48855  1.0000
  C   C283      1.0  0.08073  0.41673  0.29303  1.0000
  H   H484      1.0  0.02905  0.62516  0.02280  1.0000
  H   H485      1.0  0.25729  0.54587  0.12217  1.0000
  H   H486      1.0  0.11961  0.48233  0.14373  1.0000
  H   H487      1.0  0.26717  0.50191  0.06241  1.0000
  C   C284      1.0  0.19009  0.50638  0.44669  1.0000
  H   H488      1.0  0.08231  0.50198  0.30672  1.0000
  H   H489      1.0  0.11974  0.47082  0.45549  1.0000
  H   H490      1.0  0.02006  0.51805  0.21244  1.0000
  H   H491      1.0  0.09163  0.52195  0.44465  1.0000
  H   H492      1.0  0.20428  0.37862  0.37952  1.0000
  H   H493      1.0  0.01553  0.43459  0.36312  1.0000
  H   H494      1.0  0.10074  0.48116  0.10747  1.0000
  H   H495      1.0  0.11229  0.50128  0.12183  1.0000
  H   H496      1.0  0.08367  0.49267  0.43446  1.0000
  H   H497      1.0  0.15988  0.47249  0.10260  1.0000
  C   C285      1.0  0.05738  0.43485  0.39150  1.0000
  H   H498      1.0  0.28445  0.54775  0.15353  1.0000
  H   H499      1.0  0.08406  0.61307  0.08657  1.0000
  H   H500      1.0  0.15258  0.49149  0.08086  1.0000
  H   H501      1.0  0.06347  0.53886  0.43801  1.0000
  H   H502      1.0  0.01794  0.45880  0.28326  1.0000
  H   H503      1.0  0.11187  0.64804  0.08895  1.0000
  H   H504      1.0  0.19807  0.47143  0.06448  1.0000
  H   H505      1.0  0.24859  0.48394  0.15869  1.0000
  H   H506      1.0  0.00155  0.51929  0.28906  1.0000
  C   C286      1.0  0.19115  0.51601  0.47366  1.0000
  H   H507      1.0  0.29248  0.50537  0.16664  1.0000
  H   H508      1.0  0.06036  0.64315  0.12548  1.0000
  H   H509      1.0  0.02486  0.53572  0.23562  1.0000
  H   H510      1.0  0.03516  0.60285  0.01970  1.0000
  H   H511      1.0  0.07948  0.42306  0.24468  1.0000
  C   C287      1.0  0.08622  0.64767  0.08030  1.0000
  H   H512      1.0  0.04499  0.53356  0.16657  1.0000
  C   C288      1.0  0.22946  0.37525  0.38730  1.0000
  C   C289      1.0  0.27976  0.63078  0.08155  1.0000
  C   C290      1.0  0.09300  0.47183  0.46372  1.0000
  H   H513      1.0  0.02212  0.65782  0.07043  1.0000
  C   C291      1.0  0.03787  0.35673  0.33758  1.0000
  H   H514      1.0  0.26793  0.50079  0.20143  1.0000
  H   H515      1.0  0.08903  0.51925  0.35196  1.0000
  H   H516      1.0  0.25937  0.52285  0.07583  1.0000
  C   C292      1.0  0.07500  0.53132  0.45605  1.0000
  N   N18       1.0  0.21935  0.34375  0.40136  1.0000
  H   H517      1.0  0.08814  0.53488  0.22224  1.0000
  C   C293      1.0  0.25068  0.50522  0.44350  1.0000
  C   C294      1.0  0.02375  0.51003  0.43158  1.0000
  C   C295      1.0  0.23078  0.34575  0.43336  1.0000
  H   H518      1.0  0.09155  0.40416  0.28819  1.0000
  H   H519      1.0  0.08920  0.52363  0.26700  1.0000
  H   H520      1.0  0.04312  0.51075  0.32105  1.0000
  H   H521      1.0  0.26047  0.51991  0.18064  1.0000
  H   H522      1.0  0.04432  0.42797  0.41080  1.0000
  H   H523      1.0  0.11615  0.54911  0.45746  1.0000
  H   H524      1.0  0.20306  0.66665  0.05710  1.0000
  C   C296      1.0  0.07883  0.61970  0.10839  1.0000
  H   H525      1.0  0.25685  0.35079  0.43291  1.0000
  H   H526      1.0  0.21520  0.35541  0.44556  1.0000
  C   C297      1.0  0.06961  0.52826  0.20885  1.0000
  C   C298      1.0  0.08649  0.52539  0.32937  1.0000
  N   N19       1.0  0.04161  0.51260  0.25593  1.0000
  C   C299      1.0  0.06484  0.47047  0.21526  1.0000
  C   C300      1.0  0.08096  0.48985  0.45916  1.0000
  C   C301      1.0  0.02221  0.61280  0.03332  1.0000
  C   C302      1.0  0.01204  0.56840  0.04250  1.0000
  H   H527      1.0  0.17583  0.35995  0.40740  1.0000
  H   H528      1.0  0.06254  0.55116  0.99859  1.0000
  H   H529      1.0  0.23147  0.35436  0.35642  1.0000
  H   H530      1.0  0.03110  0.61205  0.05676  1.0000
  C   C303      1.0  0.15853  0.33556  0.42034  1.0000
  H   H531      1.0  0.03209  0.41058  0.27800  1.0000
  H   H532      1.0  0.23934  0.47757  0.05125  1.0000
  N   N20       1.0  0.21625  0.49624  0.10691  1.0000
  C   C304      1.0  0.21457  0.50684  0.07834  1.0000
  C   C305      1.0  0.18141  0.49495  0.12198  1.0000
  C   C306      1.0  0.23771  0.50550  0.12850  1.0000
  C   C307      1.0  0.23115  0.47906  0.10107  1.0000
  C   C308      1.0  0.22475  0.47094  0.06997  1.0000
  C   C309      1.0  0.24880  0.51236  0.06296  1.0000
  C   C310      1.0  0.24101  0.49730  0.16045  1.0000
  C   C311      1.0  0.15434  0.48612  0.10406  1.0000
  C   C312      1.0  0.11969  0.48785  0.12039  1.0000
  C   C313      1.0  0.23570  0.45256  0.06950  1.0000
  H   H533      1.0  0.00669  0.53645  0.43268  1.0000
  C   C314      1.0  0.26716  0.50644  0.17825  1.0000
  H   H534      1.0  0.20005  0.51853  0.08328  1.0000
  H   H535      1.0  0.20032  0.50040  0.06102  1.0000
  H   H536      1.0  0.18170  0.48792  0.14393  1.0000
  H   H537      1.0  0.17203  0.50777  0.12746  1.0000
  H   H538      1.0  0.22795  0.51849  0.13205  1.0000
  H   H539      1.0  0.26379  0.50689  0.11854  1.0000
  H   H540      1.0  0.25897  0.47941  0.10234  1.0000
  H   H541      1.0  0.22223  0.47013  0.11950  1.0000
  C   C315      1.0  0.06357  0.63703  0.10302  1.0000
  H   H542      1.0  0.22069  0.44512  0.08692  1.0000
  C   C316      1.0  0.01107  0.46307  0.30599  1.0000
  C   C317      1.0  0.03491  0.47089  0.32305  1.0000
  C   C318      1.0  0.03488  0.57101  0.06503  1.0000
  C   C319      1.0  0.02655  0.47612  0.35262  1.0000
  H   H543      1.0  0.11772  0.65458  0.02297  1.0000
  H   H544      1.0  0.03337  0.38330  0.29837  1.0000
  H   H545      1.0  0.04838  0.51108  0.41881  1.0000
  H   H546      1.0  0.26494  0.35502  0.38121  1.0000
  C   C320      1.0  0.02628  0.56658  0.09531  1.0000
  C   C321      1.0  0.04002  0.38744  0.32135  1.0000
  H   H547      1.0  0.07268  0.53738  0.33285  1.0000
  H   H548      1.0  0.17465  0.34596  0.37626  1.0000
  C   C322      1.0  0.06755  0.51374  0.30897  1.0000
  H   H549      1.0  0.08743  0.47510  0.20189  1.0000
  C   C323      1.0  0.08996  0.42807  0.26560  1.0000
  H   H550      1.0  0.01844  0.57214  0.01919  1.0000
  H   H551      1.0  0.11204  0.52807  0.31915  1.0000
  H   H552      1.0  0.08139  0.51679  0.19910  1.0000
  H   H553      1.0  0.14261  0.49217  0.99833  1.0000
  H   H554      1.0  0.11771  0.42880  0.26208  1.0000
  C   C324      1.0  0.06179  0.53985  0.18222  1.0000
  H   H555      1.0  0.26277  0.45144  0.07392  1.0000
  H   H556      1.0  0.23168  0.44722  0.04678  1.0000
  C   C325      1.0  0.04440  0.49213  0.47224  1.0000
  H   H557      1.0  0.08451  0.43168  0.39066  1.0000
  H   H558      1.0  0.04669  0.65543  0.03619  1.0000
  C   C326      1.0  0.16089  0.51763  0.99662  1.0000
  H   H559      1.0  0.06245  0.48857  0.26822  1.0000
  H   H560      1.0  0.11549  0.33871  0.39211  1.0000
  H   H561      1.0  0.06113  0.61189  0.12293  1.0000
  H   H562      1.0  0.03197  0.53165  0.38035  1.0000
  H   H563      1.0  0.27871  0.64471  0.08032  1.0000
  H   H564      1.0  0.06782  0.38619  0.32129  1.0000
  H   H565      1.0  0.03383  0.37738  0.36826  1.0000
  H   H566      1.0  0.11657  0.35316  0.42333  1.0000
  C   C327      1.0  0.04213  0.43053  0.36146  1.0000
  C   C328      1.0  0.04734  0.52313  0.47770  1.0000
  H   H567      1.0  0.26960  0.52284  0.02012  1.0000
  H   H568      1.0  0.03200  0.42877  0.30046  1.0000
  H   H569      1.0  0.08909  0.64029  0.05903  1.0000
  H   H570      1.0  0.30614  0.62675  0.07674  1.0000
  H   H571      1.0  0.08546  0.54327  0.16917  1.0000
  H   H572      1.0  0.09096  0.46817  0.48820  1.0000
  H   H573      1.0  0.03572  0.49203  0.20411  1.0000
  H   H574      1.0  0.08414  0.53822  0.02504  1.0000
  C   C329      1.0  0.12177  0.34004  0.41623  1.0000
  H   H575      1.0  0.02726  0.34764  0.35487  1.0000
  H   H576      1.0  0.07022  0.51287  0.99769  1.0000
  C   C330      1.0  0.00797  0.50913  0.27255  1.0000
  H   H577      1.0  0.00928  0.49745  0.28660  1.0000
  C   C331      1.0  0.02562  0.37446  0.34523  1.0000
  C   C332      1.0  0.00588  0.52753  0.38657  1.0000
  H   H578      1.0  0.11059  0.53585  0.49081  1.0000
  C   C333      1.0  0.22221  0.52019  0.48539  1.0000
  C   C334      1.0  0.04256  0.66386  0.05600  1.0000
  H   H579      1.0  0.03031  0.53358  0.48509  1.0000
  N   N21       1.0  0.07398  0.66518  0.07340  1.0000
  H   H580      1.0  0.10382  0.66350  0.13109  1.0000
  H   H581      1.0  0.16814  0.52017  0.48530  1.0000
  H   H582      1.0  0.08181  0.55299  0.48494  1.0000
  C   C335      1.0  0.00125  0.52460  0.42095  1.0000
  H   H583      1.0  0.00062  0.51581  0.37424  1.0000
  H   H584      1.0  0.99780  0.37426  0.34606  1.0000
  H   H585      1.0  0.05696  0.47047  0.99233  1.0000
  Fe  Fe33      1.0  0.15589  0.57884  0.56918  1.0000
  S   S65       1.0  0.11999  0.56602  0.60327  1.0000
  S   S66       1.0  0.15054  0.60649  0.55422  1.0000
  Fe  Fe34      1.0  0.18700  0.54462  0.54971  1.0000
  S   S67       1.0  0.15420  0.52966  0.58323  1.0000
  H   H586      1.0  0.03040  0.34956  0.85272  1.0000
  Fe  Fe35      1.0  0.11379  0.54669  0.56766  1.0000
  S   S68       1.0  0.06505  0.53639  0.55351  1.0000
  Fe  Fe36      1.0  0.16362  0.55009  0.61635  1.0000
  S   S69       1.0  0.17222  0.54688  0.66701  1.0000
  S   S70       1.0  0.14586  0.56040  0.53225  1.0000
  S   S71       1.0  0.20042  0.56405  0.58416  1.0000
  Fe  Fe37      1.0  0.16666  0.48719  0.86728  1.0000
  S   S72       1.0  0.19425  0.47052  0.83295  1.0000
  S   S73       1.0  0.18981  0.50743  0.89565  1.0000
  Fe  Fe38      1.0  0.09939  0.47374  0.85198  1.0000
  S   S74       1.0  0.12032  0.45607  0.81655  1.0000
  S   S75       1.0  0.04570  0.47605  0.86903  1.0000
  Fe  Fe39      1.0  0.15877  0.44990  0.84998  1.0000
  S   S76       1.0  0.17311  0.42306  0.86308  1.0000
  Fe  Fe40      1.0  0.15382  0.47779  0.80131  1.0000
  S   S77       1.0  0.16266  0.48050  0.74969  1.0000
  S   S78       1.0  0.13516  0.46606  0.88693  1.0000
  S   S79       1.0  0.12903  0.49591  0.83413  1.0000
  S   S80       1.0  0.14137  0.35239  0.80352  1.0000
  C   C336      1.0  0.03913  0.42324  0.86235  1.0000
  H   H587      1.0  0.05647  0.46853  0.80504  1.0000
  C   C337      1.0  0.06360  0.58607  0.52403  1.0000
  C   C338      1.0  0.16269  0.40352  0.84684  1.0000
  C   C339      1.0  0.14532  0.40254  0.82017  1.0000
  C   C340      1.0  0.13840  0.38678  0.80766  1.0000
  C   C341      1.0  0.14875  0.37179  0.82161  1.0000
  C   C342      1.0  0.16549  0.37274  0.84865  1.0000
  C   C343      1.0  0.17248  0.38852  0.86110  1.0000
  H   H588      1.0  0.13737  0.41391  0.80913  1.0000
  H   H589      1.0  0.12513  0.38616  0.78692  1.0000
  H   H590      1.0  0.17367  0.36134  0.85964  1.0000
  H   H591      1.0  0.18594  0.38909  0.88176  1.0000
  H   H592      1.0  0.05361  0.63058  0.57153  1.0000
  H   H593      1.0  0.05611  0.54997  0.61416  1.0000
  C   C344      1.0  0.09343  0.42033  0.93367  1.0000
  H   H594      1.0  0.03166  0.40331  0.93252  1.0000
  N   N22       1.0  0.04590  0.42053  0.89558  1.0000
  C   C345      1.0  0.16225  0.49876  0.95306  1.0000
  C   C346      1.0  0.17792  0.51114  0.93447  1.0000
  C   C347      1.0  0.18512  0.52676  0.94720  1.0000
  C   C348      1.0  0.11391  0.53676  0.88889  1.0000
  C   C349      1.0  0.08302  0.42214  0.90029  1.0000
  H   H595      1.0  0.15702  0.48662  0.94371  1.0000
  H   H596      1.0  0.19740  0.53639  0.93304  1.0000
  C   C350      1.0  0.09625  0.60467  0.63798  1.0000
  C   C351      1.0  0.16558  0.52850  0.68992  1.0000
  C   C352      1.0  0.16873  0.52953  0.72154  1.0000
  C   C353      1.0  0.16640  0.51506  0.74038  1.0000
  C   C354      1.0  0.16168  0.49932  0.72764  1.0000
  C   C355      1.0  0.15814  0.49829  0.69606  1.0000
  C   C356      1.0  0.15962  0.51281  0.67734  1.0000
  H   H597      1.0  0.17339  0.54159  0.73152  1.0000
  H   H598      1.0  0.16931  0.51605  0.76460  1.0000
  H   H599      1.0  0.15432  0.48618  0.68599  1.0000
  H   H600      1.0  0.15677  0.51182  0.65312  1.0000
  C   C357      1.0  0.15930  0.62631  0.57046  1.0000
  C   C358      1.0  0.17229  0.62780  0.59920  1.0000
  C   C359      1.0  0.17866  0.64383  0.61097  1.0000
  C   C360      1.0  0.17204  0.65860  0.59433  1.0000
  C   C361      1.0  0.15860  0.65710  0.56576  1.0000
  C   C362      1.0  0.15228  0.64107  0.55397  1.0000
  H   H601      1.0  0.17772  0.61661  0.61224  1.0000
  H   H602      1.0  0.18898  0.64482  0.63311  1.0000
  C   C363      1.0  0.02305  0.34114  0.83433  1.0000
  H   H603      1.0  0.14215  0.64009  0.53176  1.0000
  H   H604      1.0  0.00880  0.37078  0.91065  1.0000
  H   H605      1.0  0.07639  0.50733  0.89845  1.0000
  H   H606      1.0  0.07160  0.66542  0.62623  1.0000
  H   H607      1.0  0.00676  0.56343  0.64074  1.0000
  H   H608      1.0  0.07523  0.54394  0.92166  1.0000
  H   H609      1.0  0.05551  0.58842  0.50060  1.0000
  H   H610      1.0  0.06063  0.53644  0.88614  1.0000
  C   C364      1.0  0.07481  0.48598  0.95363  1.0000
  H   H611      1.0  0.10449  0.65010  0.62117  1.0000
  H   H612      1.0  0.09371  0.46256  0.97152  1.0000
  H   H613      1.0  0.05937  0.51902  0.49878  1.0000
  C   C365      1.0  0.03015  0.46719  0.81148  1.0000
  H   H614      1.0  0.09147  0.58598  0.52325  1.0000
  H   H615      1.0  0.00177  0.61774  0.58225  1.0000
  H   H616      1.0  0.13285  0.59680  0.66998  1.0000
  H   H617      1.0  0.19564  0.49793  0.59030  1.0000
  H   H618      1.0  0.05397  0.63596  0.64051  1.0000
  H   H619      1.0  0.08814  0.42461  0.83788  1.0000
  C   C366      1.0  0.03175  0.40394  0.90723  1.0000
  C   C367      1.0  0.06029  0.59664  0.57829  1.0000
  C   C368      1.0  0.04890  0.38787  0.89445  1.0000
  H   H620      1.0  0.09001  0.62490  0.58990  1.0000
  C   C369      1.0  0.04112  0.49486  0.94786  1.0000
  N   N23       1.0  0.04733  0.60902  0.60192  1.0000
  H   H621      1.0  0.03001  0.40825  0.80577  1.0000
  H   H622      1.0  0.08347  0.43089  0.94763  1.0000
  C   C370      1.0  0.13155  0.42055  0.93541  1.0000
  C   C371      1.0  0.00516  0.55902  0.61772  1.0000
  H   H623      1.0  0.06036  0.61190  0.53600  1.0000
  H   H624      1.0  0.11578  0.54939  0.87796  1.0000
  C   C372      1.0  0.05417  0.64026  0.61649  1.0000
  N   N24       1.0  0.17891  0.42748  0.72818  1.0000
  C   C373      1.0  0.20376  0.43139  0.70187  1.0000
  C   C374      1.0  0.17169  0.40884  0.73025  1.0000
  C   C375      1.0  0.14656  0.43644  0.72171  1.0000
  C   C376      1.0  0.19079  0.43389  0.75791  1.0000
  C   C377      1.0  0.22426  0.42661  0.76840  1.0000
  C   C378      1.0  0.21275  0.45023  0.69664  1.0000
  C   C379      1.0  0.11499  0.43148  0.74209  1.0000
  C   C380      1.0  0.20111  0.39663  0.72218  1.0000
  C   C381      1.0  0.19221  0.37864  0.73219  1.0000
  C   C382      1.0  0.23697  0.43639  0.79505  1.0000
  C   C383      1.0  0.23816  0.45260  0.66966  1.0000
  C   C384      1.0  0.08577  0.44333  0.73635  1.0000
  H   H625      1.0  0.19396  0.42660  0.68036  1.0000
  H   H626      1.0  0.22782  0.42470  0.70428  1.0000
  H   H627      1.0  0.16094  0.40550  0.75342  1.0000
  H   H628      1.0  0.15209  0.40541  0.71431  1.0000
  H   H629      1.0  0.14008  0.43444  0.69769  1.0000
  H   H630      1.0  0.14956  0.45019  0.72394  1.0000
  H   H631      1.0  0.19257  0.44781  0.75738  1.0000
  H   H632      1.0  0.17202  0.43121  0.77686  1.0000
  H   H633      1.0  0.24436  0.42706  0.75005  1.0000
  H   H634      1.0  0.22032  0.41345  0.77645  1.0000
  H   H635      1.0  0.19030  0.45776  0.69156  1.0000
  H   H636      1.0  0.22406  0.45554  0.71691  1.0000
  H   H637      1.0  0.11974  0.43200  0.76656  1.0000
  H   H638      1.0  0.10672  0.41855  0.73711  1.0000
  H   H639      1.0  0.20646  0.39668  0.69710  1.0000
  H   H640      1.0  0.22455  0.40004  0.73281  1.0000
  H   H641      1.0  0.21288  0.37002  0.72481  1.0000
  H   H642      1.0  0.18869  0.37773  0.75740  1.0000
  H   H643      1.0  0.16884  0.37444  0.72195  1.0000
  H   H644      1.0  0.21821  0.43599  0.81459  1.0000
  H   H645      1.0  0.26057  0.43066  0.80254  1.0000
  H   H646      1.0  0.24210  0.44967  0.78829  1.0000
  H   H647      1.0  0.22777  0.44789  0.64845  1.0000
  H   H648      1.0  0.24389  0.46618  0.66642  1.0000
  H   H649      1.0  0.26188  0.44587  0.67387  1.0000
  H   H650      1.0  0.06290  0.43904  0.74968  1.0000
  H   H651      1.0  0.09176  0.45627  0.74350  1.0000
  H   H652      1.0  0.08026  0.44355  0.71187  1.0000
  H   H653      1.0  0.04253  0.38614  0.87047  1.0000
  C   C385      1.0  0.01808  0.47093  0.84107  1.0000
  H   H654      1.0  0.09229  0.43455  0.89135  1.0000
  H   H655      1.0  0.08801  0.59616  0.57716  1.0000
  H   H656      1.0  0.22087  0.49875  0.55508  1.0000
  H   H657      1.0  0.03757  0.43694  0.85695  1.0000
  H   H658      1.0  0.04515  0.60909  0.65168  1.0000
  H   H659      1.0  0.09726  0.51376  0.93066  1.0000
  H   H660      1.0  0.14221  0.43242  0.92552  1.0000
  H   H661      1.0  0.05121  0.58916  0.63562  1.0000
  H   H662      1.0  0.04895  0.36094  0.90250  1.0000
  H   H663      1.0  0.99884  0.54276  0.53554  1.0000
  H   H664      1.0  0.11931  0.52720  0.87117  1.0000
  H   H665      1.0  0.08427  0.40833  0.94411  1.0000
  H   H666      1.0  0.05406  0.57356  0.53188  1.0000
  C   C386      1.0  0.05204  0.41671  0.80664  1.0000
  C   C387      1.0  0.03073  0.54561  0.57302  1.0000
  H   H667      1.0  0.11266  0.60013  0.61880  1.0000
  C   C388      1.0  0.04997  0.59984  0.54516  1.0000
  S   S81       1.0  0.22681  0.53205  0.51899  1.0000
  H   H668      1.0  0.00995  0.52117  0.63728  1.0000
  H   H669      1.0  0.05317  0.46088  0.95558  1.0000
  C   C389      1.0  0.03309  0.55153  0.60264  1.0000
  N   N25       1.0  0.04274  0.51302  0.93712  1.0000
  H   H670      1.0  0.09132  0.60022  0.68708  1.0000
  C   C390      1.0  0.10560  0.59523  0.66679  1.0000
  H   H671      1.0  0.07372  0.40355  0.84350  1.0000
  H   H672      1.0  0.23388  0.48572  0.58609  1.0000
  N   N26       1.0  0.26665  0.52384  0.64094  1.0000
  C   C391      1.0  0.25913  0.52373  0.67498  1.0000
  C   C392      1.0  0.26164  0.54141  0.62866  1.0000
  C   C393      1.0  0.24103  0.51272  0.62705  1.0000
  C   C394      1.0  0.30139  0.51741  0.63188  1.0000
  C   C395      1.0  0.32945  0.52060  0.65425  1.0000
  C   C396      1.0  0.25581  0.50611  0.69035  1.0000
  C   C397      1.0  0.24178  0.51258  0.59175  1.0000
  C   C398      1.0  0.28421  0.55535  0.64068  1.0000
  C   C399      1.0  0.27316  0.57267  0.62966  1.0000
  C   C400      1.0  0.36398  0.51616  0.63984  1.0000
  C   C401      1.0  0.25766  0.50708  0.72488  1.0000
  C   C402      1.0  0.22178  0.49781  0.58026  1.0000
  H   H673      1.0  0.23519  0.53047  0.68056  1.0000
  H   H674      1.0  0.27809  0.53093  0.68687  1.0000
  H   H675      1.0  0.26607  0.54187  0.60346  1.0000
  H   H676      1.0  0.23502  0.54526  0.63322  1.0000
  H   H677      1.0  0.21518  0.51648  0.63511  1.0000
  H   H678      1.0  0.24410  0.49946  0.63462  1.0000
  H   H679      1.0  0.30099  0.50356  0.62860  1.0000
  H   H680      1.0  0.30996  0.52274  0.60921  1.0000
  H   H681      1.0  0.32534  0.51268  0.67507  1.0000
  H   H682      1.0  0.33027  0.53382  0.66150  1.0000
  H   H683      1.0  0.23108  0.50055  0.68578  1.0000
  H   H684      1.0  0.27569  0.49746  0.68142  1.0000
  H   H685      1.0  0.26773  0.51174  0.58150  1.0000
  H   H686      1.0  0.23019  0.52427  0.58327  1.0000
  H   H687      1.0  0.28320  0.55562  0.66588  1.0000
  H   H688      1.0  0.31051  0.55354  0.63182  1.0000
  H   H689      1.0  0.27434  0.57337  0.60438  1.0000
  H   H690      1.0  0.24709  0.57539  0.63844  1.0000
  H   H691      1.0  0.28999  0.58246  0.63812  1.0000
  H   H692      1.0  0.36473  0.50279  0.63295  1.0000
  H   H693      1.0  0.37005  0.52428  0.61954  1.0000
  H   H694      1.0  0.38344  0.51815  0.65654  1.0000
  H   H695      1.0  0.28301  0.51119  0.73092  1.0000
  H   H696      1.0  0.23867  0.51603  0.73447  1.0000
  H   H697      1.0  0.25237  0.49453  0.73536  1.0000
  H   H698      1.0  0.02909  0.64559  0.61222  1.0000
  H   H699      1.0  0.10036  0.58160  0.66495  1.0000
  H   H700      1.0  0.10254  0.61810  0.64099  1.0000
  H   H701      1.0  0.99974  0.59660  0.59550  1.0000
  C   C403      1.0  0.07463  0.51628  0.91777  1.0000
  H   H702      1.0  0.07181  0.41232  0.78988  1.0000
  H   H703      1.0  0.04237  0.37306  0.93647  1.0000
  C   C404      1.0  0.17630  0.53008  0.97804  1.0000
  H   H704      1.0  0.07654  0.38822  0.89578  1.0000
  C   C405      1.0  0.05830  0.60264  0.63238  1.0000
  H   H705      1.0  0.05193  0.58370  0.58487  1.0000
  C   C406      1.0  0.01357  0.51607  0.91720  1.0000
  C   C407      1.0  0.06225  0.62598  0.59371  1.0000
  H   H706      1.0  0.09800  0.41284  0.88682  1.0000
  H   H707      1.0  0.14304  0.40976  0.92296  1.0000
  H   H708      1.0  0.02448  0.49357  0.96893  1.0000
  H   H709      1.0  0.13824  0.41959  0.95954  1.0000
  H   H710      1.0  0.18174  0.54219  0.98744  1.0000
  C   C408      1.0  0.00059  0.54709  0.55856  1.0000
  H   H711      1.0  0.01251  0.52947  0.90992  1.0000
  H   H712      1.0  0.99888  0.62557  0.64102  1.0000
  C   C409      1.0  0.02823  0.43433  0.91347  1.0000
  H   H713      1.0  0.01719  0.45913  0.76700  1.0000
  H   H714      1.0  0.09287  0.52777  0.97283  1.0000
  C   C410      1.0  0.06555  0.41647  0.83844  1.0000
  H   H715      1.0  0.21585  0.34182  0.49652  1.0000
  C   C411      1.0  0.06916  0.46890  0.96924  1.0000
  H   H716      1.0  0.01707  0.50868  0.89586  1.0000
  C   C412      1.0  0.03634  0.37226  0.91217  1.0000
  C   C413      1.0  0.07883  0.53423  0.90397  1.0000
  H   H717      1.0  0.04450  0.42965  0.80026  1.0000
  H   H718      1.0  0.00369  0.50039  0.78997  1.0000
  H   H719      1.0  0.08904  0.48387  0.93160  1.0000
  H   H720      1.0  0.03018  0.34703  0.81187  1.0000
  H   H721      1.0  0.08423  0.65828  0.58853  1.0000
  H   H722      1.0  0.03438  0.53779  0.95597  1.0000
  H   H723      1.0  0.13319  0.53585  0.90609  1.0000
  H   H724      1.0  0.00998  0.51234  0.52742  1.0000
  H   H725      1.0  0.00490  0.40284  0.90201  1.0000
  H   H726      1.0  0.02943  0.48690  0.93069  1.0000
  C   C414      1.0  0.03910  0.52471  0.96384  1.0000
  C   C415      1.0  0.08012  0.65437  0.61276  1.0000
  C   C416      1.0  0.06858  0.52502  0.98532  1.0000
  H   H727      1.0  0.01640  0.52141  0.97852  1.0000
  H   H728      1.0  0.03013  0.43220  0.93834  1.0000
  H   H729      1.0  0.04590  0.49017  0.49719  1.0000
  H   H730      1.0  0.04075  0.44660  0.90801  1.0000
  H   H731      1.0  0.01415  0.41800  0.85740  1.0000
  H   H732      1.0  0.02228  0.60000  0.54386  1.0000
  H   H733      1.0  0.09061  0.49350  0.96804  1.0000
  C   C417      1.0  0.00943  0.60930  0.60103  1.0000
  C   C418      1.0  0.00793  0.46193  0.78992  1.0000
  C   C419      1.0  0.15420  0.50194  0.98403  1.0000
  H   H734      1.0  0.99758  0.52136  0.77558  1.0000
  H   H735      1.0  0.99585  0.50030  0.62825  1.0000
  Fe  Fe41      1.0  0.37814  0.97110  0.29194  1.0000
  S   S82       1.0  0.35546  0.96544  0.33882  1.0000
  S   S83       1.0  0.43255  0.97396  0.27788  1.0000
  Fe  Fe42      1.0  0.31175  0.97814  0.26452  1.0000
  S   S84       1.0  0.28294  0.97299  0.30924  1.0000
  S   S85       1.0  0.28896  0.98498  0.21973  1.0000
  Fe  Fe43      1.0  0.32312  0.98795  0.33100  1.0000
  H   H736      1.0  0.42179  0.97185  0.40640  1.0000
  Fe  Fe44      1.0  0.31770  0.95058  0.31364  1.0000
  S   S86       1.0  0.29684  0.92501  0.33029  1.0000
  C   C420      1.0  0.20133  0.99576  0.34785  1.0000
  S   S87       1.0  0.34319  0.95480  0.26735  1.0000
  Fe  Fe45      1.0  0.18177  0.70353  0.09897  1.0000
  S   S88       1.0  0.14014  0.71876  0.12177  1.0000
  C   C421      1.0  0.02780  0.68073  0.04475  1.0000
  Fe  Fe46      1.0  0.20431  0.73310  0.05609  1.0000
  S   S89       1.0  0.16321  0.74959  0.07591  1.0000
  S   S90       1.0  0.24714  0.74381  0.02419  1.0000
  Fe  Fe47      1.0  0.17787  0.73993  0.12194  1.0000
  S   S91       1.0  0.18199  0.75904  0.16055  1.0000
  Fe  Fe48      1.0  0.12935  0.72693  0.07430  1.0000
  S   S92       1.0  0.07847  0.72694  0.05232  1.0000
  S   S93       1.0  0.22008  0.72420  0.10241  1.0000
  S   S94       1.0  0.16970  0.71090  0.05130  1.0000
  Fe  Fe49      1.0  0.33303  0.82333  0.31661  1.0000
  S   S95       1.0  0.34716  0.81257  0.36168  1.0000
  S   S96       1.0  0.35028  0.85041  0.30449  1.0000
  Fe  Fe50      1.0  0.31325  0.78816  0.29376  1.0000
  S   S97       1.0  0.32752  0.77538  0.33774  1.0000
  S   S98       1.0  0.29864  0.77133  0.25382  1.0000
  Fe  Fe51      1.0  0.30055  0.79666  0.36164  1.0000
  S   S99       1.0  0.26488  0.79546  0.40496  1.0000
  Fe  Fe52      1.0  0.37347  0.79213  0.33500  1.0000
  S   S100      1.0  0.42460  0.78568  0.35368  1.0000
  S   S101      1.0  0.28396  0.80889  0.31782  1.0000
  S   S102      1.0  0.36143  0.80336  0.28980  1.0000
  C   C422      1.0  0.46552  0.78410  0.33565  1.0000
  C   C423      1.0  0.08239  0.68495  0.15364  1.0000
  C   C424      1.0  0.30883  0.87397  0.42968  1.0000
  C   C425      1.0  0.47181  0.78671  0.30433  1.0000
  H   H737      1.0  0.17954  0.72352  0.48177  1.0000
  H   H738      1.0  0.45117  0.78955  0.29016  1.0000
  C   C426      1.0  0.03655  0.72416  0.06758  1.0000
  H   H739      1.0  0.31433  0.71750  0.08405  1.0000
  N   N27       1.0  0.30749  0.85839  0.41063  1.0000
  H   H740      1.0  0.04919  0.71991  0.11390  1.0000
  C   C427      1.0  0.38188  0.98211  0.19109  1.0000
  H   H741      1.0  0.32546  0.78616  0.00895  1.0000
  C   C428      1.0  0.23440  0.78341  0.45896  1.0000
  C   C429      1.0  0.25909  0.78043  0.43546  1.0000
  C   C430      1.0  0.27807  0.76570  0.43694  1.0000
  C   C431      1.0  0.27220  0.75412  0.46132  1.0000
  H   H742      1.0  0.44911  0.91157  0.37912  1.0000
  H   H743      1.0  0.21956  0.79476  0.45820  1.0000
  H   H744      1.0  0.29719  0.76316  0.41919  1.0000
  H   H745      1.0  0.28695  0.74274  0.46194  1.0000
  C   C432      1.0  0.21423  0.76197  0.18691  1.0000
  C   C433      1.0  0.21277  0.77601  0.20613  1.0000
  C   C434      1.0  0.23794  0.77901  0.22694  1.0000
  C   C435      1.0  0.26519  0.76801  0.22882  1.0000
  C   C436      1.0  0.26664  0.75399  0.20954  1.0000
  C   C437      1.0  0.24132  0.75091  0.18895  1.0000
  H   H746      1.0  0.19201  0.78468  0.20494  1.0000
  H   H747      1.0  0.23634  0.78987  0.24141  1.0000
  H   H748      1.0  0.28745  0.74534  0.21072  1.0000
  H   H749      1.0  0.24275  0.73994  0.17473  1.0000
  C   C438      1.0  0.45796  0.96691  0.30646  1.0000
  H   H750      1.0  0.06189  0.67776  0.16592  1.0000
  C   C439      1.0  0.46579  0.95031  0.35209  1.0000
  C   C440      1.0  0.44477  0.95673  0.33033  1.0000
  C   C441      1.0  0.31147  0.89094  0.41177  1.0000
  H   H751      1.0  0.41877  0.95314  0.33130  1.0000
  C   C442      1.0  0.30537  0.78042  0.05474  1.0000
  H   H752      1.0  0.30080  0.76721  0.04886  1.0000
  H   H753      1.0  0.34661  0.79911  0.48602  1.0000
  H   H754      1.0  0.48808  0.77794  0.37780  1.0000
  H   H755      1.0  0.11847  0.71662  0.39615  1.0000
  H   H756      1.0  0.15059  0.74323  0.39546  1.0000
  C   C443      1.0  0.31148  0.90456  0.32012  1.0000
  C   C444      1.0  0.34475  0.90152  0.30989  1.0000
  C   C445      1.0  0.35584  0.88492  0.30447  1.0000
  C   C446      1.0  0.33389  0.87115  0.30892  1.0000
  C   C447      1.0  0.30037  0.87427  0.31808  1.0000
  C   C448      1.0  0.28942  0.89081  0.32412  1.0000
  H   H757      1.0  0.36206  0.91192  0.30674  1.0000
  H   H758      1.0  0.38171  0.88270  0.29711  1.0000
  H   H759      1.0  0.28293  0.86393  0.32064  1.0000
  H   H760      1.0  0.26357  0.89301  0.33174  1.0000
  H   H761      1.0  0.12695  0.71648  0.46547  1.0000
  H   H762      1.0  0.05906  0.68798  0.09646  1.0000
  H   H763      1.0  0.37550  0.87102  0.41081  1.0000
  H   H764      1.0  0.11341  0.74277  0.18201  1.0000
  N   N28       1.0  0.29185  0.77390  0.11265  1.0000
  C   C449      1.0  0.25573  0.77302  0.10414  1.0000
  C   C450      1.0  0.30406  0.75636  0.11937  1.0000
  C   C451      1.0  0.29257  0.78375  0.14180  1.0000
  C   C452      1.0  0.31451  0.78246  0.08845  1.0000
  C   C453      1.0  0.23740  0.79020  0.10263  1.0000
  C   C454      1.0  0.32630  0.78380  0.15778  1.0000
  C   C455      1.0  0.30544  0.74391  0.09267  1.0000
  C   C456      1.0  0.31378  0.72618  0.10363  1.0000
  H   H765      1.0  0.38876  0.95870  0.16642  1.0000
  C   C457      1.0  0.32666  0.79736  0.18203  1.0000
  H   H766      1.0  0.24091  0.76501  0.12089  1.0000
  H   H767      1.0  0.25332  0.76664  0.08212  1.0000
  H   H768      1.0  0.33009  0.75660  0.12712  1.0000
  H   H769      1.0  0.28827  0.75070  0.13851  1.0000
  H   H770      1.0  0.27304  0.77900  0.15884  1.0000
  H   H771      1.0  0.28603  0.79713  0.13756  1.0000
  H   H772      1.0  0.31535  0.79625  0.09217  1.0000
  H   H773      1.0  0.34089  0.77816  0.09038  1.0000
  H   H774      1.0  0.23112  0.79473  0.12605  1.0000
  H   H775      1.0  0.34783  0.78604  0.14119  1.0000
  H   H776      1.0  0.32990  0.77155  0.16958  1.0000
  H   H777      1.0  0.28125  0.74324  0.08167  1.0000
  H   H778      1.0  0.32552  0.74766  0.07548  1.0000
  H   H779      1.0  0.33873  0.72592  0.11365  1.0000
  C   C458      1.0  0.24710  0.75695  0.48448  1.0000
  C   C459      1.0  0.20446  0.78889  0.08675  1.0000
  H   H780      1.0  0.29442  0.72163  0.12091  1.0000
  H   H781      1.0  0.35001  0.79631  0.19456  1.0000
  H   H782      1.0  0.32570  0.81006  0.17141  1.0000
  H   H783      1.0  0.30494  0.79581  0.19874  1.0000
  N   N29       1.0  0.04831  0.77350  0.11234  1.0000
  C   C460      1.0  0.07688  0.77127  0.08877  1.0000
  C   C461      1.0  0.12399  0.71008  0.41780  1.0000
  H   H784      1.0  0.44824  0.85520  0.25509  1.0000
  H   H785      1.0  0.48193  0.98623  0.21772  1.0000
  C   C462      1.0  0.07713  0.79824  0.13873  1.0000
  C   C463      1.0  0.07559  0.78215  0.05936  1.0000
  H   H786      1.0  0.09571  0.82159  0.15628  1.0000
  C   C464      1.0  0.08791  0.75674  0.14749  1.0000
  C   C465      1.0  0.08730  0.74610  0.17667  1.0000
  C   C466      1.0  0.07348  0.81703  0.14466  1.0000
  C   C467      1.0  0.10635  0.77897  0.03794  1.0000
  H   H787      1.0  0.36987  0.98814  0.17162  1.0000
  H   H788      1.0  0.07803  0.75792  0.08173  1.0000
  H   H789      1.0  0.10153  0.77373  0.09829  1.0000
  C   C468      1.0  0.20117  0.70857  0.44598  1.0000
  H   H790      1.0  0.20874  0.78369  0.06354  1.0000
  H   H791      1.0  0.14650  0.70219  0.41339  1.0000
  H   H792      1.0  0.41836  0.97899  0.44465  1.0000
  H   H793      1.0  0.07340  0.69780  0.14837  1.0000
  H   H794      1.0  0.17511  0.75861  0.45439  1.0000
  H   H795      1.0  0.10057  0.79651  0.12445  1.0000
  H   H796      1.0  0.07956  0.79197  0.16118  1.0000
  H   H797      1.0  0.00720  0.67108  0.00353  1.0000
  H   H798      1.0  0.41650  0.89619  0.37576  1.0000
  C   C469      1.0  0.13777  0.67801  0.00613  1.0000
  H   H799      1.0  0.05317  0.77905  0.04666  1.0000
  H   H800      1.0  0.10066  0.74924  0.12920  1.0000
  H   H801      1.0  0.10361  0.76791  0.15086  1.0000
  N   N30       1.0  0.42616  0.99886  0.41082  1.0000
  H   H802      1.0  0.07307  0.73429  0.17384  1.0000
  H   H803      1.0  0.20912  0.70912  0.42146  1.0000
  C   C470      1.0  0.49032  0.83958  0.32818  1.0000
  H   H804      1.0  0.29195  0.99129  0.41038  1.0000
  H   H805      1.0  0.02480  0.79265  0.14063  1.0000
  C   C471      1.0  0.01602  0.76960  0.09728  1.0000
  H   H806      1.0  0.10765  0.76552  0.03150  1.0000
  H   H807      1.0  0.12975  0.78245  0.04891  1.0000
  H   H808      1.0  0.49292  0.82305  0.36678  1.0000
  H   H809      1.0  0.41443  0.91581  0.35516  1.0000
  H   H810      1.0  0.03722  0.76568  0.15927  1.0000
  C   C472      1.0  0.00995  0.72540  0.04791  1.0000
  C   C473      1.0  0.41131  0.98211  0.42104  1.0000
  H   H811      1.0  0.36816  0.98600  0.21246  1.0000
  H   H812      1.0  0.43373  0.98043  0.17267  1.0000
  C   C474      1.0  0.45763  0.83200  0.31792  1.0000
  S   S103      1.0  0.18498  0.67712  0.11947  1.0000
  H   H813      1.0  0.09585  0.68809  0.05351  1.0000
  H   H814      1.0  0.44213  0.84185  0.30746  1.0000
  H   H815      1.0  0.07096  0.70576  0.43033  1.0000
  H   H816      1.0  0.28597  0.87478  0.44524  1.0000
  C   C475      1.0  0.21262  0.74974  0.36712  1.0000
  H   H817      1.0  0.35663  0.77978  0.03486  1.0000
  H   H818      1.0  0.29199  0.81298  0.45971  1.0000
  H   H819      1.0  0.22486  0.70199  0.48814  1.0000
  H   H820      1.0  0.29005  0.89271  0.39702  1.0000
  H   H821      1.0  0.10610  0.73129  0.44279  1.0000
  C   C476      1.0  0.15244  0.75055  0.45457  1.0000
  H   H822      1.0  0.16112  0.67700  0.01868  1.0000
  H   H823      1.0  0.09937  0.69107  0.44736  1.0000
  H   H824      1.0  0.46312  0.82214  0.30076  1.0000
  H   H825      1.0  0.31334  0.91769  0.41992  1.0000
  C   C477      1.0  0.10148  0.67441  0.05507  1.0000
  H   H826      1.0  0.04673  0.68838  0.03141  1.0000
  H   H827      1.0  0.19304  0.80153  0.08472  1.0000
  H   H828      1.0  0.28261  0.99199  0.15602  1.0000
  H   H829      1.0  0.38872  0.95644  0.20749  1.0000
  H   H830      1.0  0.18153  0.69883  0.45008  1.0000
  C   C478      1.0  0.31142  0.90579  0.43340  1.0000
  H   H831      1.0  0.13048  0.69143  0.00411  1.0000
  C   C479      1.0  0.37723  0.96317  0.18838  1.0000
  H   H832      1.0  0.05067  0.81955  0.15954  1.0000
  H   H833      1.0  0.33269  0.84433  0.44507  1.0000
  C   C480      1.0  0.17141  0.73706  0.40729  1.0000
  H   H834      1.0  0.18661  0.78077  0.10044  1.0000
  H   H835      1.0  0.23524  0.75783  0.36354  1.0000
  H   H836      1.0  0.33314  0.90503  0.44812  1.0000
  H   H837      1.0  0.10467  0.78666  0.01684  1.0000
  H   H838      1.0  0.34997  0.96019  0.18928  1.0000
  H   H839      1.0  0.24028  0.69050  0.45521  1.0000
  H   H840      1.0  0.03990  0.80004  0.10461  1.0000
  C   C481      1.0  0.27473  0.85833  0.39504  1.0000
  C   C482      1.0  0.33593  0.85820  0.38666  1.0000
  C   C483      1.0  0.31047  0.84314  0.43106  1.0000
  C   C484      1.0  0.28003  0.83951  0.45371  1.0000
  C   C485      1.0  0.26734  0.84238  0.37663  1.0000
  C   C486      1.0  0.37187  0.85924  0.39828  1.0000
  S   S104      1.0  0.34888  0.99454  0.28563  1.0000
  C   C487      1.0  0.23212  0.84304  0.36468  1.0000
  C   C488      1.0  0.39819  0.85878  0.37169  1.0000
  H   H841      1.0  0.27378  0.86901  0.37863  1.0000
  H   H842      1.0  0.25326  0.86046  0.41178  1.0000
  H   H843      1.0  0.33303  0.86853  0.36991  1.0000
  H   H844      1.0  0.33510  0.84661  0.37312  1.0000
  H   H845      1.0  0.31531  0.83165  0.41731  1.0000
  H   H846      1.0  0.25707  0.83678  0.44153  1.0000
  H   H847      1.0  0.28541  0.84122  0.35672  1.0000
  H   H848      1.0  0.26894  0.83082  0.39061  1.0000
  H   H849      1.0  0.37697  0.84843  0.41348  1.0000
  C   C489      1.0  0.22842  0.77179  0.48328  1.0000
  C   C490      1.0  0.42201  0.00060  0.37701  1.0000
  H   H850      1.0  0.48353  0.85068  0.34214  1.0000
  H   H851      1.0  0.21287  0.84345  0.38388  1.0000
  H   H852      1.0  0.22929  0.85422  0.34965  1.0000
  H   H853      1.0  0.22770  0.83161  0.35128  1.0000
  H   H854      1.0  0.39420  0.86925  0.35536  1.0000
  H   H855      1.0  0.42372  0.85991  0.38028  1.0000
  H   H856      1.0  0.39663  0.84672  0.35943  1.0000
  C   C491      1.0  0.06571  0.67479  0.10214  1.0000
  C   C492      1.0  0.41962  0.98673  0.19182  1.0000
  H   H857      1.0  0.27482  0.85034  0.46880  1.0000
  H   H858      1.0  0.43161  0.98923  0.36493  1.0000
  H   H859      1.0  0.37126  0.95390  0.41086  1.0000
  H   H860      1.0  0.04296  0.66954  0.11460  1.0000
  H   H861      1.0  0.10368  0.68602  0.16877  1.0000
  H   H862      1.0  0.12542  0.67374  0.06693  1.0000
  C   C493      1.0  0.49268  0.78022  0.35363  1.0000
  H   H863      1.0  0.07519  0.79571  0.06469  1.0000
  C   C494      1.0  0.12890  0.72318  0.44299  1.0000
  H   H864      1.0  0.28003  0.99815  0.46501  1.0000
  C   C495      1.0  0.23155  0.70299  0.46331  1.0000
  H   H865      1.0  0.36302  0.98410  0.39848  1.0000
  C   C496      1.0  0.33326  0.78718  0.03273  1.0000
  H   H866      1.0  0.28773  0.90608  0.44788  1.0000
  H   H867      1.0  0.20748  0.98366  0.33656  1.0000
  H   H868      1.0  0.26418  0.82151  0.48913  1.0000
  H   H869      1.0  0.11536  0.68341  0.11383  1.0000
  H   H870      1.0  0.33502  0.89174  0.39722  1.0000
  C   C497      1.0  0.02904  0.72095  0.09852  1.0000
  C   C498      1.0  0.09446  0.69842  0.42641  1.0000
  H   H871      1.0  0.20959  0.73431  0.45827  1.0000
  H   H872      1.0  0.37686  0.99527  0.01024  1.0000
  H   H873      1.0  0.33834  0.80060  0.03723  1.0000
  H   H874      1.0  0.07191  0.82415  0.12289  1.0000
  C   C499      1.0  0.05180  0.76124  0.13859  1.0000
  H   H875      1.0  0.44264  0.82633  0.33750  1.0000
  C   C500      1.0  0.09427  0.67602  0.12448  1.0000
  C   C501      1.0  0.18797  0.72569  0.45755  1.0000
  H   H876      1.0  0.49180  0.89688  0.24640  1.0000
  H   H877      1.0  0.32711  0.77921  0.47949  1.0000
  N   N31       1.0  0.16051  0.73377  0.44031  1.0000
  H   H878      1.0  0.28220  0.78751  0.05021  1.0000
  C   C502      1.0  0.04605  0.79132  0.12347  1.0000
  C   C503      1.0  0.43172  0.90595  0.36319  1.0000
  H   H879      1.0  0.19955  0.76095  0.40979  1.0000
  H   H880      1.0  0.22532  0.74241  0.41191  1.0000
  H   H881      1.0  0.33019  0.87330  0.44491  1.0000
  H   H882      1.0  0.42847  0.98054  0.21271  1.0000
  H   H883      1.0  0.45267  0.90117  0.26611  1.0000
  H   H884      1.0  0.19182  0.75566  0.35506  1.0000
  H   H885      1.0  0.13402  0.75746  0.44090  1.0000
  H   H886      1.0  0.17641  0.72518  0.39504  1.0000
  H   H887      1.0  0.25251  0.71210  0.45953  1.0000
  H   H888      1.0  0.45562  0.94229  0.37033  1.0000
  H   H889      1.0  0.25337  0.79981  0.09049  1.0000
  H   H890      1.0  0.09092  0.68950  0.40767  1.0000
  C   C504      1.0  0.20337  0.74804  0.40120  1.0000
  H   H891      1.0  0.21844  0.73727  0.35714  1.0000
  H   H892      1.0  0.07577  0.75321  0.19611  1.0000
  H   H893      1.0  0.30830  0.82657  0.48810  1.0000
  H   H894      1.0  0.04064  0.74892  0.13316  1.0000
  C   C505      1.0  0.37244  0.98063  0.42090  1.0000
  C   C506      1.0  0.28668  0.82421  0.47388  1.0000
  H   H895      1.0  0.01542  0.72786  0.02390  1.0000
  H   H896      1.0  0.01012  0.77972  0.08071  1.0000
  H   H897      1.0  0.36863  0.95870  0.45113  1.0000
  H   H898      1.0  0.36010  0.98890  0.43824  1.0000
  H   H899      1.0  0.20348  0.99400  0.37276  1.0000
  H   H900      1.0  0.47031  0.93800  0.27239  1.0000
  H   H901      1.0  0.01800  0.68820  0.06440  1.0000
  H   H902      1.0  0.33294  0.96212  0.42837  1.0000
  H   H903      1.0  0.41317  0.99342  0.13221  1.0000
  C   C507      1.0  0.36077  0.96270  0.42831  1.0000
  H   H904      1.0  0.47679  0.97241  0.40973  1.0000
  H   H905      1.0  0.49359  0.95437  0.22959  1.0000
  H   H906      1.0  0.01889  0.75792  0.08369  1.0000
  C   C508      1.0  0.48515  0.98523  0.40272  1.0000
  H   H907      1.0  0.46394  0.87308  0.29737  1.0000
  H   H908      1.0  0.46448  0.99723  0.44352  1.0000
  C   C509      1.0  0.46263  0.99879  0.41843  1.0000
  C   C510      1.0  0.99851  0.67774  0.02452  1.0000
  C   C511      1.0  0.45151  0.89810  0.33623  1.0000
  C   C512      1.0  0.48416  0.00011  0.21674  1.0000
  C   C513      1.0  0.49212  0.97081  0.30452  1.0000
  H   H909      1.0  0.48484  0.91958  0.33334  1.0000
  H   H910      1.0  0.43298  0.89212  0.32190  1.0000
  H   H911      1.0  0.45247  0.91996  0.30757  1.0000
  H   H912      1.0  0.46821  0.88838  0.34541  1.0000
  C   C514      1.0  0.47154  0.91160  0.31737  1.0000
  C   C515      1.0  0.13864  0.75006  0.48832  1.0000
  H   H913      1.0  0.10451  0.77129  0.48468  1.0000
  H   H914      1.0  0.42428  0.87432  0.25564  1.0000
  C   C516      1.0  0.44991  0.86902  0.25177  1.0000
  H   H915      1.0  0.47724  0.92460  0.24027  1.0000
  H   H916      1.0  0.45906  0.87169  0.22789  1.0000
  C   C517      1.0  0.47801  0.89565  0.26908  1.0000
  H   H917      1.0  0.48492  0.98642  0.37758  1.0000
  C   C518      1.0  0.47379  0.87640  0.27411  1.0000
  H   H918      1.0  0.23803  0.00072  0.29063  1.0000
  H   H919      1.0  0.17504  0.99929  0.34363  1.0000
  C   C519      1.0  0.48991  0.93179  0.25774  1.0000
  C   C520      1.0  0.10952  0.66788  0.02239  1.0000
  H   H920      1.0  0.08738  0.66893  0.00830  1.0000
  Fe  Fe53      1.0  0.36870  0.98104  0.79759  1.0000
  S   S105      1.0  0.34640  0.96183  0.83079  1.0000
  S   S106      1.0  0.42124  0.99130  0.79554  1.0000
  Fe  Fe54      1.0  0.30691  0.98335  0.76048  1.0000
  S   S107      1.0  0.27900  0.96462  0.79129  1.0000
  C   C521      1.0  0.02953  0.68562  0.56256  1.0000
  Fe  Fe55      1.0  0.30108  0.97867  0.82998  1.0000
  S   S108      1.0  0.26777  0.98357  0.87259  1.0000
  Fe  Fe56      1.0  0.32648  0.94936  0.78987  1.0000
  S   S109      1.0  0.33162  0.92229  0.77349  1.0000
  H   H921      1.0  0.01088  0.73865  0.52225  1.0000
  S   S110      1.0  0.35288  0.96732  0.75687  1.0000
  Fe  Fe57      1.0  0.17356  0.70560  0.59370  1.0000
  S   S111      1.0  0.13606  0.72220  0.61925  1.0000
  H   H922      1.0  0.42857  0.88986  0.82465  1.0000
  Fe  Fe58      1.0  0.19916  0.73518  0.55168  1.0000
  S   S112      1.0  0.16262  0.75319  0.57424  1.0000
  H   H923      1.0  0.48567  0.98422  0.97103  1.0000
  Fe  Fe59      1.0  0.17776  0.74163  0.61890  1.0000
  S   S113      1.0  0.18749  0.75837  0.66023  1.0000
  Fe  Fe60      1.0  0.12426  0.73228  0.57294  1.0000
  S   S114      1.0  0.07355  0.73553  0.55094  1.0000
  S   S115      1.0  0.21567  0.72441  0.59635  1.0000
  S   S116      1.0  0.16023  0.71484  0.54739  1.0000
  Fe  Fe61      1.0  0.31804  0.82404  0.82775  1.0000
  S   S117      1.0  0.33673  0.80948  0.86762  1.0000
  S   S118      1.0  0.30678  0.85146  0.84022  1.0000
  Fe  Fe62      1.0  0.31822  0.79243  0.78787  1.0000
  S   S119      1.0  0.33837  0.77619  0.82551  1.0000
  S   S120      1.0  0.31018  0.77957  0.74169  1.0000
  Fe  Fe63      1.0  0.30040  0.78917  0.85707  1.0000
  S   S121      1.0  0.26060  0.77560  0.88871  1.0000
  Fe  Fe64      1.0  0.37382  0.79772  0.83356  1.0000
  S   S122      1.0  0.42712  0.79681  0.85158  1.0000
  S   S123      1.0  0.27880  0.80446  0.81907  1.0000
  S   S124      1.0  0.35655  0.81321  0.79400  1.0000
  C   C522      1.0  0.46958  0.79419  0.83731  1.0000
  C   C523      1.0  0.47823  0.79109  0.80664  1.0000
  C   C524      1.0  0.00488  0.73648  0.54625  1.0000
  C   C525      1.0  0.31781  0.77783  0.59553  1.0000
  H   H924      1.0  0.45869  0.79032  0.79061  1.0000
  H   H925      1.0  0.48686  0.99900  0.90532  1.0000
  C   C526      1.0  0.03115  0.73442  0.56613  1.0000
  H   H926      1.0  0.23213  0.84729  0.85527  1.0000
  H   H927      1.0  0.20309  0.85818  0.88075  1.0000
  H   H928      1.0  0.04271  0.73015  0.61278  1.0000
  H   H929      1.0  0.11372  0.92961  0.84371  1.0000
  H   H930      1.0  0.48917  0.79746  0.88155  1.0000
  C   C527      1.0  0.22621  0.76116  0.93870  1.0000
  C   C528      1.0  0.25734  0.76753  0.92700  1.0000
  C   C529      1.0  0.28476  0.76666  0.94551  1.0000
  H   H931      1.0  0.41544  0.94782  0.73222  1.0000
  C   C530      1.0  0.32250  0.78755  0.52658  1.0000
  H   H932      1.0  0.20479  0.76168  0.92468  1.0000
  H   H933      1.0  0.30894  0.77136  0.93691  1.0000
  C   C531      1.0  0.21849  0.75743  0.79435  1.0000
  C   C532      1.0  0.22219  0.76397  0.68248  1.0000
  C   C533      1.0  0.25456  0.75741  0.67723  1.0000
  C   C534      1.0  0.28099  0.76235  0.69546  1.0000
  C   C535      1.0  0.27561  0.77382  0.71942  1.0000
  C   C536      1.0  0.24331  0.78045  0.72451  1.0000
  C   C537      1.0  0.21692  0.77553  0.70628  1.0000
  H   H934      1.0  0.25915  0.74842  0.65929  1.0000
  H   H935      1.0  0.30579  0.75712  0.69113  1.0000
  H   H936      1.0  0.23868  0.78945  0.74243  1.0000
  H   H937      1.0  0.19214  0.78079  0.71062  1.0000
  C   C538      1.0  0.44812  0.98019  0.81867  1.0000
  C   C539      1.0  0.28665  0.74119  0.79029  1.0000
  H   H938      1.0  0.19083  0.85226  0.84325  1.0000
  C   C540      1.0  0.43523  0.97044  0.84324  1.0000
  H   H939      1.0  0.32006  0.79149  0.59033  1.0000
  H   H940      1.0  0.40871  0.97044  0.84914  1.0000
  H   H941      1.0  0.44343  0.96399  0.74387  1.0000
  H   H942      1.0  0.40801  0.89355  0.75831  1.0000
  H   H943      1.0  0.22566  0.00086  0.97307  1.0000
  H   H944      1.0  0.27525  0.73817  0.76845  1.0000
  C   C541      1.0  0.45672  0.96070  0.86038  1.0000
  C   C542      1.0  0.32177  0.73275  0.79014  1.0000
  C   C543      1.0  0.32546  0.90269  0.79251  1.0000
  C   C544      1.0  0.32711  0.88788  0.77544  1.0000
  C   C545      1.0  0.32229  0.87202  0.78966  1.0000
  C   C546      1.0  0.31596  0.87083  0.82119  1.0000
  C   C547      1.0  0.31487  0.88566  0.83826  1.0000
  C   C548      1.0  0.31961  0.90149  0.82403  1.0000
  H   H945      1.0  0.33182  0.88867  0.75101  1.0000
  H   H946      1.0  0.32300  0.86074  0.77621  1.0000
  H   H947      1.0  0.31007  0.88486  0.86269  1.0000
  H   H948      1.0  0.31858  0.91276  0.83736  1.0000
  H   H949      1.0  0.43677  0.99639  0.98130  1.0000
  C   C549      1.0  0.49316  0.90945  0.79959  1.0000
  C   C550      1.0  0.46400  0.91659  0.82007  1.0000
  H   H950      1.0  0.35707  0.78248  0.64506  1.0000
  H   H951      1.0  0.33757  0.79527  0.54158  1.0000
  H   H952      1.0  0.30894  0.72182  0.61115  1.0000
  C   C551      1.0  0.24993  0.75303  0.98675  1.0000
  C   C552      1.0  0.43910  0.95021  0.74364  1.0000
  C   C553      1.0  0.31627  0.73759  0.57029  1.0000
  H   H953      1.0  0.29203  0.75491  0.78864  1.0000
  C   C554      1.0  0.28057  0.73487  0.84599  1.0000
  H   H954      1.0  0.14614  0.77679  0.49589  1.0000
  H   H955      1.0  0.11662  0.76662  0.52265  1.0000
  H   H956      1.0  0.22844  0.72443  0.78847  1.0000
  H   H957      1.0  0.41652  0.99041  0.89142  1.0000
  H   H958      1.0  0.32736  0.73039  0.74068  1.0000
  H   H959      1.0  0.20919  0.77426  0.50093  1.0000
  H   H960      1.0  0.21617  0.69045  0.82743  1.0000
  N   N32       1.0  0.26217  0.73736  0.81711  1.0000
  H   H961      1.0  0.42037  0.86370  0.75607  1.0000
  H   H962      1.0  0.38947  0.90383  0.86123  1.0000
  C   C555      1.0  0.12577  0.76729  0.49835  1.0000
  H   H963      1.0  0.44663  0.95299  0.87912  1.0000
  H   H964      1.0  0.35608  0.99232  0.97499  1.0000
  H   H965      1.0  0.35105  0.75814  0.61142  1.0000
  H   H966      1.0  0.39027  0.89667  0.81039  1.0000
  C   C556      1.0  0.47258  0.99492  0.92659  1.0000
  H   H967      1.0  0.30073  0.76282  0.52442  1.0000
  H   H968      1.0  0.21973  0.78445  0.80120  1.0000
  S   S125      1.0  0.23997  0.74133  0.51379  1.0000
  C   C557      1.0  0.25881  0.72997  0.87513  1.0000
  H   H969      1.0  0.36303  0.98789  0.69250  1.0000
  H   H970      1.0  0.46480  0.90959  0.84202  1.0000
  C   C558      1.0  0.29045  0.75117  0.58123  1.0000
  H   H971      1.0  0.22141  0.75066  0.84132  1.0000
  C   C559      1.0  0.28108  0.75938  0.97503  1.0000
  H   H972      1.0  0.15887  0.74646  0.50348  1.0000
  H   H973      1.0  0.46091  0.94594  0.78641  1.0000
  C   C560      1.0  0.28082  0.72689  0.90205  1.0000
  H   H974      1.0  0.40554  0.98253  0.68068  1.0000
  H   H975      1.0  0.28615  0.75005  0.60642  1.0000
  C   C561      1.0  0.24038  0.72253  0.81054  1.0000
  H   H976      1.0  0.46298  0.83276  0.83614  1.0000
  H   H977      1.0  0.11130  0.92840  0.88475  1.0000
  H   H978      1.0  0.42388  0.91604  0.87396  1.0000
  C   C562      1.0  0.43660  0.94341  0.77633  1.0000
  C   C563      1.0  0.34140  0.73546  0.75966  1.0000
  C   C564      1.0  0.20095  0.77427  0.79957  1.0000
  H   H979      1.0  0.26656  0.74710  0.57174  1.0000
  H   H980      1.0  0.47029  0.92973  0.82581  1.0000
  H   H981      1.0  0.34622  0.74904  0.75547  1.0000
  H   H982      1.0  0.18525  0.77724  0.78011  1.0000
  H   H983      1.0  0.25506  0.76365  0.82725  1.0000
  C   C565      1.0  0.02289  0.73174  0.59716  1.0000
  H   H984      1.0  0.44631  0.84231  0.87053  1.0000
  C   C566      1.0  0.42793  0.92440  0.77733  1.0000
  H   H985      1.0  0.49058  0.89564  0.79788  1.0000
  H   H986      1.0  0.27351  0.70264  0.82776  1.0000
  C   C567      1.0  0.46606  0.84342  0.85180  1.0000
  C   C568      1.0  0.23972  0.75251  0.82164  1.0000
  H   H987      1.0  0.23421  0.75844  0.77290  1.0000
  H   H988      1.0  0.29863  0.79415  0.52249  1.0000
  H   H989      1.0  0.21902  0.72151  0.82785  1.0000
  H   H990      1.0  0.29992  0.72495  0.84340  1.0000
  C   C569      1.0  0.41798  0.89758  0.80617  1.0000
  C   C570      1.0  0.37149  0.78181  0.62274  1.0000
  S   S126      1.0  0.18069  0.67846  0.61048  1.0000
  H   H991      1.0  0.03427  0.68755  0.53765  1.0000
  C   C571      1.0  0.20990  0.78861  0.59448  1.0000
  H   H992      1.0  0.25097  0.77987  0.61946  1.0000
  H   H993      1.0  0.19784  0.78644  0.57272  1.0000
  H   H994      1.0  0.19095  0.78639  0.61356  1.0000
  H   H995      1.0  0.21823  0.80189  0.59521  1.0000
  H   H996      1.0  0.45112  0.89011  0.76633  1.0000
  N   N33       1.0  0.42943  0.91567  0.80795  1.0000
  H   H997      1.0  0.31474  0.73571  0.54539  1.0000
  H   H998      1.0  0.32013  0.71908  0.79458  1.0000
  H   H999      1.0  0.29716  0.71577  0.89800  1.0000
  H   H1000     1.0  0.24445  0.71828  0.87184  1.0000
  H   H1001     1.0  0.27444  0.70500  0.78673  1.0000
  C   C572      1.0  0.31573  0.76986  0.54070  1.0000
  C   C573      1.0  0.26510  0.77846  0.56989  1.0000
  H   H1002     1.0  0.46240  0.85544  0.83941  1.0000
  H   H1003     1.0  0.34241  0.74110  0.57437  1.0000
  H   H1004     1.0  0.33676  0.73835  0.80801  1.0000
  C   C574      1.0  0.25820  0.70533  0.80800  1.0000
  H   H1005     1.0  0.32895  0.71152  0.57873  1.0000
  C   C575      1.0  0.40540  0.92467  0.82991  1.0000
  H   H1006     1.0  0.39653  0.77633  0.62666  1.0000
  C   C576      1.0  0.37569  0.92717  0.88219  1.0000
  H   H1007     1.0  0.40229  0.92314  0.76887  1.0000
  H   H1008     1.0  0.19834  0.74921  0.97682  1.0000
  H   H1009     1.0  0.38031  0.92581  0.82015  1.0000
  H   H1010     1.0  0.41400  0.93770  0.83339  1.0000
  H   H1011     1.0  0.22453  0.98556  0.92499  1.0000
  H   H1012     1.0  0.44465  0.91833  0.75984  1.0000
  H   H1013     1.0  0.19862  0.74795  0.79134  1.0000
  H   H1014     1.0  0.36893  0.77024  0.57925  1.0000
  H   H1015     1.0  0.37191  0.92114  0.90503  1.0000
  H   H1016     1.0  0.38588  0.93999  0.88506  1.0000
  H   H1017     1.0  0.35098  0.92816  0.87193  1.0000
  H   H1018     1.0  0.29462  0.74653  0.85095  1.0000
  H   H1019     1.0  0.36599  0.72896  0.76005  1.0000
  H   H1020     1.0  0.18457  0.77385  0.82082  1.0000
  H   H1021     1.0  0.24090  0.74005  0.88180  1.0000
  N   N34       1.0  0.20844  0.90484  0.83549  1.0000
  C   C577      1.0  0.17733  0.91557  0.83441  1.0000
  C   C578      1.0  0.22564  0.90433  0.80404  1.0000
  C   C579      1.0  0.19730  0.88713  0.84374  1.0000
  C   C580      1.0  0.23220  0.91075  0.85876  1.0000
  C   C581      1.0  0.23430  0.92996  0.86410  1.0000
  C   C582      1.0  0.15343  0.91490  0.86347  1.0000
  C   C583      1.0  0.22528  0.87355  0.84338  1.0000
  C   C584      1.0  0.23792  0.92124  0.78971  1.0000
  C   C585      1.0  0.24766  0.91933  0.75582  1.0000
  C   C586      1.0  0.26297  0.93415  0.88439  1.0000
  C   C587      1.0  0.12873  0.92957  0.86426  1.0000
  C   C588      1.0  0.21181  0.85685  0.85650  1.0000
  H   H1022     1.0  0.16230  0.91183  0.81495  1.0000
  H   H1023     1.0  0.18381  0.92892  0.82976  1.0000
  H   H1024     1.0  0.24856  0.89637  0.80403  1.0000
  H   H1025     1.0  0.20875  0.89830  0.78798  1.0000
  H   H1026     1.0  0.17791  0.88287  0.82820  1.0000
  H   H1027     1.0  0.18515  0.88666  0.86711  1.0000
  H   H1028     1.0  0.22558  0.90499  0.88153  1.0000
  H   H1029     1.0  0.25796  0.90619  0.85277  1.0000
  H   H1030     1.0  0.21077  0.93456  0.87577  1.0000
  H   H1031     1.0  0.23828  0.93726  0.84267  1.0000
  H   H1032     1.0  0.13848  0.90312  0.86390  1.0000
  H   H1033     1.0  0.16761  0.91517  0.88447  1.0000
  H   H1034     1.0  0.24633  0.87745  0.85713  1.0000
  H   H1035     1.0  0.23519  0.87109  0.81979  1.0000
  H   H1036     1.0  0.21869  0.93123  0.79143  1.0000
  H   H1037     1.0  0.26061  0.92545  0.80098  1.0000
  H   H1038     1.0  0.26637  0.90912  0.75221  1.0000
  H   H1039     1.0  0.22521  0.91649  0.74295  1.0000
  H   H1040     1.0  0.25903  0.93121  0.74665  1.0000
  H   H1041     1.0  0.26253  0.94776  0.88950  1.0000
  H   H1042     1.0  0.26036  0.92704  0.90628  1.0000
  H   H1043     1.0  0.28754  0.93121  0.87265  1.0000
  H   H1044     1.0  0.14235  0.94170  0.86539  1.0000
  H   H1045     1.0  0.21706  0.69296  0.78638  1.0000
  H   H1046     1.0  0.04351  0.69543  0.57440  1.0000
  C   C589      1.0  0.23271  0.69109  0.80629  1.0000
  H   H1047     1.0  0.49290  0.98822  0.79296  1.0000
  C   C590      1.0  0.42494  0.88847  0.77548  1.0000
  H   H1048     1.0  0.26962  0.79214  0.56637  1.0000
  C   C591      1.0  0.22244  0.75404  0.96835  1.0000
  N   N35       1.0  0.29803  0.76921  0.57196  1.0000
  H   H1049     1.0  0.22978  0.76376  0.59997  1.0000
  C   C592      1.0  0.35317  0.77081  0.60074  1.0000
  C   C593      1.0  0.48275  0.98065  0.81191  1.0000
  C   C594      1.0  0.30917  0.72065  0.58601  1.0000
  C   C595      1.0  0.23967  0.77675  0.59782  1.0000
  C   C596      1.0  0.41813  0.86964  0.77879  1.0000
  H   H1050     1.0  0.29806  0.99781  0.65119  1.0000
  H   H1051     1.0  0.25184  0.77415  0.54970  1.0000
  H   H1052     1.0  0.34026  0.76333  0.54049  1.0000
  C   C597      1.0  0.40002  0.91668  0.86224  1.0000
  H   H1053     1.0  0.26470  0.72462  0.92311  1.0000
  C   C598      1.0  0.27198  0.99505  0.90665  1.0000
  H   H1054     1.0  0.43657  0.86364  0.79347  1.0000
  H   H1055     1.0  0.29680  0.73802  0.90571  1.0000
  C   C599      1.0  0.49117  0.96062  0.85279  1.0000
  H   H1056     1.0  0.30419  0.77707  0.61823  1.0000
  H   H1057     1.0  0.28469  0.71561  0.57948  1.0000
  H   H1058     1.0  0.39243  0.86725  0.78888  1.0000
  H   H1059     1.0  0.24611  0.67893  0.80371  1.0000
  H   H1060     1.0  0.41660  0.95067  0.78876  1.0000
  H   H1061     1.0  0.37516  0.79470  0.61320  1.0000
  C   C600      1.0  0.24573  0.99356  0.92893  1.0000
  S   S127      1.0  0.32467  0.99863  0.79910  1.0000
  H   H1062     1.0  0.46038  0.94426  0.73051  1.0000
  H   H1063     1.0  0.41268  0.98871  0.95207  1.0000
  S   S128      1.0  0.28646  0.99173  0.71540  1.0000
  H   H1064     1.0  0.45909  0.98341  0.91995  1.0000
  H   H1065     1.0  0.30265  0.75854  0.98881  1.0000
  C   C601      1.0  0.34187  0.78634  0.49571  1.0000
  C   C602      1.0  0.38958  0.99207  0.69261  1.0000
  H   H1066     1.0  0.36642  0.78002  0.49812  1.0000
  H   H1067     1.0  0.03909  0.67312  0.56925  1.0000
  H   H1068     1.0  0.11764  0.74105  0.49217  1.0000
  H   H1069     1.0  0.15330  0.66829  0.55270  1.0000
  H   H1070     1.0  0.14302  0.67308  0.98287  1.0000
  H   H1071     1.0  0.49438  0.91526  0.77654  1.0000
  H   H1072     1.0  0.39655  0.99286  0.71668  1.0000
  C   C603      1.0  0.49551  0.79516  0.85775  1.0000
  H   H1073     1.0  0.37329  0.00058  0.85820  1.0000
  C   C604      1.0  0.42351  0.00046  0.96087  1.0000
  H   H1074     1.0  0.38282  0.00019  0.91324  1.0000
  Fe  Fe65      1.0  0.79543  0.28763  0.35254  1.0000
  S   S129      1.0  0.81241  0.26873  0.31716  1.0000
  S   S130      1.0  0.75768  0.28550  0.39407  1.0000
  Fe  Fe66      1.0  0.82826  0.31729  0.31475  1.0000
  S   S131      1.0  0.84607  0.30036  0.27643  1.0000
  Fe  Fe67      1.0  0.79550  0.28733  0.28214  1.0000
  S   S132      1.0  0.75719  0.28248  0.24558  1.0000
  Fe  Fe68      1.0  0.86190  0.28303  0.31392  1.0000
  S   S133      1.0  0.91312  0.26990  0.31180  1.0000
  S   S134      1.0  0.77683  0.30587  0.31765  1.0000
  S   S135      1.0  0.84598  0.30024  0.35196  1.0000
  Fe  Fe69      1.0  0.60923  0.22354  0.09088  1.0000
  S   S136      1.0  0.62754  0.21621  0.04392  1.0000
  S   S137      1.0  0.55382  0.22452  0.10778  1.0000
  Fe  Fe70      1.0  0.68096  0.22182  0.11491  1.0000
  S   S138      1.0  0.70312  0.21297  0.06934  1.0000
  S   S139      1.0  0.71611  0.22414  0.15467  1.0000
  Fe  Fe71      1.0  0.67186  0.23335  0.04927  1.0000
  C   C605      1.0  0.59752  0.26023  0.01880  1.0000
  Fe  Fe72      1.0  0.65744  0.19631  0.06754  1.0000
  S   S140      1.0  0.64957  0.17043  0.04699  1.0000
  S   S141      1.0  0.65076  0.24260  0.09497  1.0000
  S   S142      1.0  0.63805  0.20332  0.11441  1.0000
  Fe  Fe73      1.0  0.63346  0.03463  0.11063  1.0000
  S   S143      1.0  0.66368  0.04667  0.07083  1.0000
  S   S144      1.0  0.65108  0.01140  0.13672  1.0000
  Fe  Fe74      1.0  0.57407  0.05739  0.10074  1.0000
  S   S145      1.0  0.59865  0.07087  0.06047  1.0000
  S   S146      1.0  0.52172  0.06312  0.11852  1.0000
  Fe  Fe75      1.0  0.61608  0.04512  0.04536  1.0000
  H   H1075     1.0  0.98488  0.25986  0.40502  1.0000
  Fe  Fe76      1.0  0.64354  0.07155  0.08879  1.0000
  S   S147      1.0  0.67192  0.09580  0.09804  1.0000
  S   S148      1.0  0.58744  0.03178  0.08400  1.0000
  S   S149      1.0  0.61758  0.05941  0.13037  1.0000
  C   C606      1.0  0.69448  0.28833  0.32181  1.0000
  H   H1076     1.0  0.70000  0.01414  0.07582  1.0000
  H   H1077     1.0  0.52134  0.10792  0.01705  1.0000
  C   C607      1.0  0.98776  0.30473  0.31997  1.0000
  H   H1078     1.0  0.80103  0.24006  0.05573  1.0000
  C   C608      1.0  0.61682  0.01584  0.19307  1.0000
  C   C609      1.0  0.82741  0.33007  0.42109  1.0000
  H   H1079     1.0  0.75212  0.21481  0.34509  1.0000
  C   C610      1.0  0.71435  0.23038  0.29420  1.0000
  H   H1080     1.0  0.98957  0.31785  0.32563  1.0000
  H   H1081     1.0  0.70895  0.03346  0.24437  1.0000
  C   C611      1.0  0.72749  0.24599  0.46918  1.0000
  H   H1082     1.0  0.98052  0.25787  0.29952  1.0000
  C   C612      1.0  0.69759  0.23505  0.38078  1.0000
  H   H1083     1.0  0.53514  0.05657  0.05477  1.0000
  C   C613      1.0  0.65563  0.14985  0.06201  1.0000
  C   C614      1.0  0.67370  0.14685  0.08789  1.0000
  C   C615      1.0  0.67821  0.13026  0.09867  1.0000
  C   C616      1.0  0.66446  0.11648  0.08397  1.0000
  C   C617      1.0  0.64607  0.11950  0.05825  1.0000
  C   C618      1.0  0.64195  0.13607  0.04723  1.0000
  H   H1084     1.0  0.68470  0.15727  0.09932  1.0000
  H   H1085     1.0  0.69274  0.12807  0.11839  1.0000
  H   H1086     1.0  0.63566  0.10905  0.04647  1.0000
  H   H1087     1.0  0.62816  0.13821  0.02704  1.0000
  C   C619      1.0  0.74714  0.27004  0.42291  1.0000
  C   C620      1.0  0.71835  0.27250  0.44237  1.0000
  C   C621      1.0  0.70856  0.26059  0.46530  1.0000
  C   C622      1.0  0.63919  0.00602  0.17533  1.0000
  C   C623      1.0  0.68926  0.28313  0.09748  1.0000
  C   C624      1.0  0.76611  0.25546  0.42677  1.0000
  H   H1088     1.0  0.70344  0.28371  0.43971  1.0000
  H   H1089     1.0  0.59161  0.03583  0.37901  1.0000
  H   H1090     1.0  0.84651  0.27968  0.09118  1.0000
  H   H1091     1.0  0.78844  0.25337  0.41226  1.0000
  C   C625      1.0  0.74595  0.26588  0.22099  1.0000
  C   C626      1.0  0.76295  0.25051  0.21965  1.0000
  C   C627      1.0  0.75338  0.23796  0.19934  1.0000
  C   C628      1.0  0.72673  0.24052  0.18001  1.0000
  C   C629      1.0  0.70965  0.25586  0.18142  1.0000
  C   C630      1.0  0.71922  0.26841  0.20172  1.0000
  H   H1092     1.0  0.78361  0.24831  0.23412  1.0000
  H   H1093     1.0  0.76683  0.22617  0.19855  1.0000
  H   H1094     1.0  0.68897  0.25806  0.16698  1.0000
  H   H1095     1.0  0.70582  0.28021  0.20247  1.0000
  C   C631      1.0  0.51750  0.22626  0.08610  1.0000
  C   C632      1.0  0.69683  0.00611  0.35151  1.0000
  C   C633      1.0  0.97304  0.26584  0.45168  1.0000
  H   H1096     1.0  0.54363  0.23337  0.04393  1.0000
  C   C634      1.0  0.95578  0.29716  0.31934  1.0000
  C   C635      1.0  0.95287  0.28018  0.31214  1.0000
  H   H1097     1.0  0.73726  0.22264  0.29633  1.0000
  H   H1098     1.0  0.93337  0.30447  0.32449  1.0000
  C   C636      1.0  0.73471  0.00258  0.34465  1.0000
  H   H1099     1.0  0.84219  0.27065  0.02374  1.0000
  H   H1100     1.0  0.54354  0.17839  0.03791  1.0000
  C   C637      1.0  0.79132  0.21694  0.08007  1.0000
  H   H1101     1.0  0.94646  0.26870  0.44729  1.0000
  N   N36       1.0  0.57289  0.15212  0.13109  1.0000
  C   C638      1.0  0.57525  0.13568  0.11436  1.0000
  C   C639      1.0  0.57343  0.16679  0.10868  1.0000
  C   C640      1.0  0.60364  0.15347  0.14950  1.0000
  C   C641      1.0  0.54235  0.15293  0.15276  1.0000
  H   H1102     1.0  0.69309  0.00719  0.37654  1.0000
  C   C642      1.0  0.57764  0.11953  0.13429  1.0000
  C   C643      1.0  0.60646  0.16970  0.16836  1.0000
  C   C644      1.0  0.55749  0.16408  0.07768  1.0000
  C   C645      1.0  0.55380  0.18070  0.06043  1.0000
  H   H1103     1.0  0.71514  0.01907  0.29433  1.0000
  C   C646      1.0  0.57322  0.10378  0.11555  1.0000
  C   C647      1.0  0.64195  0.17189  0.17916  1.0000
  H   H1104     1.0  0.59782  0.13584  0.09838  1.0000
  H   H1105     1.0  0.55381  0.13399  0.09974  1.0000
  H   H1106     1.0  0.56143  0.17806  0.11937  1.0000
  H   H1107     1.0  0.59978  0.17072  0.10237  1.0000
  H   H1108     1.0  0.62670  0.15229  0.13423  1.0000
  H   H1109     1.0  0.60480  0.14298  0.16633  1.0000
  H   H1110     1.0  0.54469  0.14390  0.17205  1.0000
  H   H1111     1.0  0.54071  0.16547  0.16360  1.0000
  C   C648      1.0  0.71233  0.00277  0.06611  1.0000
  H   H1112     1.0  0.57614  0.25936  0.03599  1.0000
  H   H1113     1.0  0.60280  0.11862  0.14384  1.0000
  H   H1114     1.0  0.55816  0.11922  0.15321  1.0000
  H   H1115     1.0  0.58893  0.16903  0.18885  1.0000
  H   H1116     1.0  0.60016  0.18109  0.15521  1.0000
  H   H1117     1.0  0.57394  0.15579  0.06321  1.0000
  H   H1118     1.0  0.87868  0.27791  0.04207  1.0000
  H   H1119     1.0  0.53948  0.00923  0.02499  1.0000
  C   C649      1.0  0.50800  0.15013  0.13892  1.0000
  H   H1120     1.0  0.68233  0.01546  0.23964  1.0000
  H   H1121     1.0  0.66530  0.23114  0.43811  1.0000
  H   H1122     1.0  0.77117  0.23232  0.45238  1.0000
  C   C650      1.0  0.66191  0.00874  0.48253  1.0000
  H   H1123     1.0  0.54757  0.10321  0.10711  1.0000
  H   H1124     1.0  0.59197  0.10350  0.09597  1.0000
  H   H1125     1.0  0.57696  0.09246  0.12996  1.0000
  H   H1126     1.0  0.64320  0.18346  0.19286  1.0000
  H   H1127     1.0  0.64901  0.16099  0.19346  1.0000
  H   H1128     1.0  0.66037  0.17315  0.15937  1.0000
  H   H1129     1.0  0.81475  0.24369  0.10949  1.0000
  H   H1130     1.0  0.67923  0.29612  0.09798  1.0000
  H   H1131     1.0  0.71974  0.00514  0.04172  1.0000
  H   H1132     1.0  0.73379  0.27043  0.31435  1.0000
  C   C651      1.0  0.50838  0.05674  0.05955  1.0000
  C   C652      1.0  0.78372  0.23552  0.07466  1.0000
  C   C653      1.0  0.76397  0.22562  0.35598  1.0000
  C   C654      1.0  0.80130  0.22590  0.34620  1.0000
  C   C655      1.0  0.65105  0.22606  0.41923  1.0000
  H   H1133     1.0  0.81776  0.21522  0.08617  1.0000
  H   H1134     1.0  0.81417  0.23625  0.35761  1.0000
  H   H1135     1.0  0.81307  0.21385  0.35278  1.0000
  H   H1136     1.0  0.80494  0.22757  0.32112  1.0000
  H   H1137     1.0  0.71063  0.24172  0.39884  1.0000
  H   H1138     1.0  0.62384  0.22719  0.42561  1.0000
  H   H1139     1.0  0.50259  0.16064  0.12315  1.0000
  H   H1140     1.0  0.65155  0.24904  0.39372  1.0000
  C   C656      1.0  0.60825  0.01121  0.22360  1.0000
  H   H1141     1.0  0.67724  0.27597  0.11699  1.0000
  H   H1142     1.0  0.69419  0.26498  0.29879  1.0000
  H   H1143     1.0  0.67166  0.04354  0.28640  1.0000
  H   H1144     1.0  0.50716  0.13806  0.12675  1.0000
  H   H1145     1.0  0.67130  0.23017  0.26572  1.0000
  C   C657      1.0  0.70621  0.27014  0.31879  1.0000
  H   H1146     1.0  0.57860  0.18693  0.05664  1.0000
  H   H1147     1.0  0.64455  0.23056  0.37149  1.0000
  H   H1148     1.0  0.66822  0.23543  0.32125  1.0000
  H   H1149     1.0  0.64638  0.02346  0.39326  1.0000
  H   H1150     1.0  0.68639  0.26270  0.48002  1.0000
  C   C658      1.0  0.59514  0.02205  0.38120  1.0000
  H   H1151     1.0  0.70587  0.29429  0.34148  1.0000
  H   H1152     1.0  0.68021  0.00515  0.29569  1.0000
  H   H1153     1.0  0.75589  0.25210  0.36312  1.0000
  H   H1154     1.0  0.52555  0.01809  0.21337  1.0000
  H   H1155     1.0  0.63431  0.00372  0.37906  1.0000
  H   H1156     1.0  0.81385  0.33179  0.37368  1.0000
  C   C659      1.0  0.71942  0.33216  0.46893  1.0000
  N   N37       1.0  0.68251  0.02106  0.33522  1.0000
  H   H1157     1.0  0.49874  0.24085  0.16666  1.0000
  C   C660      1.0  0.64509  0.02226  0.34262  1.0000
  H   H1158     1.0  0.64200  0.02713  0.28090  1.0000
  C   C661      1.0  0.70012  0.03718  0.34247  1.0000
  C   C662      1.0  0.70069  0.04192  0.37645  1.0000
  H   H1159     1.0  0.63136  0.01361  0.32788  1.0000
  H   H1160     1.0  0.66703  0.03625  0.23185  1.0000
  C   C663      1.0  0.63211  0.01746  0.37555  1.0000
  H   H1161     1.0  0.97446  0.25265  0.46005  1.0000
  C   C664      1.0  0.72444  0.05666  0.38074  1.0000
  S   S150      1.0  0.69306  0.25413  0.01663  1.0000
  H   H1162     1.0  0.60088  0.27360  0.01182  1.0000
  C   C665      1.0  0.66918  0.03023  0.28005  1.0000
  H   H1163     1.0  0.62042  0.25581  0.02968  1.0000
  H   H1164     1.0  0.73238  0.28973  0.12146  1.0000
  H   H1165     1.0  0.73650  0.32153  0.42639  1.0000
  C   C666      1.0  0.82667  0.27844  0.17388  1.0000
  H   H1166     1.0  0.53241  0.15818  0.08031  1.0000
  H   H1167     1.0  0.72645  0.03706  0.33272  1.0000
  H   H1168     1.0  0.68832  0.04803  0.33114  1.0000
  H   H1169     1.0  0.70918  0.03143  0.39088  1.0000
  H   H1170     1.0  0.67534  0.04605  0.38485  1.0000
  H   H1171     1.0  0.59134  0.01907  0.23717  1.0000
  H   H1172     1.0  0.57935  0.00285  0.47092  1.0000
  H   H1173     1.0  0.53646  0.18926  0.07337  1.0000
  H   H1174     1.0  0.60636  0.02710  0.18336  1.0000
  H   H1175     1.0  0.73771  0.29143  0.08060  1.0000
  H   H1176     1.0  0.59835  0.00747  0.03600  1.0000
  H   H1177     1.0  0.84692  0.27297  0.18727  1.0000
  C   C667      1.0  0.72731  0.28351  0.09978  1.0000
  H   H1178     1.0  0.66671  0.28896  0.32494  1.0000
  H   H1179     1.0  0.75064  0.05319  0.37357  1.0000
  H   H1180     1.0  0.71676  0.06779  0.36733  1.0000
  H   H1181     1.0  0.72372  0.06008  0.40517  1.0000
  H   H1182     1.0  0.75013  0.01367  0.34968  1.0000
  H   H1183     1.0  0.80454  0.28073  0.18967  1.0000
  C   C668      1.0  0.68277  0.02872  0.24701  1.0000
  C   C669      1.0  0.75625  0.24353  0.44964  1.0000
  C   C670      1.0  0.98243  0.27096  0.30544  1.0000
  H   H1184     1.0  0.63589  0.03509  0.33716  1.0000
  N   N38       1.0  0.77977  0.26419  0.10213  1.0000
  H   H1185     1.0  0.60924  0.11317  0.46903  1.0000
  H   H1186     1.0  0.76570  0.27150  0.14849  1.0000
  C   C671      1.0  0.85084  0.27842  0.04259  1.0000
  H   H1187     1.0  0.78595  0.32025  0.39729  1.0000
  C   C672      1.0  0.69362  0.22234  0.27008  1.0000
  C   C673      1.0  0.69423  0.23128  0.32549  1.0000
  C   C674      1.0  0.68799  0.01816  0.30138  1.0000
  H   H1188     1.0  0.76203  0.22354  0.38106  1.0000
  H   H1189     1.0  0.65721  0.21255  0.41650  1.0000
  H   H1190     1.0  0.79049  0.28656  0.12751  1.0000
  H   H1191     1.0  0.69148  0.21802  0.33362  1.0000
  C   C675      1.0  0.83631  0.27176  0.07330  1.0000
  C   C676      1.0  0.52446  0.10469  0.04137  1.0000
  C   C677      1.0  0.78736  0.27280  0.13152  1.0000
  H   H1192     1.0  0.78739  0.20983  0.05901  1.0000
  H   H1193     1.0  0.75778  0.23640  0.06718  1.0000
  H   H1194     1.0  0.75642  0.24631  0.32476  1.0000
  H   H1195     1.0  0.70907  0.22136  0.24838  1.0000
  S   S151      1.0  0.60493  0.03768  0.99653  1.0000
  H   H1196     1.0  0.84538  0.25872  0.07600  1.0000
  N   N39       1.0  0.70867  0.24204  0.34968  1.0000
  H   H1197     1.0  0.68261  0.27730  0.07580  1.0000
  H   H1198     1.0  0.53963  0.11456  0.05177  1.0000
  H   H1199     1.0  0.66815  0.01900  0.99586  1.0000
  C   C678      1.0  0.74654  0.24237  0.34773  1.0000
  H   H1200     1.0  0.71307  0.31965  0.47913  1.0000
  H   H1201     1.0  0.69235  0.32567  0.34002  1.0000
  H   H1202     1.0  0.83559  0.29062  0.16388  1.0000
  H   H1203     1.0  0.70244  0.29550  0.30079  1.0000
  H   H1204     1.0  0.84312  0.29166  0.03889  1.0000
  H   H1205     1.0  0.66783  0.25998  0.34901  1.0000
  H   H1206     1.0  0.68539  0.20953  0.27742  1.0000
  H   H1207     1.0  0.98120  0.27442  0.46955  1.0000
  H   H1208     1.0  0.57956  0.01556  0.36478  1.0000
  H   H1209     1.0  0.70492  0.22163  0.38287  1.0000
  C   C679      1.0  0.69572  0.25982  0.34781  1.0000
  C   C680      1.0  0.51940  0.23114  0.05539  1.0000
  C   C681      1.0  0.78833  0.24574  0.10390  1.0000
  H   H1210     1.0  0.72263  0.24284  0.28533  1.0000
  H   H1211     1.0  0.53833  0.09263  0.04244  1.0000
  H   H1212     1.0  0.77319  0.23967  0.12303  1.0000
  H   H1213     1.0  0.78811  0.26794  0.05350  1.0000
  C   C682      1.0  0.79755  0.27279  0.07510  1.0000
  H   H1214     1.0  0.73565  0.26049  0.07595  1.0000
  H   H1215     1.0  0.81152  0.25402  0.15987  1.0000
  H   H1216     1.0  0.58651  0.01807  0.40463  1.0000
  H   H1217     1.0  0.77429  0.21169  0.09867  1.0000
  H   H1218     1.0  0.70348  0.26699  0.36787  1.0000
  C   C683      1.0  0.65947  0.23586  0.38964  1.0000
  C   C684      1.0  0.74238  0.26551  0.09828  1.0000
  C   C685      1.0  0.81783  0.26635  0.14884  1.0000
  H   H1219     1.0  0.72837  0.25763  0.11587  1.0000
  H   H1220     1.0  0.79152  0.28640  0.07479  1.0000
  H   H1221     1.0  0.84058  0.26467  0.13370  1.0000
  H   H1222     1.0  0.99154  0.28142  0.41448  1.0000
  C   C686      1.0  0.60632  0.00170  0.46766  1.0000
  H   H1223     1.0  0.74116  0.32132  0.37087  1.0000
  C   C687      1.0  0.62707  0.01035  0.48710  1.0000
  H   H1224     1.0  0.64409  0.00175  0.06248  1.0000
  H   H1225     1.0  0.49747  0.05307  0.01282  1.0000
  H   H1226     1.0  0.87118  0.32679  0.38958  1.0000
  H   H1227     1.0  0.76816  0.32383  0.45305  1.0000
  C   C688      1.0  0.74639  0.33017  0.44323  1.0000
  H   H1228     1.0  0.82805  0.31667  0.42852  1.0000
  C   C689      1.0  0.99484  0.26827  0.42230  1.0000
  H   H1229     1.0  0.58825  0.23624  0.99959  1.0000
  C   C690      1.0  0.80078  0.33201  0.39665  1.0000
  H   H1230     1.0  0.88077  0.33272  0.42738  1.0000
  H   H1231     1.0  0.63274  0.09516  0.48124  1.0000
  C   C691      1.0  0.59057  0.24940  0.99140  1.0000
  C   C692      1.0  0.62285  0.10767  0.48813  1.0000
  C   C693      1.0  0.72985  0.33400  0.37046  1.0000
  C   C694      1.0  0.52158  0.00429  0.21333  1.0000
  Fe  Fe77      1.0  0.78999  0.27605  0.84987  1.0000
  S   S152      1.0  0.81824  0.26716  0.80673  1.0000
  S   S153      1.0  0.77269  0.25578  0.88539  1.0000
  Fe  Fe78      1.0  0.79440  0.31281  0.82848  1.0000
  S   S154      1.0  0.82093  0.30621  0.78435  1.0000
  Fe  Fe79      1.0  0.78460  0.28460  0.78160  1.0000
  S   S155      1.0  0.76972  0.27858  0.73278  1.0000
  Fe  Fe80      1.0  0.85282  0.28924  0.81200  1.0000
  S   S156      1.0  0.90806  0.29187  0.79523  1.0000
  S   S157      1.0  0.75478  0.29258  0.82426  1.0000
  S   S158      1.0  0.82758  0.29666  0.85672  1.0000
  Fe  Fe81      1.0  0.60146  0.22322  0.55769  1.0000
  S   S159      1.0  0.63849  0.20545  0.53438  1.0000
  S   S160      1.0  0.54899  0.22116  0.53874  1.0000
  Fe  Fe82      1.0  0.65386  0.23448  0.60334  1.0000
  S   S161      1.0  0.69321  0.21728  0.58249  1.0000
  S   S162      1.0  0.65744  0.24787  0.64957  1.0000
  Fe  Fe83      1.0  0.67614  0.22656  0.53683  1.0000
  C   C695      1.0  0.95102  0.24685  0.78049  1.0000
  Fe  Fe84      1.0  0.65271  0.19765  0.58118  1.0000
  S   S163      1.0  0.65527  0.17182  0.60476  1.0000
  S   S164      1.0  0.63841  0.24489  0.55769  1.0000
  S   S165      1.0  0.61389  0.21432  0.60424  1.0000
  Fe  Fe85      1.0  0.65222  0.04125  0.61908  1.0000
  S   S166      1.0  0.67595  0.04622  0.57172  1.0000
  S   S167      1.0  0.67669  0.02391  0.65334  1.0000
  Fe  Fe86      1.0  0.58970  0.06052  0.60513  1.0000
  S   S168      1.0  0.60739  0.06632  0.55712  1.0000
  S   S169      1.0  0.53949  0.06985  0.62302  1.0000
  Fe  Fe87      1.0  0.62543  0.03959  0.55474  1.0000
  H   H1232     1.0  0.97938  0.32912  0.81834  1.0000
  Fe  Fe88      1.0  0.65604  0.07278  0.57754  1.0000
  S   S170      1.0  0.68085  0.09684  0.55806  1.0000
  S   S171      1.0  0.60308  0.03339  0.60167  1.0000
  S   S172      1.0  0.63712  0.06829  0.62610  1.0000
  H   H1233     1.0  0.62931  0.03132  0.89678  1.0000
  C   C696      1.0  0.66241  0.05837  0.91500  1.0000
  H   H1234     1.0  0.56235  0.11019  0.66054  1.0000
  H   H1235     1.0  0.59945  0.01289  0.82915  1.0000
  H   H1236     1.0  0.58890  0.09803  0.63485  1.0000
  S   S173      1.0  0.71639  0.23030  0.49748  1.0000
  C   C697      1.0  0.65625  0.01569  0.68733  1.0000
  C   C698      1.0  0.62321  0.01997  0.69622  1.0000
  H   H1237     1.0  0.57565  0.12974  0.50811  1.0000
  H   H1238     1.0  0.60972  0.02875  0.68245  1.0000
  H   H1239     1.0  0.60713  0.05013  0.74663  1.0000
  H   H1240     1.0  0.94601  0.25953  0.78978  1.0000
  C   C699      1.0  0.58594  0.12288  0.52773  1.0000
  H   H1241     1.0  0.98031  0.33062  0.85913  1.0000
  H   H1242     1.0  0.54306  0.04997  0.56873  1.0000
  C   C700      1.0  0.66241  0.15115  0.59092  1.0000
  C   C701      1.0  0.67150  0.14792  0.56039  1.0000
  C   C702      1.0  0.67732  0.13127  0.55079  1.0000
  C   C703      1.0  0.67328  0.11761  0.57131  1.0000
  C   C704      1.0  0.66424  0.12086  0.60185  1.0000
  C   C705      1.0  0.65900  0.13752  0.61156  1.0000
  H   H1243     1.0  0.67457  0.15826  0.54429  1.0000
  H   H1244     1.0  0.68500  0.12896  0.52726  1.0000
  H   H1245     1.0  0.66154  0.11053  0.61802  1.0000
  H   H1246     1.0  0.65224  0.13986  0.63527  1.0000
  C   C706      1.0  0.75090  0.25575  0.92209  1.0000
  C   C707      1.0  0.74586  0.24038  0.93795  1.0000
  H   H1247     1.0  0.65328  0.00536  0.60194  1.0000
  H   H1248     1.0  0.57746  0.01942  0.94784  1.0000
  C   C708      1.0  0.72040  0.26959  0.96439  1.0000
  C   C709      1.0  0.73792  0.27038  0.93556  1.0000
  H   H1249     1.0  0.75573  0.22897  0.92786  1.0000
  H   H1250     1.0  0.58227  0.01660  0.72993  1.0000
  H   H1251     1.0  0.82799  0.31463  0.67560  1.0000
  H   H1252     1.0  0.74140  0.28230  0.92375  1.0000
  C   C710      1.0  0.73858  0.26920  0.71053  1.0000
  C   C711      1.0  0.70754  0.26356  0.72309  1.0000
  C   C712      1.0  0.68335  0.25691  0.70415  1.0000
  C   C713      1.0  0.68984  0.25557  0.67243  1.0000
  C   C714      1.0  0.72101  0.26108  0.65995  1.0000
  C   C715      1.0  0.74509  0.26783  0.67883  1.0000
  H   H1253     1.0  0.70193  0.26455  0.74733  1.0000
  H   H1254     1.0  0.65927  0.25287  0.71415  1.0000
  H   H1255     1.0  0.72632  0.26048  0.63561  1.0000
  H   H1256     1.0  0.76888  0.27219  0.66871  1.0000
  H   H1257     1.0  0.66250  0.06301  0.86678  1.0000
  C   C716      1.0  0.70475  0.33118  0.77313  1.0000
  H   H1258     1.0  0.68499  0.06627  0.91756  1.0000
  H   H1259     1.0  0.52594  0.24266  0.58954  1.0000
  C   C717      1.0  0.94618  0.28887  0.84623  1.0000
  C   C718      1.0  0.94568  0.29227  0.81501  1.0000
  H   H1260     1.0  0.60162  0.01216  0.86909  1.0000
  H   H1261     1.0  0.92297  0.28608  0.85919  1.0000
  H   H1262     1.0  0.66311  0.04770  0.93152  1.0000
  C   C719      1.0  0.67171  0.26398  0.87550  1.0000
  C   C720      1.0  0.66366  0.30657  0.69897  1.0000
  C   C721      1.0  0.62502  0.00174  0.74156  1.0000
  H   H1263     1.0  0.60327  0.05522  0.83137  1.0000
  H   H1264     1.0  0.76504  0.31084  0.70919  1.0000
  C   C722      1.0  0.57364  0.15297  0.56997  1.0000
  C   C723      1.0  0.65270  0.01375  0.97891  1.0000
  C   C724      1.0  0.59915  0.02095  0.84957  1.0000
  H   H1265     1.0  0.69233  0.16972  0.66176  1.0000
  H   H1266     1.0  0.51222  0.11174  0.56811  1.0000
  H   H1267     1.0  0.61741  0.21386  0.92740  1.0000
  N   N40       1.0  0.62838  0.03296  0.84758  1.0000
  C   C725      1.0  0.55754  0.17018  0.57496  1.0000
  H   H1268     1.0  0.52447  0.03856  0.96787  1.0000
  H   H1269     1.0  0.99065  0.23254  0.75935  1.0000
  H   H1270     1.0  0.67015  0.24372  0.92789  1.0000
  C   C726      1.0  0.51909  0.05629  0.57043  1.0000
  H   H1271     1.0  0.57692  0.17925  0.58163  1.0000
  H   H1272     1.0  0.54780  0.12908  0.61805  1.0000
  H   H1273     1.0  0.51134  0.02115  0.85744  1.0000
  C   C727      1.0  0.54763  0.13994  0.55969  1.0000
  C   C728      1.0  0.64588  0.24449  0.91663  1.0000
  H   H1274     1.0  0.63181  0.19528  0.98775  1.0000
  H   H1275     1.0  0.68115  0.03189  0.83287  1.0000
  H   H1276     1.0  0.93393  0.24482  0.76178  1.0000
  H   H1277     1.0  0.51222  0.02228  0.92194  1.0000
  H   H1278     1.0  0.97712  0.28573  0.88469  1.0000
  H   H1279     1.0  0.59426  0.03224  0.79158  1.0000
  C   C729      1.0  0.60186  0.01410  0.95157  1.0000
  H   H1280     1.0  0.58572  0.10251  0.57875  1.0000
  C   C730      1.0  0.97618  0.29576  0.79850  1.0000
  C   C731      1.0  0.51342  0.11430  0.51944  1.0000
  H   H1281     1.0  0.86776  0.32933  0.84521  1.0000
  H   H1282     1.0  0.54962  0.23115  0.95854  1.0000
  H   H1283     1.0  0.67229  0.27707  0.86652  1.0000
  H   H1284     1.0  0.65865  0.22398  0.98188  1.0000
  C   C732      1.0  0.61856  0.25148  0.96588  1.0000
  H   H1285     1.0  0.53974  0.00623  0.87341  1.0000
  H   H1286     1.0  0.63854  0.03292  0.78174  1.0000
  H   H1287     1.0  0.52575  0.13987  0.57649  1.0000
  H   H1288     1.0  0.62085  0.26564  0.89317  1.0000
  C   C733      1.0  0.62032  0.22181  0.94776  1.0000
  S   S174      1.0  0.60786  0.02272  0.51672  1.0000
  C   C734      1.0  0.76773  0.32451  0.70454  1.0000
  H   H1289     1.0  0.66562  0.25546  0.85679  1.0000
  C   C735      1.0  0.65978  0.02323  0.83862  1.0000
  H   H1290     1.0  0.60178  0.12272  0.58458  1.0000
  H   H1291     1.0  0.71214  0.01405  0.58734  1.0000
  C   C736      1.0  0.53654  0.01531  0.85441  1.0000
  H   H1292     1.0  0.56103  0.03558  0.87593  1.0000
  H   H1293     1.0  0.61407  0.09969  0.53434  1.0000
  C   C737      1.0  0.65379  0.21652  0.96152  1.0000
  C   C738      1.0  0.56371  0.02887  0.85400  1.0000
  H   H1294     1.0  0.64667  0.05449  0.82129  1.0000
  H   H1295     1.0  0.73032  0.17155  0.63806  1.0000
  H   H1296     1.0  0.49581  0.01561  0.68878  1.0000
  C   C739      1.0  0.80393  0.32926  0.71232  1.0000
  H   H1297     1.0  0.69708  0.26084  0.88301  1.0000
  H   H1298     1.0  0.92522  0.32777  0.85766  1.0000
  C   C740      1.0  0.51068  0.06657  0.59519  1.0000
  C   C741      1.0  0.58447  0.24290  0.92303  1.0000
  C   C742      1.0  0.57803  0.11583  0.58201  1.0000
  H   H1299     1.0  0.53980  0.09748  0.54950  1.0000
  C   C743      1.0  0.86630  0.32918  0.89389  1.0000
  H   H1300     1.0  0.57657  0.25629  0.92491  1.0000
  H   H1301     1.0  0.73725  0.00097  0.56199  1.0000
  H   H1302     1.0  0.53776  0.00840  0.83257  1.0000
  H   H1303     1.0  0.70489  0.30391  0.72822  1.0000
  H   H1304     1.0  0.65087  0.18987  0.95094  1.0000
  C   C744      1.0  0.61697  0.04026  0.79144  1.0000
  H   H1305     1.0  0.53534  0.10767  0.61247  1.0000
  H   H1306     1.0  0.99126  0.25475  0.74952  1.0000
  C   C745      1.0  0.57828  0.11072  0.63905  1.0000
  C   C746      1.0  0.61160  0.05498  0.76963  1.0000
  C   C747      1.0  0.60777  0.01308  0.72320  1.0000
  C   C748      1.0  0.53171  0.11088  0.54913  1.0000
  H   H1307     1.0  0.58442  0.14913  0.59170  1.0000
  H   H1308     1.0  0.64321  0.25023  0.97606  1.0000
  H   H1309     1.0  0.60860  0.04924  0.88320  1.0000
  H   H1310     1.0  0.80386  0.22113  0.61337  1.0000
  C   C749      1.0  0.62106  0.02063  0.97459  1.0000
  H   H1311     1.0  0.53764  0.16945  0.59354  1.0000
  C   C750      1.0  0.49641  0.05411  0.54765  1.0000
  C   C751      1.0  0.62380  0.04650  0.82388  1.0000
  H   H1312     1.0  0.97604  0.29845  0.77434  1.0000
  H   H1313     1.0  0.65628  0.01613  0.81738  1.0000
  H   H1314     1.0  0.76102  0.22288  0.75462  1.0000
  H   H1315     1.0  0.52883  0.00121  0.57253  1.0000
  H   H1316     1.0  0.75771  0.15027  0.67053  1.0000
  H   H1317     1.0  0.76855  0.21869  0.58964  1.0000
  H   H1318     1.0  0.77967  0.23918  0.60261  1.0000
  H   H1319     1.0  0.66649  0.20864  0.71093  1.0000
  H   H1320     1.0  0.61738  0.26485  0.95851  1.0000
  C   C752      1.0  0.66217  0.05195  0.88240  1.0000
  H   H1321     1.0  0.77472  0.23745  0.72456  1.0000
  H   H1322     1.0  0.69022  0.31936  0.77158  1.0000
  H   H1323     1.0  0.71061  0.28102  0.97448  1.0000
  H   H1324     1.0  0.54458  0.00966  0.60660  1.0000
  C   C753      1.0  0.97694  0.28867  0.86061  1.0000
  H   H1325     1.0  0.60850  0.13017  0.53334  1.0000
  H   H1326     1.0  0.67675  0.19470  0.98199  1.0000
  C   C754      1.0  0.59938  0.10566  0.51656  1.0000
  H   H1327     1.0  0.71944  0.14863  0.69463  1.0000
  C   C755      1.0  0.52160  0.23816  0.92022  1.0000
  C   C756      1.0  0.50421  0.23804  0.57857  1.0000
  C   C757      1.0  0.53617  0.02866  0.66492  1.0000
  H   H1328     1.0  0.58943  0.06249  0.77755  1.0000
  C   C758      1.0  0.55715  0.11629  0.61280  1.0000
  C   C759      1.0  0.70001  0.31007  0.70614  1.0000
  H   H1329     1.0  0.53157  0.05062  0.93326  1.0000
  H   H1330     1.0  0.67480  0.01562  0.88467  1.0000
  H   H1331     1.0  0.56620  0.25363  0.98300  1.0000
  H   H1332     1.0  0.52413  0.23848  0.89495  1.0000
  H   H1333     1.0  0.71979  0.14246  0.65533  1.0000
  H   H1334     1.0  0.51550  0.25094  0.92867  1.0000
  H   H1335     1.0  0.62661  0.19238  0.66128  1.0000
  H   H1336     1.0  0.62543  0.21431  0.67190  1.0000
  H   H1337     1.0  0.94525  0.23733  0.79871  1.0000
  H   H1338     1.0  0.50042  0.22969  0.92743  1.0000
  H   H1339     1.0  0.55860  0.03780  0.83529  1.0000
  C   C760      1.0  0.50859  0.22739  0.55366  1.0000
  H   H1340     1.0  0.88559  0.32394  0.76346  1.0000
  H   H1341     1.0  0.60001  0.21783  0.96451  1.0000
  H   H1342     1.0  0.53978  0.03780  0.68331  1.0000
  H   H1343     1.0  0.67524  0.21806  0.94460  1.0000
  C   C761      1.0  0.63068  0.04100  0.87825  1.0000
  H   H1344     1.0  0.59455  0.15462  0.55252  1.0000
  H   H1345     1.0  0.66760  0.18679  0.70096  1.0000
  H   H1346     1.0  0.68568  0.04476  0.87798  1.0000
  H   H1347     1.0  0.61082  0.19833  0.69876  1.0000
  H   H1348     1.0  0.80591  0.33036  0.73721  1.0000
  N   N41       1.0  0.56077  0.12237  0.55462  1.0000
  H   H1349     1.0  0.63418  0.06316  0.76773  1.0000
  H   H1350     1.0  0.69947  0.01044  0.54899  1.0000
  H   H1351     1.0  0.64613  0.31158  0.71712  1.0000
  H   H1352     1.0  0.80462  0.22382  0.74160  1.0000
  H   H1353     1.0  0.64754  0.23517  0.89790  1.0000
  C   C762      1.0  0.64551  0.26238  0.90206  1.0000
  C   C763      1.0  0.70753  0.32921  0.70651  1.0000
  N   N42       1.0  0.61683  0.24011  0.93888  1.0000
  N   N43       1.0  0.72814  0.20076  0.67442  1.0000
  C   C764      1.0  0.73587  0.21186  0.70065  1.0000
  C   C765      1.0  0.69237  0.20388  0.66641  1.0000
  C   C766      1.0  0.73327  0.18268  0.68371  1.0000
  C   C767      1.0  0.75097  0.20458  0.64665  1.0000
  C   C768      1.0  0.75490  0.22341  0.63758  1.0000
  C   C769      1.0  0.77261  0.21132  0.71049  1.0000
  C   C770      1.0  0.72013  0.16938  0.66174  1.0000
  C   C771      1.0  0.66502  0.19973  0.69188  1.0000
  C   C772      1.0  0.62986  0.20129  0.68011  1.0000
  C   C773      1.0  0.77819  0.22566  0.60906  1.0000
  C   C774      1.0  0.77846  0.22468  0.73427  1.0000
  C   C775      1.0  0.72997  0.15163  0.67130  1.0000
  H   H1354     1.0  0.72005  0.20831  0.72132  1.0000
  H   H1355     1.0  0.72887  0.22513  0.69570  1.0000
  H   H1356     1.0  0.68883  0.21727  0.66031  1.0000
  H   H1357     1.0  0.68649  0.19698  0.64551  1.0000
  H   H1358     1.0  0.72148  0.18006  0.70680  1.0000
  H   H1359     1.0  0.76047  0.18011  0.68590  1.0000
  H   H1360     1.0  0.77656  0.19941  0.64939  1.0000
  H   H1361     1.0  0.74178  0.19813  0.62641  1.0000
  H   H1362     1.0  0.76580  0.23077  0.65583  1.0000
  H   H1363     1.0  0.73032  0.22899  0.63280  1.0000
  H   H1364     1.0  0.77809  0.19888  0.72075  1.0000
  H   H1365     1.0  0.79100  0.21358  0.69109  1.0000
  C   C776      1.0  0.71553  0.25423  0.98028  1.0000
  H   H1366     1.0  0.58838  0.24059  0.89813  1.0000
  H   H1367     1.0  0.55801  0.21869  0.92546  1.0000
  H   H1368     1.0  0.63975  0.06607  0.92063  1.0000
  C   C777      1.0  0.73901  0.32951  0.75463  1.0000
  H   H1369     1.0  0.74736  0.31630  0.75820  1.0000
  H   H1370     1.0  0.65173  0.27189  0.91912  1.0000
  C   C778      1.0  0.55388  0.23173  0.93349  1.0000
  H   H1371     1.0  0.50250  0.19683  0.58966  1.0000
  H   H1372     1.0  0.85511  0.32012  0.70540  1.0000
  H   H1373     1.0  0.71630  0.30395  0.68822  1.0000
  H   H1374     1.0  0.65970  0.29279  0.69769  1.0000
  H   H1375     1.0  0.92335  0.32956  0.80534  1.0000
  H   H1376     1.0  0.87886  0.31677  0.89555  1.0000
  H   H1377     1.0  0.65795  0.31230  0.67669  1.0000
  H   H1378     1.0  0.59909  0.11971  0.64187  1.0000
  H   H1379     1.0  0.67823  0.01538  0.49707  1.0000
  C   C779      1.0  0.70421  0.00189  0.85134  1.0000
  H   H1380     1.0  0.82431  0.30382  0.71206  1.0000
  C   C780      1.0  0.82929  0.31615  0.70057  1.0000
  C   C781      1.0  0.72847  0.23961  0.96684  1.0000
  H   H1381     1.0  0.50321  0.04633  0.52829  1.0000
  C   C782      1.0  0.65310  0.19798  0.97107  1.0000
  H   H1382     1.0  0.76636  0.32604  0.67940  1.0000
  H   H1383     1.0  0.54677  0.17498  0.55376  1.0000
  H   H1384     1.0  0.72532  0.22770  0.97875  1.0000
  H   H1385     1.0  0.59009  0.00153  0.56890  1.0000
  H   H1386     1.0  0.64451  0.11580  0.49286  1.0000
  H   H1387     1.0  0.53770  0.14510  0.53835  1.0000
  H   H1388     1.0  0.72502  0.32463  0.81682  1.0000
  C   C783      1.0  0.67362  0.00446  0.70581  1.0000
  H   H1389     1.0  0.49824  0.01271  0.64830  1.0000
  C   C784      1.0  0.71114  0.00466  0.56895  1.0000
  H   H1390     1.0  0.83869  0.32722  0.89600  1.0000
  H   H1391     1.0  0.54218  0.03485  0.64258  1.0000
  N   N44       1.0  0.73953  0.33398  0.72106  1.0000
  C   C785      1.0  0.67107  0.01004  0.86216  1.0000
  C   C786      1.0  0.51195  0.04452  0.94850  1.0000
  H   H1392     1.0  0.55382  0.01803  0.66761  1.0000
  H   H1393     1.0  0.50116  0.12680  0.52014  1.0000
  H   H1394     1.0  0.53093  0.11384  0.49903  1.0000
  C   C787      1.0  0.50018  0.02211  0.66640  1.0000
  H   H1395     1.0  0.57889  0.09705  0.51092  1.0000
  H   H1396     1.0  0.49760  0.08849  0.51274  1.0000
  H   H1397     1.0  0.50475  0.19317  0.62997  1.0000
  H   H1398     1.0  0.70834  0.33372  0.68237  1.0000
  H   H1399     1.0  0.72461  0.01139  0.84933  1.0000
  C   C788      1.0  0.98752  0.24541  0.76830  1.0000
  H   H1400     1.0  0.69926  0.00112  0.69924  1.0000
  Fe  Fe89      1.0  0.89701  0.45777  0.31231  1.0000
  S   S175      1.0  0.86715  0.44486  0.35053  1.0000
  S   S176      1.0  0.94934  0.45072  0.29671  1.0000
  Fe  Fe90      1.0  0.84016  0.47953  0.29266  1.0000
  S   S177      1.0  0.80489  0.46818  0.32912  1.0000
  S   S178      1.0  0.82269  0.50067  0.26174  1.0000
  Fe  Fe91      1.0  0.84727  0.47094  0.36062  1.0000
  S   S179      1.0  0.83329  0.47950  0.40919  1.0000
  Fe  Fe92      1.0  0.82748  0.44306  0.31643  1.0000
  S   S180      1.0  0.79519  0.42005  0.30772  1.0000
  S   S181      1.0  0.88098  0.48393  0.32499  1.0000
  S   S182      1.0  0.85887  0.45434  0.27748  1.0000
  Fe  Fe93      1.0  0.89947  0.55394  0.04240  1.0000
  S   S183      1.0  0.88101  0.55811  0.09071  1.0000
  S   S184      1.0  0.95108  0.56000  0.02236  1.0000
  Fe  Fe94      1.0  0.83284  0.54110  0.02313  1.0000
  S   S185      1.0  0.80794  0.54481  0.07017  1.0000
  H   H1401     1.0  0.98275  0.40175  0.35263  1.0000
  Fe  Fe95      1.0  0.83594  0.56967  0.07000  1.0000
  S   S186      1.0  0.82033  0.59415  0.09376  1.0000
  Fe  Fe96      1.0  0.85491  0.53329  0.08775  1.0000
  S   S187      1.0  0.86010  0.51066  0.11977  1.0000
  S   S188      1.0  0.85627  0.56689  0.02171  1.0000
  S   S189      1.0  0.87764  0.52818  0.04071  1.0000
  H   H1402     1.0  0.97873  0.59789  0.04549  1.0000
  C   C789      1.0  0.82068  0.61489  0.07829  1.0000
  C   C790      1.0  0.82309  0.62855  0.09802  1.0000
  C   C791      1.0  0.82216  0.64524  0.08692  1.0000
  C   C792      1.0  0.81801  0.64846  0.05602  1.0000
  C   C793      1.0  0.81588  0.63480  0.03627  1.0000
  C   C794      1.0  0.81747  0.61811  0.04725  1.0000
  H   H1403     1.0  0.82579  0.62618  0.12203  1.0000
  H   H1404     1.0  0.82469  0.65561  0.10217  1.0000
  H   H1405     1.0  0.81283  0.63713  0.01229  1.0000
  H   H1406     1.0  0.81541  0.60775  0.03181  1.0000
  C   C795      1.0  0.85155  0.49528  0.43130  1.0000
  C   C796      1.0  0.83685  0.49879  0.46036  1.0000
  H   H1407     1.0  0.97692  0.49890  0.47041  1.0000
  H   H1408     1.0  0.98842  0.55575  0.12634  1.0000
  C   C797      1.0  0.89267  0.51724  0.43879  1.0000
  C   C798      1.0  0.87973  0.50453  0.42068  1.0000
  H   H1409     1.0  0.81515  0.49167  0.46886  1.0000
  H   H1410     1.0  0.71711  0.58619  0.42961  1.0000
  H   H1411     1.0  0.91406  0.52450  0.43014  1.0000
  H   H1412     1.0  0.89132  0.50198  0.39842  1.0000
  C   C799      1.0  0.83563  0.50391  0.22283  1.0000
  C   C800      1.0  0.82440  0.51827  0.20742  1.0000
  C   C801      1.0  0.83227  0.52077  0.17602  1.0000
  C   C802      1.0  0.85126  0.50883  0.15967  1.0000
  C   C803      1.0  0.86260  0.49451  0.17512  1.0000
  C   C804      1.0  0.85522  0.49216  0.20658  1.0000
  H   H1413     1.0  0.80935  0.52747  0.21980  1.0000
  H   H1414     1.0  0.82333  0.53183  0.16444  1.0000
  H   H1415     1.0  0.87744  0.48524  0.16270  1.0000
  H   H1416     1.0  0.86448  0.48120  0.21820  1.0000
  C   C805      1.0  0.81000  0.39905  0.31022  1.0000
  C   C806      1.0  0.78910  0.38571  0.30239  1.0000
  C   C807      1.0  0.79996  0.36887  0.30447  1.0000
  C   C808      1.0  0.83177  0.36521  0.31475  1.0000
  C   C809      1.0  0.85255  0.37855  0.32257  1.0000
  C   C810      1.0  0.84185  0.39536  0.32021  1.0000
  H   H1417     1.0  0.76443  0.38843  0.29456  1.0000
  H   H1418     1.0  0.78378  0.35877  0.29812  1.0000
  H   H1419     1.0  0.87709  0.37583  0.33068  1.0000
  H   H1420     1.0  0.85813  0.40546  0.32641  1.0000
  H   H1421     1.0  0.80295  0.45570  0.03810  1.0000
  C   C811      1.0  0.96921  0.46695  0.34721  1.0000
  C   C812      1.0  0.97833  0.46094  0.31818  1.0000
  H   H1422     1.0  0.93452  0.59937  0.14508  1.0000
  H   H1423     1.0  0.81096  0.50693  0.06345  1.0000
  H   H1424     1.0  0.94373  0.46540  0.35659  1.0000
  C   C813      1.0  0.92082  0.65186  0.08088  1.0000
  C   C814      1.0  0.96501  0.62466  0.04986  1.0000
  C   C815      1.0  0.89825  0.48025  0.02805  1.0000
  C   C816      1.0  0.98050  0.56149  0.05026  1.0000
  C   C817      1.0  0.97227  0.55664  0.08038  1.0000
  C   C818      1.0  0.97163  0.40007  0.30485  1.0000
  C   C819      1.0  0.72409  0.63814  0.14688  1.0000
  H   H1425     1.0  0.94856  0.55068  0.08632  1.0000
  C   C820      1.0  0.73778  0.50627  0.20578  1.0000
  H   H1426     1.0  0.78042  0.50229  0.01719  1.0000
  H   H1427     1.0  0.86345  0.46404  0.05243  1.0000
  H   H1428     1.0  0.72363  0.46826  0.28771  1.0000
  C   C821      1.0  0.78975  0.55052  0.46825  1.0000
  H   H1429     1.0  0.77667  0.54184  0.45343  1.0000
  H   H1430     1.0  0.90195  0.49373  0.02205  1.0000
  H   H1431     1.0  0.88526  0.60759  0.04452  1.0000
  H   H1432     1.0  0.71025  0.50554  0.21089  1.0000
  C   C822      1.0  0.80086  0.36251  0.39764  1.0000
  H   H1433     1.0  0.72859  0.34031  0.48702  1.0000
  C   C823      1.0  0.91125  0.61075  0.03570  1.0000
  H   H1434     1.0  0.81502  0.39356  0.42551  1.0000
  H   H1435     1.0  0.74639  0.61428  0.16033  1.0000
  H   H1436     1.0  0.77478  0.64688  0.13562  1.0000
  H   H1437     1.0  0.77046  0.35407  0.44703  1.0000
  H   H1438     1.0  0.79391  0.54120  0.40312  1.0000
  H   H1439     1.0  0.90996  0.64820  0.10380  1.0000
  H   H1440     1.0  0.86688  0.48487  0.06809  1.0000
  H   H1441     1.0  0.74282  0.50835  0.12865  1.0000
  H   H1442     1.0  0.96919  0.63573  0.03435  1.0000
  H   H1443     1.0  0.82197  0.52979  0.42595  1.0000
  H   H1444     1.0  0.88944  0.60576  0.46946  1.0000
  H   H1445     1.0  0.91527  0.64514  0.03418  1.0000
  H   H1446     1.0  0.83600  0.47505  0.00829  1.0000
  H   H1447     1.0  0.75161  0.50727  0.07292  1.0000
  H   H1448     1.0  0.74972  0.51249  0.22491  1.0000
  C   C824      1.0  0.73137  0.58233  0.40844  1.0000
  C   C825      1.0  0.84238  0.53680  0.38145  1.0000
  H   H1449     1.0  0.83884  0.54645  0.36347  1.0000
  C   C826      1.0  0.80035  0.49455  0.07121  1.0000
  C   C827      1.0  0.79593  0.44015  0.09199  1.0000
  H   H1450     1.0  0.86479  0.34808  0.40161  1.0000
  H   H1451     1.0  0.89785  0.58984  0.12983  1.0000
  C   C828      1.0  0.93685  0.59726  0.09555  1.0000
  H   H1452     1.0  0.74266  0.51412  0.18496  1.0000
  H   H1453     1.0  0.71341  0.57689  0.39284  1.0000
  C   C829      1.0  0.82013  0.54059  0.40992  1.0000
  C   C830      1.0  0.71126  0.33583  0.34109  1.0000
  H   H1454     1.0  0.79455  0.40641  0.39800  1.0000
  C   C831      1.0  0.98428  0.61001  0.03396  1.0000
  H   H1455     1.0  0.93311  0.62309  0.10648  1.0000
  H   H1456     1.0  0.78510  0.46545  0.10487  1.0000
  H   H1457     1.0  0.76552  0.64305  0.17464  1.0000
  H   H1458     1.0  0.77053  0.56553  0.39368  1.0000
  H   H1459     1.0  0.98832  0.53744  0.37936  1.0000
  H   H1460     1.0  0.95081  0.48826  0.28037  1.0000
  H   H1461     1.0  0.74323  0.59357  0.39716  1.0000
  H   H1462     1.0  0.83751  0.56638  0.40722  1.0000
  N   N45       1.0  0.80794  0.56428  0.45002  1.0000
  H   H1463     1.0  0.80212  0.43652  0.11550  1.0000
  H   H1464     1.0  0.91957  0.47608  0.04149  1.0000
  C   C832      1.0  0.86524  0.47763  0.04689  1.0000
  H   H1465     1.0  0.81264  0.43304  0.07574  1.0000
  C   C833      1.0  0.80721  0.39418  0.40168  1.0000
  C   C834      1.0  0.92206  0.61487  0.08946  1.0000
  H   H1466     1.0  0.83523  0.59873  0.45029  1.0000
  C   C835      1.0  0.99297  0.50845  0.48096  1.0000
  H   H1467     1.0  0.82085  0.33738  0.44183  1.0000
  H   H1468     1.0  0.77280  0.34781  0.35095  1.0000
  H   H1469     1.0  0.89453  0.61434  0.09557  1.0000
  C   C836      1.0  0.99498  0.55938  0.10299  1.0000
  H   H1470     1.0  0.81715  0.49020  0.08887  1.0000
  H   H1471     1.0  0.72236  0.47937  0.23919  1.0000
  C   C837      1.0  0.94616  0.50125  0.27214  1.0000
  H   H1472     1.0  0.88307  0.63725  0.05969  1.0000
  H   H1473     1.0  0.78275  0.51752  0.11673  1.0000
  H   H1474     1.0  0.70208  0.66401  0.18525  1.0000
  C   C838      1.0  0.83500  0.48318  0.02863  1.0000
  C   C839      1.0  0.77569  0.48880  0.02295  1.0000
  H   H1475     1.0  0.97444  0.52140  0.42614  1.0000
  H   H1476     1.0  0.93640  0.57819  0.13127  1.0000
  H   H1477     1.0  0.94036  0.50941  0.29200  1.0000
  N   N46       1.0  0.75812  0.45963  0.22775  1.0000
  C   C840      1.0  0.75703  0.45219  0.25954  1.0000
  C   C841      1.0  0.79372  0.45876  0.21428  1.0000
  C   C842      1.0  0.74891  0.47799  0.23050  1.0000
  C   C843      1.0  0.73402  0.45125  0.20733  1.0000
  C   C844      1.0  0.72625  0.43234  0.21358  1.0000
  C   C845      1.0  0.72392  0.45523  0.27895  1.0000
  C   C846      1.0  0.75255  0.48875  0.20082  1.0000
  C   C847      1.0  0.80914  0.44107  0.21013  1.0000
  C   C848      1.0  0.84528  0.44217  0.19671  1.0000
  C   C849      1.0  0.70759  0.42472  0.18766  1.0000
  C   C850      1.0  0.72046  0.44337  0.30650  1.0000
  H   H1478     1.0  0.77773  0.45746  0.27247  1.0000
  H   H1479     1.0  0.76217  0.43852  0.25926  1.0000
  H   H1480     1.0  0.79571  0.46463  0.19122  1.0000
  H   H1481     1.0  0.81055  0.46612  0.22852  1.0000
  H   H1482     1.0  0.76419  0.48408  0.24770  1.0000
  H   H1483     1.0  0.70914  0.45764  0.20874  1.0000
  H   H1484     1.0  0.74316  0.45276  0.18306  1.0000
  H   H1485     1.0  0.71004  0.43078  0.23475  1.0000
  H   H1486     1.0  0.74907  0.42476  0.21658  1.0000
  H   H1487     1.0  0.70162  0.45365  0.26530  1.0000
  H   H1488     1.0  0.73962  0.48278  0.18207  1.0000
  H   H1489     1.0  0.77937  0.49052  0.19355  1.0000
  H   H1490     1.0  0.80947  0.43409  0.23211  1.0000
  H   H1491     1.0  0.79500  0.43386  0.19370  1.0000
  H   H1492     1.0  0.84616  0.44835  0.17389  1.0000
  H   H1493     1.0  0.86126  0.44938  0.21176  1.0000
  H   H1494     1.0  0.85594  0.42934  0.19434  1.0000
  H   H1495     1.0  0.70149  0.41139  0.19319  1.0000
  H   H1496     1.0  0.68377  0.43158  0.18442  1.0000
  H   H1497     1.0  0.72347  0.42517  0.16611  1.0000
  H   H1498     1.0  0.74150  0.44529  0.32161  1.0000
  H   H1499     1.0  0.69657  0.44594  0.31975  1.0000
  H   H1500     1.0  0.72035  0.43008  0.29918  1.0000
  H   H1501     1.0  0.84003  0.49621  0.02015  1.0000
  H   H1502     1.0  0.79820  0.58618  0.42226  1.0000
  H   H1503     1.0  0.92391  0.50100  0.25802  1.0000
  H   H1504     1.0  0.86657  0.58385  0.43699  1.0000
  C   C851      1.0  0.93400  0.40181  0.31261  1.0000
  H   H1505     1.0  0.73407  0.35510  0.42610  1.0000
  H   H1506     1.0  0.82985  0.39364  0.38586  1.0000
  C   C852      1.0  0.86304  0.33476  0.40911  1.0000
  H   H1507     1.0  0.77078  0.58396  0.45485  1.0000
  C   C853      1.0  0.80113  0.45902  0.08721  1.0000
  C   C854      1.0  0.79165  0.46475  0.05482  1.0000
  H   H1508     1.0  0.77450  0.38195  0.37225  1.0000
  C   C855      1.0  0.73426  0.61996  0.14052  1.0000
  H   H1509     1.0  0.75142  0.65880  0.09568  1.0000
  H   H1510     1.0  0.92391  0.59838  0.03388  1.0000
  C   C856      1.0  0.78410  0.57663  0.43648  1.0000
  H   H1511     1.0  0.97012  0.52049  0.24425  1.0000
  C   C857      1.0  0.90846  0.61801  0.00304  1.0000
  C   C858      1.0  0.91066  0.63895  0.05685  1.0000
  H   H1512     1.0  0.92696  0.41523  0.31523  1.0000
  H   H1513     1.0  0.78105  0.49674  0.13362  1.0000
  N   N47       1.0  0.92795  0.62207  0.05767  1.0000
  C   C859      1.0  0.77462  0.47924  0.99248  1.0000
  C   C860      1.0  0.92566  0.59085  0.12742  1.0000
  H   H1514     1.0  0.82751  0.46191  0.09166  1.0000
  C   C861      1.0  0.76532  0.49809  0.08689  1.0000
  H   H1515     1.0  0.69805  0.34809  0.34034  1.0000
  H   H1516     1.0  0.96468  0.59782  0.09451  1.0000
  H   H1517     1.0  0.83557  0.52434  0.37250  1.0000
  H   H1518     1.0  0.98527  0.42088  0.33182  1.0000
  C   C862      1.0  0.84984  0.51147  0.47848  1.0000
  C   C863      1.0  0.75663  0.34793  0.37241  1.0000
  C   C864      1.0  0.97668  0.50785  0.25313  1.0000
  N   N48       1.0  0.80078  0.48251  0.04502  1.0000
  H   H1519     1.0  0.73799  0.66210  0.20677  1.0000
  C   C865      1.0  0.83148  0.55687  0.42549  1.0000
  C   C866      1.0  0.75793  0.56926  0.41567  1.0000
  H   H1520     1.0  0.70532  0.63805  0.16644  1.0000
  C   C867      1.0  0.78317  0.37982  0.39558  1.0000
  H   H1521     1.0  0.89846  0.47289  0.00677  1.0000
  C   C868      1.0  0.82910  0.57370  0.47166  1.0000
  H   H1522     1.0  0.74212  0.35980  0.37198  1.0000
  H   H1523     1.0  0.74998  0.48649  0.08936  1.0000
  H   H1524     1.0  0.75195  0.61932  0.12014  1.0000
  H   H1525     1.0  0.80829  0.54251  0.47983  1.0000
  H   H1526     1.0  0.85607  0.55353  0.43497  1.0000
  C   C869      1.0  0.75509  0.64884  0.15404  1.0000
  H   H1527     1.0  0.98668  0.47864  0.38736  1.0000
  H   H1528     1.0  0.97812  0.62779  0.07077  1.0000
  H   H1529     1.0  0.86925  0.53645  0.38682  1.0000
  H   H1530     1.0  0.76405  0.46272  0.05431  1.0000
  H   H1531     1.0  0.74469  0.55825  0.42625  1.0000
  H   H1532     1.0  0.80914  0.65786  0.18854  1.0000
  H   H1533     1.0  0.94850  0.65269  0.08178  1.0000
  C   C870      1.0  0.87776  0.52083  0.46771  1.0000
  H   H1534     1.0  0.71168  0.61243  0.13602  1.0000
  H   H1535     1.0  0.91969  0.39654  0.29398  1.0000
  H   H1536     1.0  0.98086  0.49948  0.23344  1.0000
  S   S190      1.0  0.89429  0.53743  0.48899  1.0000
  S   S191      1.0  0.84665  0.34435  0.31977  1.0000
  H   H1537     1.0  0.97694  0.38656  0.30131  1.0000
  H   H1538     1.0  0.71184  0.64295  0.12649  1.0000
  C   C871      1.0  0.75712  0.34749  0.42904  1.0000
  H   H1539     1.0  0.81645  0.36293  0.41780  1.0000
  H   H1540     1.0  0.81892  0.36175  0.37748  1.0000
  H   H1541     1.0  0.92862  0.58791  0.07913  1.0000
  H   H1542     1.0  0.76129  0.38063  0.41216  1.0000
  H   H1543     1.0  0.97709  0.60886  0.01006  1.0000
  H   H1544     1.0  0.97721  0.40694  0.28306  1.0000
  H   H1545     1.0  0.76940  0.43669  0.08878  1.0000
  C   C872      1.0  0.85123  0.58809  0.45720  1.0000
  C   C873      1.0  0.76824  0.50561  0.11841  1.0000
  H   H1546     1.0  0.88816  0.62758  0.00293  1.0000
  H   H1547     1.0  0.92675  0.39488  0.33404  1.0000
  H   H1548     1.0  0.74980  0.48825  0.03364  1.0000
  H   H1549     1.0  0.69626  0.33767  0.46004  1.0000
  H   H1550     1.0  0.98026  0.52073  0.47757  1.0000
  C   C874      1.0  0.99227  0.40736  0.33050  1.0000
  H   H1551     1.0  0.81320  0.57961  0.49008  1.0000
  N   N49       1.0  0.77833  0.34723  0.39948  1.0000
  C   C875      1.0  0.87542  0.59489  0.47979  1.0000
  H   H1552     1.0  0.72901  0.33495  0.32082  1.0000
  H   H1553     1.0  0.89381  0.58505  0.48560  1.0000
  H   H1554     1.0  0.84583  0.56480  0.48344  1.0000
  H   H1555     1.0  0.77291  0.46548  0.99642  1.0000
  C   C876      1.0  0.99345  0.47448  0.36455  1.0000
  H   H1556     1.0  0.74275  0.56377  0.48198  1.0000
  H   H1557     1.0  0.93222  0.62411  0.99458  1.0000
  N   N50       1.0  0.74886  0.66733  0.15876  1.0000
  H   H1558     1.0  0.71073  0.33504  0.38961  1.0000
  Fe  Fe97      1.0  0.89376  0.45622  0.79191  1.0000
  S   S192      1.0  0.87273  0.44002  0.83025  1.0000
  S   S193      1.0  0.94599  0.45377  0.77119  1.0000
  Fe  Fe98      1.0  0.82953  0.47574  0.78562  1.0000
  S   S194      1.0  0.80213  0.46083  0.82352  1.0000
  S   S195      1.0  0.81024  0.49927  0.76253  1.0000
  Fe  Fe99      1.0  0.84967  0.46407  0.84871  1.0000
  S   S196      1.0  0.85845  0.47002  0.89852  1.0000
  Fe  Fe100     1.0  0.82746  0.43787  0.80236  1.0000
  S   S197      1.0  0.80614  0.41294  0.78609  1.0000
  S   S198      1.0  0.87499  0.48024  0.81215  1.0000
  S   S199      1.0  0.85050  0.45289  0.76260  1.0000
  Fe  Fe101     1.0  0.89568  0.56184  0.59528  1.0000
  S   S200      1.0  0.84301  0.56565  0.61440  1.0000
  S   S201      1.0  0.93961  0.56910  0.62199  1.0000
  Fe  Fe102     1.0  0.87428  0.54608  0.53601  1.0000
  S   S202      1.0  0.82002  0.54878  0.55105  1.0000
  H   H1559     1.0  0.88612  0.36092  0.78197  1.0000
  Fe  Fe103     1.0  0.83348  0.57474  0.56681  1.0000
  S   S203      1.0  0.80526  0.59790  0.55069  1.0000
  Fe  Fe104     1.0  0.83517  0.53951  0.59712  1.0000
  S   S204      1.0  0.81035  0.51703  0.62159  1.0000
  S   S205      1.0  0.88691  0.57251  0.54911  1.0000
  S   S206      1.0  0.88876  0.53523  0.58089  1.0000
  H   H1560     1.0  0.77347  0.56402  0.51025  1.0000
  C   C877      1.0  0.81314  0.61872  0.56287  1.0000
  C   C878      1.0  0.83239  0.62188  0.58782  1.0000
  C   C879      1.0  0.83689  0.63849  0.59760  1.0000
  C   C880      1.0  0.82259  0.65220  0.58243  1.0000
  C   C881      1.0  0.80408  0.64908  0.55699  1.0000
  C   C882      1.0  0.79919  0.63243  0.54744  1.0000
  H   H1561     1.0  0.84322  0.61150  0.59998  1.0000
  H   H1562     1.0  0.85124  0.64072  0.61731  1.0000
  C   C883      1.0  0.74532  0.54118  0.50847  1.0000
  H   H1563     1.0  0.78421  0.63016  0.52815  1.0000
  C   C884      1.0  0.84583  0.48831  0.91894  1.0000
  C   C885      1.0  0.81631  0.49701  0.91316  1.0000
  H   H1564     1.0  0.71076  0.39160  0.73323  1.0000
  H   H1565     1.0  0.72191  0.34686  0.80947  1.0000
  C   C886      1.0  0.85406  0.50698  0.96181  1.0000
  C   C887      1.0  0.86464  0.49343  0.94334  1.0000
  H   H1566     1.0  0.80147  0.49318  0.89461  1.0000
  H   H1567     1.0  0.75461  0.38632  0.72967  1.0000
  H   H1568     1.0  0.89601  0.40271  0.83517  1.0000
  H   H1569     1.0  0.88756  0.48685  0.94796  1.0000
  C   C888      1.0  0.81596  0.50409  0.72316  1.0000
  C   C889      1.0  0.81946  0.49152  0.70136  1.0000
  C   C890      1.0  0.81895  0.49568  0.67015  1.0000
  C   C891      1.0  0.81607  0.51247  0.66043  1.0000
  C   C892      1.0  0.81373  0.52508  0.68222  1.0000
  C   C893      1.0  0.81329  0.52088  0.71343  1.0000
  H   H1570     1.0  0.82077  0.47853  0.70857  1.0000
  H   H1571     1.0  0.82017  0.48582  0.65345  1.0000
  H   H1572     1.0  0.81060  0.53800  0.67502  1.0000
  H   H1573     1.0  0.81022  0.53068  0.73013  1.0000
  C   C894      1.0  0.80583  0.39255  0.80329  1.0000
  C   C895      1.0  0.80661  0.37833  0.78454  1.0000
  C   C896      1.0  0.80285  0.36199  0.79711  1.0000
  C   C897      1.0  0.79704  0.35969  0.82855  1.0000
  C   C898      1.0  0.79718  0.37386  0.84731  1.0000
  C   C899      1.0  0.80200  0.39016  0.83484  1.0000
  H   H1574     1.0  0.80978  0.38002  0.76013  1.0000
  H   H1575     1.0  0.80369  0.35124  0.78245  1.0000
  H   H1576     1.0  0.79273  0.37227  0.87166  1.0000
  H   H1577     1.0  0.80107  0.40094  0.84956  1.0000
  H   H1578     1.0  0.93183  0.37777  0.79123  1.0000
  H   H1579     1.0  0.74867  0.35537  0.69100  1.0000
  C   C900      1.0  0.97367  0.46046  0.79797  1.0000
  C   C901      1.0  0.96155  0.46454  0.82737  1.0000
  H   H1580     1.0  0.94888  0.45304  0.92274  1.0000
  H   H1581     1.0  0.81128  0.34145  0.70135  1.0000
  H   H1582     1.0  0.93510  0.46346  0.83375  1.0000
  H   H1583     1.0  0.95005  0.52944  0.64906  1.0000
  C   C902      1.0  0.91088  0.36875  0.83619  1.0000
  C   C903      1.0  0.97493  0.56036  0.60321  1.0000
  C   C904      1.0  0.97271  0.55442  0.57366  1.0000
  H   H1584     1.0  0.89582  0.56397  0.68635  1.0000
  H   H1585     1.0  0.95008  0.38724  0.82330  1.0000
  H   H1586     1.0  0.94956  0.55554  0.56222  1.0000
  N   N51       1.0  0.93457  0.50917  0.70647  1.0000
  C   C905      1.0  0.90597  0.52072  0.69934  1.0000
  C   C906      1.0  0.92195  0.49128  0.70762  1.0000
  C   C907      1.0  0.96458  0.51111  0.68410  1.0000
  C   C908      1.0  0.97572  0.45118  0.92751  1.0000
  H   H1587     1.0  0.91911  0.64927  0.51108  1.0000
  C   C909      1.0  0.96439  0.35387  0.83619  1.0000
  H   H1588     1.0  0.95104  0.52291  0.52733  1.0000
  H   H1589     1.0  0.77055  0.35608  0.72524  1.0000
  C   C910      1.0  0.99021  0.43667  0.90854  1.0000
  H   H1590     1.0  0.97659  0.49894  0.94119  1.0000
  H   H1591     1.0  0.91893  0.59430  0.98002  1.0000
  H   H1592     1.0  0.88314  0.62905  0.53972  1.0000
  H   H1593     1.0  0.88371  0.51793  0.71498  1.0000
  H   H1594     1.0  0.89710  0.51846  0.67629  1.0000
  C   C911      1.0  0.89659  0.46623  0.68243  1.0000
  H   H1595     1.0  0.90084  0.48994  0.72525  1.0000
  C   C912      1.0  0.88521  0.33767  0.75876  1.0000
  H   H1596     1.0  0.88814  0.46134  0.66061  1.0000
  H   H1597     1.0  0.76397  0.53290  0.51902  1.0000
  C   C913      1.0  0.87586  0.33773  0.86332  1.0000
  H   H1598     1.0  0.92218  0.65132  0.58072  1.0000
  C   C914      1.0  0.95743  0.51605  0.65065  1.0000
  C   C915      1.0  0.98886  0.61424  0.63050  1.0000
  H   H1599     1.0  0.72101  0.36392  0.75598  1.0000
  H   H1600     1.0  0.97967  0.49934  0.68366  1.0000
  H   H1601     1.0  0.92263  0.34575  0.88135  1.0000
  C   C916      1.0  0.91728  0.65770  0.55880  1.0000
  C   C917      1.0  0.99101  0.50495  0.51583  1.0000
  C   C918      1.0  0.95633  0.50930  0.53014  1.0000
  H   H1602     1.0  0.94163  0.34708  0.78578  1.0000
  C   C919      1.0  0.95135  0.51361  0.90841  1.0000
  N   N52       1.0  0.92703  0.35165  0.83327  1.0000
  H   H1603     1.0  0.91506  0.40773  0.79803  1.0000
  H   H1604     1.0  0.92262  0.51331  0.75451  1.0000
  H   H1605     1.0  0.89049  0.49177  0.66777  1.0000
  H   H1606     1.0  0.72901  0.38494  0.69698  1.0000
  C   C920      1.0  0.91343  0.53978  0.70214  1.0000
  H   H1607     1.0  0.68539  0.33558  0.71727  1.0000
  H   H1608     1.0  0.91754  0.62270  0.56239  1.0000
  H   H1609     1.0  0.97546  0.36143  0.81669  1.0000
  H   H1610     1.0  0.98942  0.46301  0.92159  1.0000
  H   H1611     1.0  0.88950  0.65931  0.55890  1.0000
  H   H1612     1.0  0.95540  0.52633  0.73828  1.0000
  H   H1613     1.0  0.96424  0.51079  0.79811  1.0000
  H   H1614     1.0  0.97412  0.47307  0.87146  1.0000
  H   H1615     1.0  0.60600  0.48398  0.76315  1.0000
  H   H1616     1.0  0.93759  0.62005  0.64594  1.0000
  N   N53       1.0  0.70593  0.49594  0.73403  1.0000
  C   C921      1.0  0.72801  0.48078  0.72836  1.0000
  C   C922      1.0  0.69708  0.50327  0.70367  1.0000
  C   C923      1.0  0.72490  0.50841  0.75199  1.0000
  C   C924      1.0  0.67397  0.49131  0.75203  1.0000
  C   C925      1.0  0.65293  0.47711  0.73858  1.0000
  C   C926      1.0  0.73543  0.46985  0.75674  1.0000
  C   C927      1.0  0.72659  0.51119  0.68394  1.0000
  C   C928      1.0  0.71482  0.51774  0.65351  1.0000
  C   C929      1.0  0.75703  0.45468  0.74768  1.0000
  H   H1617     1.0  0.75286  0.48473  0.71810  1.0000
  H   H1618     1.0  0.71744  0.47249  0.71111  1.0000
  H   H1619     1.0  0.68622  0.49340  0.68950  1.0000
  H   H1620     1.0  0.67698  0.51289  0.70667  1.0000
  H   H1621     1.0  0.74983  0.51098  0.74059  1.0000
  H   H1622     1.0  0.66773  0.46543  0.73530  1.0000
  H   H1623     1.0  0.64361  0.48105  0.71628  1.0000
  H   H1624     1.0  0.74929  0.47714  0.77329  1.0000
  H   H1625     1.0  0.71210  0.46497  0.76851  1.0000
  H   H1626     1.0  0.73775  0.52196  0.69548  1.0000
  H   H1627     1.0  0.74655  0.50181  0.67887  1.0000
  H   H1628     1.0  0.73639  0.52348  0.64010  1.0000
  H   H1629     1.0  0.70491  0.50732  0.64008  1.0000
  H   H1630     1.0  0.69515  0.52748  0.65714  1.0000
  H   H1631     1.0  0.63040  0.46822  0.78217  1.0000
  H   H1632     1.0  0.74388  0.44655  0.73185  1.0000
  H   H1633     1.0  0.78135  0.45883  0.73660  1.0000
  H   H1634     1.0  0.76233  0.44711  0.76827  1.0000
  H   H1635     1.0  0.75370  0.54004  0.75911  1.0000
  H   H1636     1.0  0.69476  0.36241  0.72370  1.0000
  H   H1637     1.0  0.79288  0.65945  0.54509  1.0000
  H   H1638     1.0  0.73040  0.50308  0.77468  1.0000
  C   C930      1.0  0.74457  0.48474  0.97469  1.0000
  C   C931      1.0  0.91426  0.34059  0.85957  1.0000
  C   C932      1.0  0.62238  0.47280  0.75973  1.0000
  C   C933      1.0  0.88789  0.34742  0.78815  1.0000
  H   H1639     1.0  0.97742  0.44845  0.95220  1.0000
  H   H1640     1.0  0.73808  0.53196  0.79581  1.0000
  H   H1641     1.0  0.95022  0.62889  0.60918  1.0000
  H   H1642     1.0  0.94089  0.60670  0.61323  1.0000
  H   H1643     1.0  0.95534  0.50628  0.55489  1.0000
  H   H1644     1.0  0.88358  0.36816  0.83264  1.0000
  C   C934      1.0  0.88846  0.55055  0.68545  1.0000
  H   H1645     1.0  0.79740  0.48195  0.97765  1.0000
  C   C935      1.0  0.92748  0.64496  0.53351  1.0000
  H   H1646     1.0  0.91624  0.45772  0.69083  1.0000
  H   H1647     1.0  0.86289  0.54914  0.69637  1.0000
  S   S207      1.0  0.78723  0.33971  0.84546  1.0000
  H   H1648     1.0  0.70052  0.53175  0.73654  1.0000
  H   H1649     1.0  0.87488  0.46618  0.69926  1.0000
  H   H1650     1.0  0.98204  0.52092  0.69175  1.0000
  H   H1651     1.0  0.68443  0.52386  0.77306  1.0000
  C   C936      1.0  0.73068  0.53746  0.77381  1.0000
  H   H1652     1.0  0.97578  0.42524  0.91548  1.0000
  H   H1653     1.0  0.67932  0.48784  0.77590  1.0000
  H   H1654     1.0  0.91238  0.37339  0.85987  1.0000
  H   H1655     1.0  0.91929  0.61886  0.52211  1.0000
  H   H1656     1.0  0.60754  0.46274  0.74951  1.0000
  H   H1657     1.0  0.96050  0.48944  0.75824  1.0000
  C   C937      1.0  0.97174  0.50177  0.75164  1.0000
  C   C938      1.0  0.98504  0.50911  0.78057  1.0000
  H   H1658     1.0  0.93689  0.50865  0.64156  1.0000
  C   C939      1.0  0.70743  0.52553  0.75799  1.0000
  C   C940      1.0  0.90266  0.39763  0.81222  1.0000
  C   C941      1.0  0.74624  0.35250  0.71591  1.0000
  C   C942      1.0  0.98371  0.46990  0.84881  1.0000
  H   H1659     1.0  0.71762  0.54955  0.77840  1.0000
  H   H1660     1.0  0.65706  0.50239  0.75407  1.0000
  H   H1661     1.0  0.93909  0.54302  0.69299  1.0000
  C   C943      1.0  0.98538  0.33747  0.83720  1.0000
  H   H1662     1.0  0.95120  0.52652  0.89858  1.0000
  H   H1663     1.0  0.78175  0.51647  0.92821  1.0000
  H   H1664     1.0  0.74556  0.47846  0.95226  1.0000
  C   C944      1.0  0.82362  0.51510  0.95709  1.0000
  C   C945      1.0  0.80516  0.51021  0.93231  1.0000
  C   C946      1.0  0.76258  0.55629  0.49253  1.0000
  H   H1665     1.0  0.87928  0.39396  0.80141  1.0000
  H   H1666     1.0  0.96927  0.36106  0.85708  1.0000
  H   H1667     1.0  0.98572  0.43956  0.88437  1.0000
  H   H1668     1.0  0.89838  0.60991  0.95752  1.0000
  C   C947      1.0  0.91088  0.62788  0.53997  1.0000
  H   H1669     1.0  0.72066  0.48129  0.98731  1.0000
  C   C948      1.0  0.91041  0.48402  0.67749  1.0000
  H   H1670     1.0  0.98922  0.60369  0.64732  1.0000
  H   H1671     1.0  0.86151  0.59913  0.50088  1.0000
  H   H1672     1.0  0.97142  0.52075  0.95055  1.0000
  C   C949      1.0  0.92623  0.38261  0.81449  1.0000
  H   H1673     1.0  0.86137  0.34956  0.86268  1.0000
  H   H1674     1.0  0.92618  0.51103  0.91952  1.0000
  C   C950      1.0  0.95217  0.61768  0.62419  1.0000
  H   H1675     1.0  0.88821  0.54697  0.66113  1.0000
  C   C951      1.0  0.92140  0.34348  0.80310  1.0000
  H   H1676     1.0  0.97764  0.66109  0.57217  1.0000
  H   H1677     1.0  0.68471  0.33475  0.81954  1.0000
  C   C952      1.0  0.97812  0.51193  0.93185  1.0000
  H   H1678     1.0  0.91150  0.54338  0.72649  1.0000
  S   S208      1.0  0.80647  0.53040  0.98275  1.0000
  H   H1679     1.0  0.95594  0.50445  0.88980  1.0000
  H   H1680     1.0  0.93645  0.50203  0.51941  1.0000
  C   C953      1.0  0.94496  0.51339  0.73805  1.0000
  H   H1681     1.0  0.86913  0.51090  0.98009  1.0000
  H   H1682     1.0  0.74519  0.49854  0.97059  1.0000
  H   H1683     1.0  0.94187  0.48252  0.71468  1.0000
  C   C954      1.0  0.72937  0.38300  0.72201  1.0000
  H   H1684     1.0  0.95508  0.64309  0.53178  1.0000
  C   C955      1.0  0.72052  0.36483  0.73081  1.0000
  H   H1685     1.0  0.93206  0.48306  0.66069  1.0000
  H   H1686     1.0  0.90626  0.34094  0.74218  1.0000
  H   H1687     1.0  0.72718  0.54559  0.52669  1.0000
  C   C956      1.0  0.89964  0.60438  0.98073  1.0000
  H   H1688     1.0  0.99536  0.49142  0.52053  1.0000
  H   H1689     1.0  0.99333  0.49972  0.73513  1.0000
  H   H1690     1.0  0.86588  0.34422  0.80345  1.0000
  H   H1691     1.0  0.68882  0.34142  0.76490  1.0000
  H   H1692     1.0  0.87335  0.33715  0.91304  1.0000
  H   H1693     1.0  0.86129  0.34093  0.74846  1.0000
  H   H1694     1.0  0.83817  0.51401  0.50073  1.0000
  H   H1695     1.0  0.98329  0.51818  0.60607  1.0000
  H   H1696     1.0  0.87477  0.59884  0.98751  1.0000
  C   C957      1.0  0.98861  0.51375  0.62937  1.0000
  H   H1697     1.0  0.75792  0.33714  0.76590  1.0000
  C   C958      1.0  0.70947  0.33453  0.80674  1.0000
  H   H1698     1.0  0.73146  0.53378  0.49200  1.0000
  Fe  Fe105     1.0  0.64356  0.93445  0.32839  1.0000
  S   S209      1.0  0.59702  0.94449  0.30764  1.0000
  S   S210      1.0  0.66395  0.91014  0.30706  1.0000
  Fe  Fe106     1.0  0.64556  0.96390  0.37324  1.0000
  S   S211      1.0  0.59927  0.97542  0.35570  1.0000
  H   H1699     1.0  0.71318  0.83744  0.43645  1.0000
  Fe  Fe107     1.0  0.57971  0.94917  0.35604  1.0000
  S   S212      1.0  0.52714  0.94302  0.37305  1.0000
  Fe  Fe108     1.0  0.62095  0.97003  0.30840  1.0000
  C   C959      1.0  0.50026  0.95340  0.34910  1.0000
  S   S213      1.0  0.62430  0.93763  0.37698  1.0000
  S   S214      1.0  0.66927  0.95994  0.32583  1.0000
  Fe  Fe109     1.0  0.82238  0.69483  0.06277  1.0000
  S   S215      1.0  0.83871  0.70068  0.10944  1.0000
  H   H1700     1.0  0.70029  0.83043  0.20540  1.0000
  Fe  Fe110     1.0  0.81909  0.73208  0.04422  1.0000
  S   S216      1.0  0.83644  0.74064  0.08991  1.0000
  H   H1701     1.0  0.63503  0.79432  0.15030  1.0000
  Fe  Fe111     1.0  0.87429  0.71942  0.08600  1.0000
  S   S217      1.0  0.92660  0.71929  0.10586  1.0000
  Fe  Fe112     1.0  0.80013  0.72148  0.11059  1.0000
  S   S218      1.0  0.76178  0.72370  0.15169  1.0000
  S   S219      1.0  0.85990  0.71241  0.03905  1.0000
  S   S220      1.0  0.78086  0.71412  0.06514  1.0000
  Fe  Fe113     1.0  0.66865  0.80944  0.33843  1.0000
  S   S221      1.0  0.63230  0.79107  0.36108  1.0000
  S   S222      1.0  0.66331  0.83509  0.36128  1.0000
  Fe  Fe114     1.0  0.69863  0.78164  0.29610  1.0000
  S   S223      1.0  0.66370  0.76181  0.31668  1.0000
  S   S224      1.0  0.73899  0.77839  0.25712  1.0000
  Fe  Fe115     1.0  0.62341  0.78179  0.31448  1.0000
  S   S225      1.0  0.57315  0.78020  0.29180  1.0000
  Fe  Fe116     1.0  0.67580  0.77296  0.36211  1.0000
  S   S226      1.0  0.68126  0.75965  0.40845  1.0000
  S   S227      1.0  0.65782  0.80104  0.29143  1.0000
  S   S228      1.0  0.71262  0.79179  0.34170  1.0000
  C   C960      1.0  0.77103  0.74468  0.46617  1.0000
  C   C961      1.0  0.77655  0.74985  0.43550  1.0000
  C   C962      1.0  0.74956  0.75440  0.41749  1.0000
  C   C963      1.0  0.71650  0.75392  0.42991  1.0000
  C   C964      1.0  0.71099  0.74881  0.46059  1.0000
  H   H1702     1.0  0.68559  0.74830  0.47050  1.0000
  H   H1703     1.0  0.80192  0.75019  0.42551  1.0000
  H   H1704     1.0  0.75431  0.75809  0.39390  1.0000
  H   H1705     1.0  0.77147  0.67890  0.09772  1.0000
  H   H1706     1.0  0.73770  0.67772  0.05325  1.0000
  C   C965      1.0  0.75681  0.73890  0.18122  1.0000
  C   C966      1.0  0.77644  0.75344  0.18178  1.0000
  C   C967      1.0  0.77084  0.76525  0.20527  1.0000
  C   C968      1.0  0.74568  0.76272  0.22865  1.0000
  C   C969      1.0  0.72630  0.74810  0.22826  1.0000
  C   C970      1.0  0.73166  0.73639  0.20460  1.0000
  H   H1707     1.0  0.79585  0.75565  0.16403  1.0000
  H   H1708     1.0  0.78611  0.77646  0.20528  1.0000
  H   H1709     1.0  0.70702  0.74586  0.24611  1.0000
  H   H1710     1.0  0.71606  0.72534  0.20434  1.0000
  C   C971      1.0  0.52567  0.77899  0.34059  1.0000
  C   C972      1.0  0.53201  0.78169  0.30935  1.0000
  H   H1711     1.0  0.54612  0.77561  0.35458  1.0000
  H   H1712     1.0  0.79160  0.79038  0.35353  1.0000
  C   C973      1.0  0.97622  0.72363  0.05901  1.0000
  C   C974      1.0  0.96864  0.72071  0.09006  1.0000
  H   H1713     1.0  0.49849  0.87009  0.27021  1.0000
  H   H1714     1.0  0.94784  0.77840  0.08920  1.0000
  H   H1715     1.0  0.95606  0.72480  0.04364  1.0000
  H   H1716     1.0  0.93712  0.72012  0.48516  1.0000
  C   C975      1.0  0.59496  0.78880  0.18447  1.0000
  C   C976      1.0  0.63163  0.76189  0.23256  1.0000
  H   H1717     1.0  0.58266  0.77755  0.19520  1.0000
  H   H1718     1.0  0.69264  0.81557  0.46691  1.0000
  H   H1719     1.0  0.60911  0.74620  0.26876  1.0000
  C   C977      1.0  0.58330  0.99585  0.03953  1.0000
  H   H1720     1.0  0.58933  0.85671  0.37908  1.0000
  H   H1721     1.0  0.78015  0.85664  0.43228  1.0000
  H   H1722     1.0  0.59799  0.82440  0.25983  1.0000
  C   C978      1.0  0.66313  0.88935  0.32258  1.0000
  C   C979      1.0  0.65601  0.88604  0.35359  1.0000
  C   C980      1.0  0.65621  0.86938  0.36493  1.0000
  C   C981      1.0  0.66323  0.85579  0.34547  1.0000
  C   C982      1.0  0.67007  0.85906  0.31444  1.0000
  C   C983      1.0  0.67014  0.87574  0.30313  1.0000
  H   H1723     1.0  0.65089  0.89636  0.36890  1.0000
  H   H1724     1.0  0.65115  0.86704  0.38902  1.0000
  H   H1725     1.0  0.67593  0.84879  0.29922  1.0000
  H   H1726     1.0  0.67593  0.87814  0.27916  1.0000
  H   H1727     1.0  0.73972  0.99911  0.32049  1.0000
  C   C984      1.0  0.79257  0.79285  0.47778  1.0000
  H   H1728     1.0  0.53986  0.96657  0.32340  1.0000
  C   C985      1.0  0.56897  0.85256  0.39560  1.0000
  C   C986      1.0  0.68926  0.80457  0.45222  1.0000
  C   C987      1.0  0.99532  0.71930  0.10966  1.0000
  H   H1729     1.0  0.59769  0.74050  0.23124  1.0000
  H   H1730     1.0  0.66453  0.99446  0.02867  1.0000
  H   H1731     1.0  0.77434  0.78724  0.40789  1.0000
  H   H1732     1.0  0.61828  0.77392  0.14932  1.0000
  H   H1733     1.0  0.68221  0.98621  0.09450  1.0000
  H   H1734     1.0  0.68844  0.79309  0.46692  1.0000
  C   C988      1.0  0.74705  0.67226  0.10045  1.0000
  H   H1735     1.0  0.56192  0.78842  0.14652  1.0000
  C   C989      1.0  0.52341  0.89482  0.30573  1.0000
  C   C990      1.0  0.74665  0.98793  0.36407  1.0000
  H   H1736     1.0  0.91535  0.67838  0.09122  1.0000
  C   C991      1.0  0.78230  0.67599  0.16039  1.0000
  H   H1737     1.0  0.77366  0.98548  0.35846  1.0000
  H   H1738     1.0  0.53442  0.91649  0.26206  1.0000
  H   H1739     1.0  0.74340  0.99088  0.38868  1.0000
  N   N54       1.0  0.65567  0.77692  0.18261  1.0000
  S   S229      1.0  0.80952  0.75084  0.00524  1.0000
  C   C992      1.0  0.73074  0.67508  0.13282  1.0000
  H   H1740     1.0  0.52819  0.93999  0.22340  1.0000
  H   H1741     1.0  0.62818  0.75337  0.18593  1.0000
  H   H1742     1.0  0.70422  0.67071  0.13332  1.0000
  H   H1743     1.0  0.80443  0.80119  0.42183  1.0000
  C   C993      1.0  0.52158  0.98703  0.41133  1.0000
  H   H1744     1.0  0.82811  0.80110  0.36651  1.0000
  C   C994      1.0  0.62160  0.99664  0.23682  1.0000
  C   C995      1.0  0.56933  0.79712  0.16452  1.0000
  H   H1745     1.0  0.61355  0.98505  0.09595  1.0000
  C   C996      1.0  0.68060  0.80660  0.19086  1.0000
  H   H1746     1.0  0.60069  0.79787  0.20233  1.0000
  H   H1747     1.0  0.70354  0.80472  0.17587  1.0000
  H   H1748     1.0  0.66119  0.81286  0.17762  1.0000
  H   H1749     1.0  0.53306  0.99912  0.19186  1.0000
  H   H1750     1.0  0.52640  0.90352  0.35278  1.0000
  H   H1751     1.0  0.66720  0.93439  0.99995  1.0000
  H   H1752     1.0  0.93673  0.69918  0.47015  1.0000
  C   C997      1.0  0.53775  0.84670  0.37897  1.0000
  H   H1753     1.0  0.70941  0.81291  0.22992  1.0000
  H   H1754     1.0  0.55158  0.91573  0.32566  1.0000
  C   C998      1.0  0.61865  0.74492  0.24469  1.0000
  C   C999      1.0  0.72461  0.67904  0.07605  1.0000
  C   C1000     1.0  0.64609  0.76067  0.19915  1.0000
  H   H1755     1.0  0.95496  0.75624  0.08337  1.0000
  H   H1756     1.0  0.65710  0.75896  0.12644  1.0000
  H   H1757     1.0  0.70964  0.76834  0.09913  1.0000
  H   H1758     1.0  0.68979  0.78451  0.14478  1.0000
  H   H1759     1.0  0.66839  0.75244  0.20078  1.0000
  H   H1760     1.0  0.52346  0.98587  0.43637  1.0000
  H   H1761     1.0  0.51358  0.88281  0.31554  1.0000
  H   H1762     1.0  0.73534  0.00034  0.07858  1.0000
  C   C1001     1.0  0.64368  0.98670  0.21900  1.0000
  H   H1763     1.0  0.74583  0.69428  0.20175  1.0000
  N   N55       1.0  0.54346  0.83234  0.35730  1.0000
  H   H1764     1.0  0.78636  0.82660  0.44630  1.0000
  C   C1002     1.0  0.56006  0.81771  0.37257  1.0000
  C   C1003     1.0  0.56625  0.83833  0.33082  1.0000
  C   C1004     1.0  0.57161  0.82594  0.30411  1.0000
  C   C1005     1.0  0.74058  0.83785  0.43060  1.0000
  H   H1765     1.0  0.72908  0.68895  0.13542  1.0000
  C   C1006     1.0  0.56206  0.79701  0.41693  1.0000
  C   C1007     1.0  0.59418  0.83363  0.27841  1.0000
  H   H1766     1.0  0.57893  0.84237  0.40997  1.0000
  C   C1008     1.0  0.70116  0.68814  0.22877  1.0000
  C   C1009     1.0  0.65667  0.99052  0.05224  1.0000
  H   H1767     1.0  0.56222  0.80691  0.35690  1.0000
  H   H1768     1.0  0.58646  0.82084  0.37737  1.0000
  H   H1769     1.0  0.55728  0.85047  0.32150  1.0000
  H   H1770     1.0  0.59177  0.84104  0.33856  1.0000
  H   H1771     1.0  0.54759  0.82246  0.29432  1.0000
  H   H1772     1.0  0.58411  0.81436  0.31188  1.0000
  H   H1773     1.0  0.61085  0.77102  0.23499  1.0000
  H   H1774     1.0  0.74635  0.73228  0.99845  1.0000
  C   C1010     1.0  0.72178  0.68776  0.19844  1.0000
  H   H1775     1.0  0.58686  0.80184  0.42293  1.0000
  H   H1776     1.0  0.83082  0.69497  0.18726  1.0000
  H   H1777     1.0  0.74899  0.85728  0.46385  1.0000
  H   H1778     1.0  0.58255  0.84512  0.26904  1.0000
  H   H1779     1.0  0.61911  0.83685  0.28680  1.0000
  H   H1780     1.0  0.65162  0.76594  0.24751  1.0000
  C   C1011     1.0  0.90749  0.66941  0.07383  1.0000
  H   H1781     1.0  0.63914  0.73546  0.24385  1.0000
  H   H1782     1.0  0.58324  0.87139  0.42759  1.0000
  N   N56       1.0  0.63248  0.97598  0.05188  1.0000
  C   C1012     1.0  0.60533  0.98047  0.03051  1.0000
  C   C1013     1.0  0.64925  0.96017  0.04005  1.0000
  C   C1014     1.0  0.61584  0.97300  0.08334  1.0000
  H   H1783     1.0  0.54197  0.89123  0.28704  1.0000
  H   H1784     1.0  0.70746  0.74575  0.10101  1.0000
  H   H1785     1.0  0.66755  0.82177  0.23074  1.0000
  C   C1015     1.0  0.63215  0.95995  0.10451  1.0000
  H   H1786     1.0  0.89958  0.70764  0.48979  1.0000
  C   C1016     1.0  0.78009  0.81124  0.38403  1.0000
  H   H1787     1.0  0.58634  0.89836  0.35770  1.0000
  H   H1788     1.0  0.75503  0.81315  0.37504  1.0000
  C   C1017     1.0  0.61506  0.96007  0.13647  1.0000
  H   H1789     1.0  0.58843  0.96949  0.02790  1.0000
  H   H1790     1.0  0.70264  0.99730  0.45576  1.0000
  H   H1791     1.0  0.66858  0.95569  0.05541  1.0000
  H   H1792     1.0  0.63044  0.94983  0.03987  1.0000
  H   H1793     1.0  0.58956  0.96848  0.08167  1.0000
  H   H1794     1.0  0.79132  0.82369  0.38819  1.0000
  C   C1018     1.0  0.71831  0.80314  0.42744  1.0000
  N   N57       1.0  0.75306  0.80586  0.43847  1.0000
  C   C1019     1.0  0.68504  0.94511  0.99931  1.0000
  C   C1020     1.0  0.70974  0.75726  0.11472  1.0000
  H   H1795     1.0  0.87966  0.66933  0.07426  1.0000
  H   H1796     1.0  0.70812  0.77118  0.17208  1.0000
  H   H1797     1.0  0.77923  0.68985  0.15963  1.0000
  H   H1798     1.0  0.62936  0.94710  0.09544  1.0000
  C   C1021     1.0  0.51333  0.96392  0.32567  1.0000
  H   H1799     1.0  0.65920  0.96235  0.10666  1.0000
  C   C1022     1.0  0.83577  0.68123  0.18741  1.0000
  H   H1800     1.0  0.80482  0.80531  0.47870  1.0000
  H   H1801     1.0  0.98559  0.75525  0.13212  1.0000
  H   H1802     1.0  0.73415  0.75675  0.12569  1.0000
  H   H1803     1.0  0.56585  0.78630  0.40124  1.0000
  H   H1804     1.0  0.68841  0.78414  0.21739  1.0000
  H   H1805     1.0  0.74399  0.83673  0.40561  1.0000
  H   H1806     1.0  0.68035  0.74617  0.15183  1.0000
  H   H1807     1.0  0.65439  0.97554  0.22882  1.0000
  H   H1808     1.0  0.58823  0.95647  0.13578  1.0000
  C   C1023     1.0  0.62679  0.78354  0.16523  1.0000
  C   C1024     1.0  0.95251  0.76621  0.10074  1.0000
  H   H1809     1.0  0.73228  0.97636  0.35962  1.0000
  C   C1025     1.0  0.50486  0.78548  0.29129  1.0000
  H   H1810     1.0  0.56108  0.99741  0.99535  1.0000
  H   H1811     1.0  0.65038  0.79461  0.42496  1.0000
  H   H1812     1.0  0.74873  0.78134  0.46038  1.0000
  C   C1026     1.0  0.55298  0.99731  0.01986  1.0000
  C   C1027     1.0  0.65488  0.98981  0.43966  1.0000
  C   C1028     1.0  0.80281  0.67141  0.18829  1.0000
  H   H1813     1.0  0.70072  0.67188  0.07635  1.0000
  C   C1029     1.0  0.72746  0.66942  0.18778  1.0000
  H   H1814     1.0  0.62772  0.95101  0.15145  1.0000
  C   C1030     1.0  0.65525  0.80602  0.43822  1.0000
  H   H1815     1.0  0.53704  0.97696  0.40043  1.0000
  H   H1816     1.0  0.71644  0.79042  0.41751  1.0000
  H   H1817     1.0  0.71294  0.81178  0.40833  1.0000
  C   C1031     1.0  0.62006  0.99153  0.44409  1.0000
  C   C1032     1.0  0.68877  0.98768  0.06983  1.0000
  H   H1818     1.0  0.64789  0.79270  0.22246  1.0000
  C   C1033     1.0  0.66672  0.96139  0.00762  1.0000
  H   H1819     1.0  0.98766  0.69001  0.01783  1.0000
  H   H1820     1.0  0.53787  0.82089  0.41947  1.0000
  H   H1821     1.0  0.53547  0.98666  0.02466  1.0000
  H   H1822     1.0  0.63520  0.80712  0.45659  1.0000
  C   C1034     1.0  0.80212  0.80281  0.35914  1.0000
  H   H1823     1.0  0.78879  0.67445  0.20996  1.0000
  H   H1824     1.0  0.65436  0.81728  0.42311  1.0000
  N   N58       1.0  0.49595  0.90534  0.29275  1.0000
  C   C1035     1.0  0.50996  0.82661  0.34689  1.0000
  H   H1825     1.0  0.70789  0.69507  0.18157  1.0000
  H   H1826     1.0  0.70519  0.94253  0.01519  1.0000
  C   C1036     1.0  0.77856  0.80061  0.41378  1.0000
  H   H1827     1.0  0.51281  0.81491  0.33350  1.0000
  H   H1828     1.0  0.61666  0.97275  0.14649  1.0000
  C   C1037     1.0  0.54180  0.81092  0.40234  1.0000
  H   H1829     1.0  0.52853  0.85790  0.36662  1.0000
  H   H1830     1.0  0.61625  0.98354  0.00731  1.0000
  C   C1038     1.0  0.65254  0.99144  0.18852  1.0000
  C   C1039     1.0  0.67568  0.99850  0.45899  1.0000
  H   H1831     1.0  0.59183  0.89268  0.31828  1.0000
  H   H1832     1.0  0.80305  0.81075  0.33816  1.0000
  C   C1040     1.0  0.98409  0.76715  0.11883  1.0000
  H   H1833     1.0  0.66997  0.98377  0.17510  1.0000
  H   H1834     1.0  0.54842  0.79234  0.43804  1.0000
  H   H1835     1.0  0.57983  0.80880  0.15373  1.0000
  C   C1041     1.0  0.68465  0.77340  0.15993  1.0000
  C   C1042     1.0  0.68057  0.75817  0.13869  1.0000
  C   C1043     1.0  0.66765  0.78966  0.20471  1.0000
  H   H1836     1.0  0.70302  0.97656  0.06158  1.0000
  H   H1837     1.0  0.50242  0.97875  0.28615  1.0000
  H   H1838     1.0  0.73895  0.86499  0.42671  1.0000
  H   H1839     1.0  0.68276  0.99457  0.34593  1.0000
  C   C1044     1.0  0.68998  0.81862  0.21584  1.0000
  H   H1840     1.0  0.97853  0.67028  0.03694  1.0000
  S   S230      1.0  0.67348  0.97694  0.41047  1.0000
  C   C1045     1.0  0.75304  0.85522  0.43899  1.0000
  C   C1046     1.0  0.75898  0.82375  0.44799  1.0000
  H   H1841     1.0  0.71897  0.69254  0.07971  1.0000
  H   H1842     1.0  0.53203  0.99933  0.40331  1.0000
  S   S231      1.0  0.81577  0.66919  0.04083  1.0000
  H   H1843     1.0  0.93044  0.76315  0.11634  1.0000
  H   H1844     1.0  0.85175  0.67801  0.16684  1.0000
  C   C1047     1.0  0.57378  0.89264  0.33842  1.0000
  H   H1845     1.0  0.69733  0.70134  0.23599  1.0000
  H   H1846     1.0  0.60370  0.98494  0.42949  1.0000
  H   H1847     1.0  0.98057  0.77756  0.13511  1.0000
  H   H1848     1.0  0.84975  0.67805  0.20786  1.0000
  C   C1048     1.0  0.51257  0.92049  0.27716  1.0000
  H   H1849     1.0  0.52536  0.95276  0.25702  1.0000
  C   C1049     1.0  0.54273  0.90290  0.33154  1.0000
  H   H1850     1.0  0.50937  0.78742  0.26703  1.0000
  H   H1851     1.0  0.79865  0.67312  0.13989  1.0000
  C   C1050     1.0  0.51061  0.94554  0.24095  1.0000
  H   H1852     1.0  0.98978  0.71705  0.13372  1.0000
  S   S232      1.0  0.61108  0.99210  0.27599  1.0000
  H   H1853     1.0  0.51735  0.84363  0.39643  1.0000
  H   H1854     1.0  0.91734  0.67399  0.05112  1.0000
  H   H1855     1.0  0.51704  0.80552  0.39760  1.0000
  C   C1051     1.0  0.92743  0.70717  0.48930  1.0000
  H   H1856     1.0  0.57368  0.99526  0.06363  1.0000
  C   C1052     1.0  0.73798  0.74427  0.47861  1.0000
  H   H1857     1.0  0.71452  0.68140  0.24677  1.0000
  H   H1858     1.0  0.73994  0.79830  0.48516  1.0000
  H   H1859     1.0  0.52288  0.92907  0.29408  1.0000
  H   H1860     1.0  0.53464  0.99867  0.23270  1.0000
  H   H1861     1.0  0.68554  0.97164  0.00603  1.0000
  H   H1862     1.0  0.56701  0.87952  0.34462  1.0000
  S   S233      1.0  0.80636  0.73923  0.48777  1.0000
  H   H1863     1.0  0.67616  0.68230  0.22653  1.0000
  C   C1053     1.0  0.56036  0.86734  0.41637  1.0000
  H   H1864     1.0  0.54650  0.80042  0.17878  1.0000
  C   C1054     1.0  0.75687  0.79429  0.46565  1.0000
  H   H1865     1.0  0.75126  0.82543  0.47249  1.0000
  H   H1866     1.0  0.50520  0.84381  0.30748  1.0000
  H   H1867     1.0  0.80837  0.78457  0.46274  1.0000
  H   H1868     1.0  0.54098  0.86365  0.43430  1.0000
  H   H1869     1.0  0.55108  0.87817  0.40306  1.0000
  Fe  Fe117     1.0  0.63460  0.93662  0.82906  1.0000
  S   S234      1.0  0.58959  0.94794  0.80774  1.0000
  S   S235      1.0  0.64874  0.91178  0.80599  1.0000
  Fe  Fe118     1.0  0.63675  0.96530  0.87532  1.0000
  S   S236      1.0  0.59186  0.97783  0.85716  1.0000
  C   C1055     1.0  0.69910  0.72579  0.78250  1.0000
  Fe  Fe119     1.0  0.57056  0.95205  0.85571  1.0000
  S   S237      1.0  0.51737  0.94725  0.87248  1.0000
  Fe  Fe120     1.0  0.61514  0.97295  0.81024  1.0000
  H   H1870     1.0  0.55528  0.86866  0.89499  1.0000
  S   S238      1.0  0.61354  0.93942  0.87721  1.0000
  S   S239      1.0  0.66215  0.96166  0.82834  1.0000
  Fe  Fe121     1.0  0.81960  0.70001  0.58133  1.0000
  S   S240      1.0  0.83434  0.71710  0.61876  1.0000
  H   H1871     1.0  0.79963  0.79162  0.86618  1.0000
  Fe  Fe122     1.0  0.81267  0.73016  0.53723  1.0000
  S   S241      1.0  0.82940  0.74864  0.57185  1.0000
  H   H1872     1.0  0.71932  0.72429  0.76437  1.0000
  Fe  Fe123     1.0  0.86897  0.72969  0.58345  1.0000
  S   S242      1.0  0.92035  0.73353  0.60366  1.0000
  Fe  Fe124     1.0  0.79408  0.73469  0.60518  1.0000
  S   S243      1.0  0.75884  0.75077  0.63626  1.0000
  S   S244      1.0  0.85532  0.71223  0.54646  1.0000
  S   S245      1.0  0.77571  0.71677  0.57005  1.0000
  Fe  Fe125     1.0  0.68268  0.81324  0.84468  1.0000
  S   S246      1.0  0.64203  0.79864  0.87111  1.0000
  S   S247      1.0  0.69082  0.84028  0.85965  1.0000
  Fe  Fe126     1.0  0.70623  0.78200  0.80770  1.0000
  S   S248      1.0  0.66605  0.76612  0.83165  1.0000
  S   S249      1.0  0.74570  0.76701  0.77884  1.0000
  Fe  Fe127     1.0  0.63096  0.78801  0.82573  1.0000
  S   S250      1.0  0.58032  0.78578  0.80354  1.0000
  Fe  Fe128     1.0  0.68106  0.77825  0.87499  1.0000
  S   S251      1.0  0.68751  0.76130  0.91704  1.0000
  S   S252      1.0  0.67042  0.80333  0.79890  1.0000
  S   S253      1.0  0.72221  0.79340  0.85142  1.0000
  H   H1873     1.0  0.63106  0.95920  0.70702  1.0000
  C   C1056     1.0  0.77535  0.76722  0.96055  1.0000
  C   C1057     1.0  0.74883  0.76987  0.94097  1.0000
  C   C1058     1.0  0.72132  0.75894  0.94192  1.0000
  C   C1059     1.0  0.72079  0.74538  0.96286  1.0000
  C   C1060     1.0  0.52147  0.97555  0.93670  1.0000
  H   H1874     1.0  0.79640  0.77580  0.95956  1.0000
  H   H1875     1.0  0.74957  0.78047  0.92533  1.0000
  H   H1876     1.0  0.69971  0.73682  0.96389  1.0000
  H   H1877     1.0  0.90503  0.79125  0.65133  1.0000
  C   C1061     1.0  0.75633  0.75509  0.67599  1.0000
  C   C1062     1.0  0.76936  0.74425  0.69767  1.0000
  C   C1063     1.0  0.76619  0.74817  0.72895  1.0000
  C   C1064     1.0  0.74938  0.76279  0.73907  1.0000
  C   C1065     1.0  0.73649  0.77364  0.71737  1.0000
  C   C1066     1.0  0.73975  0.76975  0.68613  1.0000
  H   H1878     1.0  0.78148  0.73274  0.69033  1.0000
  H   H1879     1.0  0.77638  0.73967  0.74545  1.0000
  H   H1880     1.0  0.72453  0.78519  0.72462  1.0000
  H   H1881     1.0  0.72959  0.77826  0.66961  1.0000
  C   C1067     1.0  0.54274  0.99809  0.59307  1.0000
  C   C1068     1.0  0.53805  0.78948  0.81729  1.0000
  C   C1069     1.0  0.52949  0.79285  0.84786  1.0000
  H   H1882     1.0  0.54892  0.79328  0.86403  1.0000
  C   C1070     1.0  0.97091  0.73608  0.55717  1.0000
  C   C1071     1.0  0.96267  0.73352  0.58821  1.0000
  C   C1072     1.0  0.92234  0.78318  0.66391  1.0000
  C   C1073     1.0  0.78917  0.71364  0.91673  1.0000
  H   H1883     1.0  0.95118  0.73813  0.54163  1.0000
  C   C1074     1.0  0.77478  0.75370  0.98158  1.0000
  H   H1884     1.0  0.66647  0.74316  0.67028  1.0000
  H   H1885     1.0  0.73482  0.70812  0.88352  1.0000
  C   C1075     1.0  0.79218  0.76474  0.87117  1.0000
  H   H1886     1.0  0.79440  0.78498  0.64019  1.0000
  H   H1887     1.0  0.58926  0.76203  0.74225  1.0000
  H   H1888     1.0  0.82929  0.79870  0.62908  1.0000
  H   H1889     1.0  0.52837  0.98842  0.60673  1.0000
  H   H1890     1.0  0.67186  0.75601  0.76548  1.0000
  H   H1891     1.0  0.85871  0.78491  0.77293  1.0000
  C   C1076     1.0  0.65798  0.89180  0.82211  1.0000
  C   C1077     1.0  0.65889  0.87762  0.80329  1.0000
  C   C1078     1.0  0.66795  0.86168  0.81458  1.0000
  C   C1079     1.0  0.67650  0.85974  0.84483  1.0000
  C   C1080     1.0  0.67506  0.87385  0.86378  1.0000
  C   C1081     1.0  0.66564  0.88976  0.85259  1.0000
  H   H1892     1.0  0.65331  0.87908  0.77961  1.0000
  H   H1893     1.0  0.66963  0.85106  0.79959  1.0000
  H   H1894     1.0  0.68185  0.87253  0.88716  1.0000
  H   H1895     1.0  0.66531  0.90054  0.86729  1.0000
  H   H1896     1.0  0.98295  0.72949  0.63216  1.0000
  H   H1897     1.0  0.93103  0.70933  0.53740  1.0000
  H   H1898     1.0  0.53086  0.97080  0.82280  1.0000
  H   H1899     1.0  0.69039  0.74551  0.73398  1.0000
  N   N59       1.0  0.87477  0.76364  0.68600  1.0000
  C   C1082     1.0  0.87883  0.76882  0.71848  1.0000
  C   C1083     1.0  0.90823  0.76515  0.66852  1.0000
  C   C1084     1.0  0.84872  0.77489  0.67268  1.0000
  C   C1085     1.0  0.86318  0.74569  0.68431  1.0000
  C   C1086     1.0  0.88563  0.73236  0.69929  1.0000
  C   C1087     1.0  0.84850  0.76498  0.74120  1.0000
  C   C1088     1.0  0.84342  0.77274  0.63832  1.0000
  H   H1900     1.0  0.56068  0.89993  0.88909  1.0000
  C   C1089     1.0  0.98891  0.73137  0.60808  1.0000
  C   C1090     1.0  0.86801  0.71533  0.70190  1.0000
  C   C1091     1.0  0.85493  0.77109  0.77312  1.0000
  C   C1092     1.0  0.81890  0.78587  0.62700  1.0000
  H   H1901     1.0  0.88339  0.78258  0.71945  1.0000
  H   H1902     1.0  0.90164  0.76303  0.72765  1.0000
  H   H1903     1.0  0.92763  0.75777  0.68009  1.0000
  H   H1904     1.0  0.90715  0.75938  0.64574  1.0000
  H   H1905     1.0  0.85435  0.78833  0.67675  1.0000
  H   H1906     1.0  0.82368  0.77265  0.68444  1.0000
  H   H1907     1.0  0.83711  0.74439  0.69410  1.0000
  H   H1908     1.0  0.86194  0.74189  0.66017  1.0000
  H   H1909     1.0  0.89202  0.73588  0.72253  1.0000
  H   H1910     1.0  0.90936  0.73073  0.68520  1.0000
  H   H1911     1.0  0.82544  0.77132  0.73400  1.0000
  H   H1912     1.0  0.84348  0.75130  0.74309  1.0000
  H   H1913     1.0  0.83262  0.76020  0.63435  1.0000
  H   H1914     1.0  0.86714  0.77407  0.62418  1.0000
  C   C1093     1.0  0.52906  0.84276  0.83934  1.0000
  C   C1094     1.0  0.64739  0.96156  0.68611  1.0000
  H   H1915     1.0  0.59819  0.99531  0.91682  1.0000
  H   H1916     1.0  0.98895  0.68692  0.59644  1.0000
  H   H1917     1.0  0.82916  0.68789  0.83349  1.0000
  H   H1918     1.0  0.86137  0.71098  0.67916  1.0000
  H   H1919     1.0  0.88497  0.70589  0.71173  1.0000
  H   H1920     1.0  0.84477  0.71616  0.71692  1.0000
  H   H1921     1.0  0.87732  0.76480  0.78197  1.0000
  C   C1095     1.0  0.72661  0.71827  0.86824  1.0000
  H   H1922     1.0  0.79425  0.78104  0.83085  1.0000
  H   H1923     1.0  0.65797  0.94940  0.67811  1.0000
  C   C1096     1.0  0.83413  0.71470  0.84192  1.0000
  N   N60       1.0  0.63306  0.98018  0.60457  1.0000
  C   C1097     1.0  0.59837  0.98731  0.61137  1.0000
  C   C1098     1.0  0.64973  0.97578  0.63384  1.0000
  C   C1099     1.0  0.99207  0.68704  0.57121  1.0000
  C   C1100     1.0  0.63246  0.96519  0.58406  1.0000
  C   C1101     1.0  0.60989  0.95038  0.59547  1.0000
  C   C1102     1.0  0.57773  0.99163  0.58333  1.0000
  C   C1103     1.0  0.69129  0.98924  0.58043  1.0000
  C   C1104     1.0  0.62686  0.96971  0.66154  1.0000
  H   H1924     1.0  0.67182  0.98889  0.74669  1.0000
  C   C1105     1.0  0.60800  0.93704  0.57098  1.0000
  H   H1925     1.0  0.65209  0.99993  0.86520  1.0000
  H   H1926     1.0  0.93588  0.67489  0.50725  1.0000
  H   H1927     1.0  0.70181  0.99583  0.82897  1.0000
  H   H1928     1.0  0.58242  0.97860  0.62561  1.0000
  H   H1929     1.0  0.66961  0.96615  0.62952  1.0000
  H   H1930     1.0  0.66320  0.98690  0.64240  1.0000
  H   H1931     1.0  0.64339  0.99727  0.56610  1.0000
  H   H1932     1.0  0.80564  0.72234  0.96038  1.0000
  H   H1933     1.0  0.62528  0.96908  0.56087  1.0000
  H   H1934     1.0  0.65811  0.95985  0.58044  1.0000
  H   H1935     1.0  0.58388  0.95449  0.60155  1.0000
  H   H1936     1.0  0.62061  0.94430  0.61558  1.0000
  H   H1937     1.0  0.60010  0.88894  0.88535  1.0000
  H   H1938     1.0  0.57433  0.98042  0.56914  1.0000
  H   H1939     1.0  0.69320  0.97978  0.56211  1.0000
  C   C1106     1.0  0.64524  0.99352  0.93826  1.0000
  H   H1940     1.0  0.61333  0.98066  0.67178  1.0000
  H   H1941     1.0  0.60797  0.96040  0.65525  1.0000
  H   H1942     1.0  0.70384  0.98421  0.60048  1.0000
  C   C1107     1.0  0.92175  0.67730  0.61470  1.0000
  C   C1108     1.0  0.57587  0.89112  0.87465  1.0000
  H   H1943     1.0  0.59660  0.94234  0.55045  1.0000
  H   H1944     1.0  0.63345  0.93216  0.56443  1.0000
  H   H1945     1.0  0.59220  0.92639  0.57986  1.0000
  H   H1946     1.0  0.52301  0.85245  0.82200  1.0000
  N   N61       1.0  0.93444  0.67465  0.55659  1.0000
  H   H1947     1.0  0.53134  0.87742  0.86500  1.0000
  C   C1109     1.0  0.93953  0.70043  0.51951  1.0000
  H   H1948     1.0  0.89430  0.69761  0.63722  1.0000
  H   H1949     1.0  0.50190  0.83135  0.87913  1.0000
  H   H1950     1.0  0.58117  0.89710  0.85192  1.0000
  H   H1951     1.0  0.83354  0.77927  0.84952  1.0000
  H   H1952     1.0  0.69710  0.71397  0.79612  1.0000
  C   C1110     1.0  0.63056  0.73622  0.70863  1.0000
  C   C1111     1.0  0.51220  0.78872  0.79676  1.0000
  H   H1953     1.0  0.82892  0.74770  0.85288  1.0000
  H   H1954     1.0  0.79363  0.70234  0.90273  1.0000
  C   C1112     1.0  0.50426  0.97079  0.82884  1.0000
  C   C1113     1.0  0.52675  0.91286  0.81334  1.0000
  H   H1955     1.0  0.79335  0.74985  0.83019  1.0000
  H   H1956     1.0  0.66823  0.76484  0.69939  1.0000
  S   S254      1.0  0.60433  0.99391  0.77575  1.0000
  C   C1114     1.0  0.91964  0.68512  0.58232  1.0000
  H   H1957     1.0  0.66831  0.96986  0.69206  1.0000
  H   H1958     1.0  0.83626  0.70987  0.93901  1.0000
  H   H1959     1.0  0.56958  0.74507  0.80714  1.0000
  C   C1115     1.0  0.80107  0.74828  0.85409  1.0000
  H   H1960     1.0  0.50273  0.85392  0.87996  1.0000
  C   C1116     1.0  0.80909  0.71137  0.94523  1.0000
  C   C1117     1.0  0.64725  0.78204  0.73218  1.0000
  H   H1961     1.0  0.84579  0.71231  0.86389  1.0000
  C   C1118     1.0  0.55722  0.74171  0.78601  1.0000
  H   H1962     1.0  0.53109  0.92658  0.81436  1.0000
  H   H1963     1.0  0.80018  0.70000  0.95815  1.0000
  H   H1964     1.0  0.54757  0.90719  0.79915  1.0000
  C   C1119     1.0  0.65389  0.99372  0.58819  1.0000
  C   C1120     1.0  0.50071  0.84298  0.86496  1.0000
  C   C1121     1.0  0.55704  0.87451  0.87200  1.0000
  H   H1965     1.0  0.56976  0.73363  0.74048  1.0000
  C   C1122     1.0  0.91816  0.69064  0.63927  1.0000
  H   H1966     1.0  0.78445  0.70615  0.85493  1.0000
  H   H1967     1.0  0.61395  0.75832  0.77397  1.0000
  H   H1968     1.0  0.68613  0.72523  0.90087  1.0000
  H   H1969     1.0  0.62451  0.78432  0.74714  1.0000
  H   H1970     1.0  0.64659  0.73081  0.78780  1.0000
  C   C1123     1.0  0.74823  0.73439  0.87030  1.0000
  H   H1971     1.0  0.67451  0.71029  0.87298  1.0000
  S   S255      1.0  0.66138  0.97639  0.91643  1.0000
  H   H1972     1.0  0.76222  0.71430  0.92439  1.0000
  H   H1973     1.0  0.54055  0.73075  0.79111  1.0000
  H   H1974     1.0  0.68009  0.73206  0.86217  1.0000
  H   H1975     1.0  0.63002  0.79946  0.69770  1.0000
  H   H1976     1.0  0.74031  0.74073  0.89182  1.0000
  C   C1124     1.0  0.95593  0.78292  0.64543  1.0000
  H   H1977     1.0  0.72843  0.71356  0.84456  1.0000
  H   H1978     1.0  0.54151  0.75247  0.77900  1.0000
  H   H1979     1.0  0.78582  0.72063  0.82413  1.0000
  H   H1980     1.0  0.65559  0.80877  0.72549  1.0000
  H   H1981     1.0  0.53467  0.97986  0.91509  1.0000
  C   C1125     1.0  0.68960  0.72173  0.87653  1.0000
  C   C1126     1.0  0.66557  0.72946  0.76859  1.0000
  C   C1127     1.0  0.65052  0.71792  0.66432  1.0000
  H   H1982     1.0  0.76468  0.76629  0.87485  1.0000
  H   H1983     1.0  0.68267  0.72813  0.69672  1.0000
  C   C1128     1.0  0.79947  0.72998  0.89927  1.0000
  C   C1129     1.0  0.79596  0.71817  0.84691  1.0000
  H   H1984     1.0  0.65936  0.71847  0.75483  1.0000
  H   H1985     1.0  0.73974  0.74287  0.85182  1.0000
  H   H1986     1.0  0.52599  0.83041  0.82806  1.0000
  H   H1987     1.0  0.66905  0.78123  0.74662  1.0000
  C   C1130     1.0  0.65228  0.79748  0.71142  1.0000
  H   H1988     1.0  0.80357  0.76483  0.89362  1.0000
  N   N62       1.0  0.78606  0.73234  0.86805  1.0000
  C   C1131     1.0  0.80583  0.78005  0.85322  1.0000
  N   N63       1.0  0.56487  0.84488  0.84854  1.0000
  C   C1132     1.0  0.56943  0.83666  0.87921  1.0000
  H   H1989     1.0  0.84717  0.72538  0.82996  1.0000
  C   C1133     1.0  0.58757  0.83586  0.82538  1.0000
  C   C1134     1.0  0.57498  0.86314  0.84798  1.0000
  S   S256      1.0  0.82853  0.67276  0.59672  1.0000
  C   C1135     1.0  0.60432  0.83888  0.89249  1.0000
  C   C1136     1.0  0.58447  0.84145  0.79160  1.0000
  H   H1990     1.0  0.73316  0.74034  0.50208  1.0000
  C   C1137     1.0  0.66731  0.74582  0.74923  1.0000
  H   H1991     1.0  0.52695  0.90753  0.83676  1.0000
  C   C1138     1.0  0.60561  0.83035  0.92373  1.0000
  C   C1139     1.0  0.60630  0.83071  0.76993  1.0000
  H   H1992     1.0  0.56418  0.82295  0.87799  1.0000
  H   H1993     1.0  0.89261  0.68754  0.57911  1.0000
  H   H1994     1.0  0.81444  0.78365  0.60268  1.0000
  H   H1995     1.0  0.60833  0.73970  0.69559  1.0000
  H   H1996     1.0  0.58289  0.82206  0.82689  1.0000
  H   H1997     1.0  0.61441  0.83754  0.83019  1.0000
  H   H1998     1.0  0.60260  0.86431  0.84989  1.0000
  H   H1999     1.0  0.57028  0.86908  0.82561  1.0000
  H   H2000     1.0  0.96561  0.79592  0.64216  1.0000
  H   H2001     1.0  0.62427  0.76805  0.69692  1.0000
  H   H2002     1.0  0.62407  0.83318  0.87751  1.0000
  H   H2003     1.0  0.61049  0.85232  0.89533  1.0000
  H   H2004     1.0  0.59289  0.85463  0.78801  1.0000
  H   H2005     1.0  0.54067  0.97224  0.95313  1.0000
  C   C1140     1.0  0.65993  0.73217  0.68517  1.0000
  C   C1141     1.0  0.64423  0.76582  0.71330  1.0000
  H   H2006     1.0  0.70590  0.73611  0.79775  1.0000
  H   H2007     1.0  0.62831  0.72142  0.65144  1.0000
  H   H2008     1.0  0.82732  0.73106  0.89812  1.0000
  C   C1142     1.0  0.58344  0.73736  0.76067  1.0000
  H   H2009     1.0  0.95286  0.77742  0.62264  1.0000
  C   C1143     1.0  0.84048  0.69926  0.82217  1.0000
  H   H2010     1.0  0.59964  0.81677  0.92233  1.0000
  H   H2011     1.0  0.63130  0.83158  0.93201  1.0000
  H   H2012     1.0  0.58759  0.83634  0.94040  1.0000
  H   H2013     1.0  0.59897  0.81730  0.77216  1.0000
  H   H2014     1.0  0.60310  0.83486  0.74607  1.0000
  H   H2015     1.0  0.63316  0.83208  0.77470  1.0000
  H   H2016     1.0  0.83281  0.76809  0.78866  1.0000
  H   H2017     1.0  0.64499  0.70624  0.67774  1.0000
  H   H2018     1.0  0.59772  0.72634  0.76836  1.0000
  H   H2019     1.0  0.89805  0.68286  0.52491  1.0000
  H   H2020     1.0  0.62370  0.72418  0.72027  1.0000
  H   H2021     1.0  0.69670  0.94627  0.97584  1.0000
  C   C1144     1.0  0.60639  0.75266  0.75235  1.0000
  H   H2022     1.0  0.79069  0.74030  0.91453  1.0000
  H   H2023     1.0  0.55116  0.84141  0.89688  1.0000
  H   H2024     1.0  0.67498  0.79604  0.69591  1.0000
  H   H2025     1.0  0.67185  0.71539  0.64770  1.0000
  N   N64       1.0  0.63711  0.74978  0.73125  1.0000
  C   C1145     1.0  0.97194  0.67231  0.55798  1.0000
  H   H2026     1.0  0.92653  0.78901  0.68614  1.0000
  H   H2027     1.0  0.77845  0.79341  0.52644  1.0000
  H   H2028     1.0  0.68936  0.99517  0.96421  1.0000
  H   H2029     1.0  0.86792  0.69715  0.81858  1.0000
  H   H2030     1.0  0.82974  0.70109  0.79957  1.0000
  C   C1146     1.0  0.74723  0.74277  0.98255  1.0000
  H   H2031     1.0  0.98382  0.69951  0.56340  1.0000
  C   C1147     1.0  0.92586  0.68255  0.52657  1.0000
  H   H2032     1.0  0.93944  0.69965  0.63703  1.0000
  H   H2033     1.0  0.93101  0.69780  0.58229  1.0000
  H   H2034     1.0  0.51843  0.78613  0.77306  1.0000
  H   H2035     1.0  0.55829  0.84037  0.78457  1.0000
  H   H2036     1.0  0.91792  0.68459  0.66215  1.0000
  H   H2037     1.0  0.96733  0.70028  0.51716  1.0000
  C   C1148     1.0  0.49844  0.98928  0.94984  1.0000
  H   H2038     1.0  0.50675  0.96409  0.93228  1.0000
  H   H2039     1.0  0.94574  0.67056  0.61733  1.0000
  C   C1149     1.0  0.61364  0.00049  0.93380  1.0000
  H   H2040     1.0  0.71118  0.99210  0.86808  1.0000
  H   H2041     1.0  0.97475  0.77542  0.65745  1.0000
  C   C1150     1.0  0.79155  0.78499  0.50974  1.0000
  C   C1151     1.0  0.65811  0.99749  0.73273  1.0000
  H   H2042     1.0  0.90098  0.66812  0.61901  1.0000
  H   H2043     1.0  0.98320  0.66947  0.53488  1.0000
  H   H2044     1.0  0.60022  0.99881  0.62536  1.0000
  H   H2045     1.0  0.81753  0.78284  0.51680  1.0000
  H   H2046     1.0  0.77841  0.77269  0.51011  1.0000
  H   H2047     1.0  0.51475  0.99984  0.95595  1.0000
  H   H2048     1.0  0.64822  0.96358  0.99005  1.0000
  C   C1152     1.0  0.66471  0.00030  0.96083  1.0000
