data_image0
_chemical_formula_structural       FeHSFeHSH3CS2HCHC4H4CH5CH4C4H2C2H5CHC2HCHC2HCH4C2H4C3HCH2CFeC2H2CHCSHC2HSCH5SHC2HCH3NH2CH2C2H3FeH2CSHCH4CH2C2HCHCSCSH2N2HCHC3H4C3H3CHCNH3Fe2HFeSHCH2CH2CHCH6CHCH5CH3CFeH3CH4C4SH4CH2C3HCH6CHCHSHC2H3NHC4SC2H5CSNCH2C2HSHCSHCH5C2HFeH9FeCHC2H4SH7C4HC2H3CH6CFeHCHC2H2CH5SH2SH3CH2C2SH3CH3FeCHSH5CHCHC2SC4SHCHC3HC2H4CHCH2CHCH2CH2C2SCFeCH4CHCHCH3C3HFeHCHC2FeHNS2HC3HNH2CSCH2CH2C3HC3SHC2H4SH2CH3C2SH3CHC3H2FeHCHSHNH9C2H2C2H2CHCHCH5C3H2C2H3C2HCSH5CH8CHCHFeC2H2SCHSH3CH4CHNHCHCH9CHC3HC2H2C3H2CH5C3H2CHCH2CHC2HCH4SH2CHC2H2CH3FeH3SCHCH2CH6NHCH3SH5C2HN2H7CHCH3SH2CHCH5C2H2SFeH6C2H2C5H3C2HSHC3HCH6CH2CH3CHC2HCNHCFeCHC2NH3CH2FeH3CHCH4CH6CFeHFeH2FeSHFeNFeSHSFeHSFeS2FeSH2S2H2C2HSHSH2SCH2SHCHSHCHSHC3H3C3H2CHFeH2C4H2S2CH5C2HCH2C7H5CHCHNH3SC6H2CH2C2HSC2H2C4H6SCHSHCSHCHCH5CFeHCH4FeH4CHCHC2HCH2FeH4C2H4SC2H3FeH5CH2SH4C2H3CHC4HCH2CHSH2CHSH2C2HC2FeH2C2HNCH2CHCHC2H4CH6CHCHNH7C2H3SCHC4H4CFeSH4CHCH2C2NH3CH3CFeCH4C2NHCH3C2SH2CH2CH2C2NCSH2SH3CHSHC2HC4FeCHNSH6C3SH3C4HCHCH2CH4C3H4C2H7CHSHCH9SCH2CHFeHC2H4C2H2SH4CHFeH2CSHC2HCFeH2CH2CH3C3SH4C2HCH2S2C2HSHC2S2H2CHFeCH2CHSFe2CH2SH3SH2C2H2CHFeH2FeC7H4C2H3FeHCH2SH5CH7CHCSH6C2HNC2HC2HFeH2C2H4S2HCHCH2CHCH4CH3C4H4C3H2SH2C2SHCH4C2H2CH4CSC2H2SHC2SH2FeS2FeCSHC2S2HSH6SH3S2CHSFeHSCSH2FeNSCHSH3SCHSHCNC3HCHC4H6CH3CH4SHCSH4CHCH7CH2C2H3C6H2C5H4CH3C7H7CH4CH3CH2CFeCH4C2H4CH5NC12H20SHC3H3SH6FeH4FeNH2C3H2CFeC2H3C2SC2H4CHNCH2CH2CH9CH3C2H5SH5CHNFeH2CSHC2SHCFeCH20SH2SHCHCH2CHCHNH2C2H4CH2CFeH3C4HCH3C2H2CHCSCHCHCHCSCFeH2SCSH6CH3SFeH2CHSH3CH2C2HCHNC2H4CH4FeH2C3H3CHFeSHCH2CH2FeH2SH4CSHSH2FeSC3HCH2FeHC2H4C2H3CHCH2CH3SH2CNH3C2H2CH2CFeH5CHC2HCH2CSCH4SC4H2CNSFeC2H3CH3CHCHCH3CH7FeH5CHCHNHCHCH3CH4C4HC2HC2NCH2FeCHNHSH2CHC4HCH3CH2CSHC3H3CH2CH3FeC2H3C2H2CH2C2HCH2CH4FeC2SCFeSHFeS2FeSFeS3C6H4C2HSH2C5H4CH2C4HC2HCHCH4SHSCHCHC3HCSH2FeH3C2HCH3CH3CH9CH3NH6CFeCHSH5CH2CH2SH2C2H2S2CHSCSH6C2HC4HCH2C2H2FeHNH4C2SHC4S2FeSCH2CH3CH3CH5CNFeH3CHC2HSCHCHSHCSH3C2HSH3C3H2NH2CHSCHCSFeHC2H5CHCH2C2HCHCHCH3CH3CHC2H10CH5FeH6CH2CH2C2H2C2HC2FeHCFeC2H7CHSCFeCSFeCNH2CHN2S2CH4CSH9CH8CH4C3HC3HFeCH3C5NH2CHNH3CHC2H5C2SHFeSFeS2FeS2FeSFeS3FeS2FeS2FeCH2SH5FeCH2C2SH6C2H4FeS2FeC2H3CH3SCHSHSC3HC3H4C9H5C6H4C5H5CH3C6H3CH10FeC2SC3H3FeCH5CH2SHCHCH2C3HSH2C2HCSH2C2HCSH3SHCHC2FeSH5C3H4C2HCHFeC2H3NHFeH9FeSH10SHNC12H28SHCHNC6HC5H7SH4CH6FeHCH4CH4SCHC2HSH2C3H7C2H8C2NC2HCH3CNHCHCH2CHCH2CH2CH2C2HSH2CNH2SCHSH2SHC2HC2H2CH3FeHCFeH2CH2CHNHCHFeHCH2C2H10CHC2HC2H2CHCH3CHC2H5C2H2CHCH2CH2CHCFeH2NC2HCHCHC3H3CH2CH2CSCH2C2H3NH3CH4SH2SCHCHSC3HCH3CHSHCH7SCHSH3CH3Fe2S2FeSH2SH2SNHNFeCHFeS2C2FeS3HCH4NCHCH2CH7C3HSHC3HNH5C2HCHCH4C4H5C6H4C6H4C5H2CHCH3CHCH2CH2C3HCHCH2C2HFeH2CHC3H9CH2S2CHSNH2SHCHC2FeH2CHFeH4FeCHCHC4H2FeHCHCH2SHCH3CFeHCH4C2H4C2H3SHFeSH3CSC2H4CHCHCH2CNFeH2CHCH2NC7H15CH2NC12H19CH19CH5CH3CH3C2H5C2H2C2SH3SHCH2FeH2SCH4C2HC2H2C6HCH2C2H3SC2H6S2CFeCHC3H2CH6CH6CH2CH2CHCH2CH3CH9CHCH3SHCHCHNH3CHCH2FeHC3H2CSFeHC2HC3HCHC2H2SC2H3CH2C2FeCHC4H2C2NC2HC2H2CSC2SH4SC3H4C2H5C2H4NHC4H2CHNH3FeHSC2HCH2FeH2CHC2HC2H2CH4CH2CH3FeHFeSH2CS2H2CSCH5SCHCHSFeH2SHCHC2H2CSCHCHFeCH4SCHCH5C2HSHCHC5H2CH2FeH5CH2FeC2HSHCH2CH4CHCHCHCHFeHFeSC4HCSHC3H2SH3CHC2H2CH2SHSFeHSHSH3C6H2CH8CH5CHCHNH2SC3SNCHC3H7C2SH2C2H2SH3SHC3H2FeHSH4SHFeS4HFeHFeS2CFeHSFeHSH4S2CH2CH2FeSHCH2SC2HCHCSHC2HCSCHCH2CSFeH6C2H2CSH2CH5CHC2H7C4NSHC9H4CH2FeC5H5CHC4SCH3C2HCHC4H2CH3CH2CH5CH2C2SC4H2SCH2CH2C3H5CH9CHC2HSH2CH6CH2C3NCH3SH3CH4CH3C2H3C2HCH2CHFeH2CH5CHSHCHC3SCH2CHC2H2S2NHCH2CHCSHSFeH2CHC2FeH3CH2CH3C3H3CH6FeH4C2H6CSC2HCHSH3SHCHNH2C2HCHCH2CNHCFeSH4C2HCN2C2H2C2HCHC2H5CH2CH2C2HCH5C2H9CHC2H2FeHC2H3FeHCH4C2HCHSH4C2H10CH5C3H4C2HCHNH3C3H3CHCHSH2CH3SCHSH4CHCH2FeCH7CHC2FeH5CH2CHC2HCH2SHNHC2H2C2HNH2C2HC2SFeC3H6NC2H3FeHNH2CHC3H5C5H3CH8SH2SH2CH2S2FeS2FeSCFeSFeS3FeCHCHFeH3S2HCH2SCSCFeSH2FeS2FeS2FeSFeS3C6H4C6H5CH2C2SH3C7H3C6H4C6H10CHFeH2C4H6C2H2CH5C6H10C2H4C2HFeH2CH4C2H6CNH5CSC2HSH6CH2C2H6NHSCH3FeH2NHC2HCHC3HCHCH4SHCH2C2H7CH5CH7SC2HFeCH2CH3C2NC2HC2SC6H6C2H2CH5CHNCH4NC9H23CH2C2HC3H9C3H3CH6SC2H4CH9C3HCHCNC12H22CH6CHSHC2HCNH2C2H2CHCH5FeH2C2H5CH4C3HCHCH3CH3C2HCH2CFeSH4C2HCH4C2HCHSFeH4C3SH4NH2CSCH3SCSHFeHCFeS2FeCFeS3HCH2CH2C3H2CHC2FeSHCHSNH2SHCHFeCH6C3HCH3SC2HSCHC5H6CH3SFeHC2HCHCHCH2C3HCH2SHC6H6CSCHCHCH5CFeHCHCHSCNCHCHCHFeH4CH7C3H2SH2CH2SHCHSCH3CHC2HCHCH7FeH4CHCHCSH3C2H4SHNCHFeHFeHC2FeSHCH2C4H2C3HC2H2SHCH3CHC2H3C2H5CH8CH2C2HSCH4NFeHFeHCHSC2HCHCNH7CSHC3H5SCH2C3HCH5CH4CSH2CNH2SHCH6CHC2H4CNH4SH2CH13CHFeCH3CH3CHCHC2SCHCHCHC2H5CHC2H2SH3C3HSHCFeHCFeHSFeSHC2SH2CH3SCSFeHFeSHFeS2FeSFeS4C2FeS2FeS2FeCFeS3FeSHFeSC3NHCSH6NCSH6CH14CHC2H3C2H3C4H2C4H5CH4C8H5C3H4CSC2H3C6H10C7H3C6H7SH2CSH3CHCHCH5NSH7C3HNHFeHC2H4CHCH2CNFeCH5CHC2HC3H3CHC2H2C2H8CH2SCH3CH2CHCHSH3CH4CHCH6CH2C2HFeH3CH4C2HSH2CHCH3C2H4CH3CHCH2CHCHC2H2CH3FeCH2NC12H28CHCHSHSH2CH6SH3C3H3CH5CH2C3HC2HC3NH2C2H7SCH3CFeH2CNH3SCHC2H3C3H2CH2C4HCH4CHCH5CH2C2H6CH5CH7CH2CHFeS2H3SHFeCS2H2CHCH2SCH3FeHCH4SH2SCHC3H2CHCH3C2HCH6NHCSHFeH4CHCH2CH3CH6CH5CH2C2FeNFeCHCHSH2CHCH3CHCHCHFeHC2HNCH2CH6CH3C2H3FeCH2SHCNC2HC3HC3SCHCH2CH2SH4CHCH2C3HCHCH3CH2C3SH2CH11C4H2FeS2FeSHFeHFeS2H2SHCSCHSHCH3SCHC2SCFeSCH2CH2FeHSFeCSHCHS3FeHSFeHSFeHS3HSFeS2FeH3SHCFe2HSFeHSCH3S2CH2NSHFeSCSC2Fe2S3HCH3C2H5CSHC2H2CH4CH4C2HC4HCH2C6H5FeC4H4C4HCH2NH2CH4SCSH3C2NHCH2NC2FeCHC2H2NC2HC7H3NCFeC4H7CHSCHCH2C6SH3CHSH2C2HSCHNCH4CNC12H31CHCFeHC2S3HC3H3SH2CSHC2H3CHCH3CH2SH6CH2SCH2C5H4CH3FeC4FeH2C3H3CFeSH9NCHCH2C2HCHCH2SH4CH7CHCH4CSHSHNC12H27CHCHSHNFeH2FeCHS3H2CFe2H2CH4CHNC12H18CH9CH6CH3CHCHCH3C2HCH4C2H5Fe2CH2CHCH2CH6SHSCH2FeHC2HC2HFeH3CSHC2HSH2SCSHSHCHCH3SH2CHCFeHCHC2H3CHNH2CH5CH3C2HC2H2CH2CH6FeSCH2CHNH5CSFeCHC3SCSH6CH3CHCHCH3C2SCNH2C2HC3H5CH2CFeH3CH2C2H3CFeCSH2CHCH2CHCH2C2H3CH6C2HCHCH9NH2CH2CHC3H2CH3CH2CHC2H2C2H3C2HCH5CH4C2FeH2FeHC2HC2H2C2H5SC2S2CHC2HSH3CH7CH2CH2CH12CNFeS2FeSHFeSFeS3H2NH4CH4SHFeS2FeS2FeSFeS3H3CH3SHCFeS2FeS2FeSFeS3FeCSCHCH3SCSH4CHSH3C2H4SHNC2H2CHC4FeH2FeHCHC2HCH4CHFeHSH3CHSH4C2H2C2HSH3CHCH3CHCHNCH7C7H4C3H5CHC6H4C6H4C2HC3H9C2SHC3HC6H4CH2S2CHSHC3SC3H4C6H5CHC2H4C7H2SH6NC11H20CH6FeCH2CHCHCH3CH6C4HCH7CHNC5HC4HC2H3CH5CH9CHC2H3CH4CHCH5C2HC2HC2H2SHCH4CHC2H2SC5H3NCH4C2SH4CHCHC2H6CHCHC2SHCHSH3C3HC3H4NH6CHCH6CH2CSH3CH4C2HSCH2FeH3CHC3SHCFeHCH4CH2NCH2C2H2CHC2H5SCH4CHCHCH2CH6C3NH2CH2CH4FeH5CH4CHC2H2NC8H6CH7CH4CHFeCH7C2HCH2S2HNH4CHC3H7CSH7FeHCHNC2H3CHCSH2CHCH2CHCH2FeH4CH2SHCH2CHCHCH2SH4CFeCH5CH2SHNHC2H4C2H5CHCH2CH3CHFeHSFeSHFeH3SC3H3S2HC4HC2HCH3C2H3FeHCH4SHCHCH3CH2C2HC2H2SCHSFeH4FeHC2HCSH2CH3CHCH3NHCHCH2FeCHCHCH4CHCH5NH3CH4SC2H3CH2NHCH4FeCHC2HCH2CH2C6SCHCH2CHCHCHCH2C2H3C2SCHSH2CH2CSCH2CSC3HSCH3SH2CSHFeHFeHSH2SFeSFeH4FeSH9CHFeHSHCHNHCHFeC6H4CHCHC4H2CHFe2SCH2C4HCH2SCHC8FeH2C3HCH3SH2CH2CH7CH2CH2CHCH10CHSFeCH2CH5SH2C2HNHCH2C2SHC2SCH2FeHSC2SHC2SH4NH2CH2CHCHC3H4SCH3CH2C5HC2SCHCH9CHCHC2H4C3HC2SH2CSHC2H2NCH3SC2HCH2CHCH4SH2CSH2SNH3C2H3FeHCH2SHSH2CSH2FeC4HCSC2FeH2FeHSH2CHCHCH2C2H2CH2CH2C2FeCH7CH3CSHCHC2SH2SCH2SNH12FeHCNH4CH2NH3C3FeCH2CFeH2CHC3H2CH4CHC2H9CSCNHSH3CHSH4CHC2HNH2CSCH4CFeH3CHCH2SH2SH2C3SH5CH2FeS2FeS2FeSFeS3FeS2FeS2FeSFeS3H5FeHSFeHSCHC2S3H5C2HC3H3FeH2C2H2C3H6C7H4C2H2C6H4C5H8C5HCH4SCHCH3C5H4CHCH5NC3H2CH2CH4CH3CH3SCNCFeHCH2SH2SHC2H4CHCH2CHCHC2H3CH12NH2C2H6CHNSC2H2SHFeHCH5C2H7CSHCH3C2HC3H3CH2CNHCHCH5CH4CHCHC2HC3H3SHFeH3SH2C2HC2SC2H2SH2CH4C3HC5NC6HC4H5NH19CHSH3CHC3H4C2HC2H3SHCH3CFeN2H4C2FeHCH2CHNC9HC2H20CFe2HCH3CHCFeHCH2C2H8C2H6CH7C2FeH4CHCH2FeHC2HCFeCH2C2HCH3CH2C4H2SH3CSCH2FeH3SHC2H2CH6C2H2CH5SHC3H6CSCHSH3FeSH2SCH2CH2CH3CFeSH4FeS2FeS2FeSFeS3HC2HC2HFeHSFe2SFeCHCSH4CH3FeCSHCH4CH4C2HS2H3CH2FeCHCHC2HCH2C2H3CSHSH2CH8C6H9CHC2HCH4C7H6CHCH2NCH7CH2C7H6C2SH2C2HC2H2SCHCH6C6H5CHC2NH4NH4C2HFeH4CHC4HCH3FeCHC2HCHC2H2CHCHC2HCH2C2H2CH3CH3CSH7C2H3CH2SHCH7C2HCH3FeCFeHCH3CHCH4CH5SC2H2CH2CHCSHSH2C2HC2HCH5SH4NH5NC11H21C2H2SCH2FeCSCH2FeC2H2C3SC4HSH4CSH2FeH2CSC2H2CNC4SH2CFeH3CH3CH11S2H4FeCH5SHCHCH4CH2N2C2HCHNHSH5CHC2HSCHCSHCHC2H2SHFeSHFeS2FeCFeSHSFeS3FeSFeSFeHSFeS2HFeCS2H4C4H2CHC3H5C5HCH4C2H2C7H8C2HC2HC3H4C2H3CH2CHC2H3CHCH2CNH6CHSH3CHCH2CH2CH4CHC5H2CH8CHCH2C2H3CH2NC3HSC6H6SCH2CHCH9C2HC2HFeHCH2CH6CHC2FeH3C2H6CH2CNHCHSCH2CH2CH7CH7C2HC2H4SHSHCH2CH4C3HNH3CH2FeC2H3SCH4CHC4H2CH4CHC2HC3SC2HSCH5C2H4CHCHC2HCHCHC2HC2H2SC2HCHNSCHCH2CHCHFeH7SH4C2HCNC2SH4C2HFeH6CHCH3C2H4SCH2CHC2HCH2CH4C2H6CHCH3CH3CH3CHC2SHCN2HCH2NH6CSCH2CH4C3H11CHFeC2HC2H5CHCHCHCFeS2C2HCS2C2H2FeHCH4CHFeS2FeS2FeSFeS3HSCH7CH2NCH3FeS2FeS2FeSFeS3HCFeHCFeHSFeSHS2FeSHFeS2FeSFeS3C3HC3H4C6H4CH2CNH2CHC2NHCH3C6H4C2H5C2SH2C7H4CNFeHC2H4CHC2SHC2H3C2H4C6H5C6H4C5H4C6H4SH3NHC2H10NC3HCHCHNC12H16CH7SH7CSH2CSH2CH4CSCHNCH3CH3SCH4CHC2HCH2CHCH6C3HCH2CHNC11H6C2H14C2SCH3NC10HCH5CH17CH3C2SHCH2C5H2CHCHCHCH5CH4CH2CH10CHCH3SH4CH2C2H6CHSH7SC2H4C3H4CH3C3H2C4HCHCHSCH2CH2CHCH2CFeNC2HC3HCHC3HCH3FeH3CSH2CHCH5CH3SH2C2SHCH5CH3CH7CNH3CH2CHCH12C4HCHCH5NH2CN2H2CH4CHCH2CH2SH2CH2CH12C2HCHCH4C2HCHCHCHC2H4CFeH4C2H2CHCHCNH3CH2C2HC2H2CH4CH2C2H2CH2CH3C2H4CSCH2CH5CH2CHCH3CHNCH5C2FeH2CHSHCH2CH3CH4CH4CH4C2H2CH5CH3C2HNSC2H3CH5CHCH2FeH2SC2H3CHC2HC2NHSH2SH2C2H4FeCFeS2FeS2FeCFeS3CHCH4CSFeHC2H4SH3CHC6HCHCHSH3SC4HC7H8SH4CH3FeH4NC4HC3SC2H7SCH7CH2CH3CHCHCH2CH2CH9FeH2CH3CHCNH3SCNH2C3HCHCHCH2CHCHCH8C2HSCH2CH2CH4C2HCHCHCH2SH3CSC2HCH6CNCH2CH2CHCH2CH6CH3CH5FeCH4CH3CHCH2CH2C2SCHC2H2CHCH2CHCHCH2CH2SCHC2SHCH3CH4SC2H3C2HC2H2CH3NCH4CH2CH2C2H2C2H2CH2CH5CHCHCHCHCH2FeH2FeHCH3S2C3SC4H3NH4CH2CH10FeH5C3H3FeS2CSHFeS2HSCFeSFeCSCH3CHCH4CNCHCHCH4FeSCHSH2SC3FeHCSCHSCH3CH2CH2CSCHFeH2CSH2SH2C2SH2CHCHCSH5S2HC6H2CHCH4CH2C2HFe2CHNCHC2FeH2CH2CH2NCHCH5SHC2H2CHC4H2NFeHSHS2CH2CHCHC8H5SCFeHCH7C4H4CHCH2C2HCH4C2H2SCH2CHSCH4C3SNFeCHC4HC3SH3CH12SH3CH5C2HNHCHC3HC2H2SH3CFeH3SH2CHCHSC2H2CHS2CH2C2SC2H6SH2CHNH2CH3SCH4CH6CH4CHCNC6HSHC2H13C4HSH8C2HCHCHCHC2H4C4FeHCH6CHCFeSCH5C2HC2H2C2H8C2HCH6C3H10C2HCH2FeH4C2H2FeH3C5H2SH3CH3CH4FeC2HC3H2CSCFeHCSCH4CH9SH4CHFeC2SH4C2HC2HC4NHCH3SHSCHC2H2CSCFeCHC3H6FeHNH2NH4CH2CHCH2CH2SHSHCH2CH3CS2HFeCSHCH6FeH2CHSHFeH2CH8CHCH3SHC2NFeHFeCH3SH3CH2SCH3FeSCFeSFeSCHFeHSFeS2FeCHSCHC2HC2H3CH2CHSH2FeS2H2SH3CHC3H2CH6FeCHC2FeH4CH5CSC6H4C6H4C3H2CFeCSC8H3CSFeH9FeCH2C2HCHSH3C3H2CHCFeCHC3HCH4NH3C2H7CH9CHCSC2H7CSHCH2C2H2SHCNHC2HCH5C3HCH3CHCH3CHCHCH4C2HCH3CH2C3H2C2H5C2H6CHS2H4C2HCHC2H3CH3CHNCSHFeCH3SHC2H3CH2FeH2C3H4CHCHNH2CFeCHC2HCHSCH3C2H3CHCH3CH2CH2CHFeSCH2S3H3C2HCHC2HSHCNCHCS2C4H2FeH7CHNHFeH5CH4CH2CSH2FeCH3NSHNFeHC2H2C3SCSH2CHCH2CHSC2HCH4CH2C2HCH7C2HCH3CHCHCH2C2H5C2H2CH2SH7SH6CSH5CH2CH3SH2Fe2SCSH3CSCSHFeH2C4HCH2C2H2CH3CH3CNC2H2SH3CHCH5C2HCSHC2H2FeCH2C2NHC4H2C3HC3H2CHCSHC3H3NCHCHCH2FeHC2H4SCH3CH2CHNCH3SCH6C2HCH7CHCH2C2HCH7C3FeC2H3NH2C2H9SH3CHCH4CH4CFeC5HCHFeH9Fe2SHCHC3HC2SC4FeH2C2H2C5SHC2H3SCH4CHC2H2CSC2H5CSCHNCHCH5NH3CSFeSHCFeHSH4CH6CHSCH2SHNHCHCH2FeS2H2CHCH3CSFeS2FeS2FeSFeHS2CFeSHC2FeSFeS2H2CS2H2SCH5FeCSHC2HSCH5SHCH2SHSH3CFeH2CH3NH2C6SHCHC2HC2FeSHCH4C6H6C2HC6H4C2H3SCH4CHSCH3C2FeHC2H3FeH3C2H9SH2NCHC2HC2HCHCH2C2H2NH2CH4CHCH2SHCH4NC7H2C3H3CH5CH5C2H2CH7FeHC2H12CHC6HCHSH2CHCH3C3H7C4HC4H7CH7SH6CHFeCFeH2CNC12H30C2H3CH6CH5C3SH2CH3FeCSH4C2HCNC6H5SHCHCSFeHFeH2CH2C3H2CH3NH3CHC2H2CNCH3C2HC3SH4SFeH2C2SCH4C2H3CH2CSCH4SCH6CH3CH7CHCH4CH2CH8NH2CH3SH2C2HCSH2SH3CH2FeS2FeS2FeSFeS3CHFeS2FeSHSHFeSCFeS2FeSFeS3FeCFeS2FeHS2CH11CH3C6H8CH5C6H4C6H5CH8C3NC7H4C2HC3SH3C6H4CH2CHFeSH5CH2CH2SHCHCSCHCHC2H3CH2CH2C3NC10H22FeHSH3CSHC2H7CSHCH2CHC2SH3SH6CFeH7C3HC2H2C5HC2H2SC2H2CFeNC12H31C2HCH3SH5NC3HCH3CNH5C2HCNCHCH5C2H2C2H4C3H2CSHCHSNH7CHCHNC12H29CHNH2SCFeHC3H2CHCH3CH3CH4C3H3C3H2CHCH2SH4CH3C2HCHSC2H2CH8CH5CH7CHC3HCFeCSCFeSHFeS2FeSFeS3FeCSFeHSCFeC2SHCHFeS2FeSCHSNHFeS2FeS2FeSFeS3HC2SHFeSFeSCHFeS2FeS2FeSFeCS2CHC2HCH2CHSC4H3CH5CH3CH3N2C6H4C6H10CH4CSH2C6H7CH4C6H4C6H4C6H5CHSH2C6HCH10CH4CHFeHCHC3H6C3HCH2CH16CHCHCH2C3HNC6HC4H13NCH13CH2C2H4CH6CH2CHCHC2NHCHC6H6CH13C2HCH5CSCHSHC2H6C2HNH2FeH4CH6CHSNHCH3C4H5CH3C2NSCH5CHC2H2CHCH5CH3SH2CH3SH4CHC2H2CHC3H4CHCHCNHCHCSHC3H6CSHCHC2NC2NCHCHC3HC2HCHCH4SH8SHC3H3C3H2C4H5CHCH2CH5CHCH3CH2C2H13CH2CH2CH2C2H4CHC2H5FeH2CHC2HCHC2HC2FeH4CHCHSH2C2H2C4H2CH4CHC2SH2CHCH2CHCHC3HC3H2C2SH2C2H2CHC2SH3C2H11CH3C2H2CHCH3CNCSC2H2NCH2FeHC2HNH6CH2C2H7CH9C2H4C2HCHCH5C2HSH3C2HSC2H6CH7CHC2FeC2H4CH2CSCH3C2H3CH2CH2NH5CS2H3CHCHCHCSCH2C3H2C4SC2H2CH2FeHC2H2CH3CH5CH3NSHCH5CHCHCHSFeCHSH2CH2FeHCH2CHCHCS2CH3FeC2H3C3HCH5NCH6C2H4SH3C3HCH2C2H2S2H2C2H2NHCH3CSCHCH2CSNHCNCHC8FeCH3SH12C2SCHS2HCH2CFeH2CHCH4CH2NC4H2CH5C2H2CFeH2CHSHC2H3FeHSH2NC10H25CHC2HC2HCFeHCHNH2CFeSHCHCSCH6CHSC4HFeH5CSC4H3SHSCH3CSHSHC2FeH6CH2CHCH3C2HC2SCHCHC2HC2HCHCH5FeHCH2C2H3CFeCFeHCH3CHFeH3SHSCSCFeCHS2CHSH2C3H5CHCSC3H3S2HCH3CH2FeH5CH3FeSHC2NC4HFeHC3HCHC2H2C2HSHCSHCH4Fe2HCH3CHCNHC4H8C2H3SC2H3CH4CHSH3CH3C2HCH2SH2C2FeNCH3CSHCHC2H2SH3CH4SC3FeH4C3H2CH2CH2C4H2FeH10CH4C3HSCH7CH9CHCHNCH2CH2CH5NHS2H8CSHCH3CS2H4C2H6FeS2FeS2FeCFeS3CHSHFeSHSHFeHSFeCSH3S3H2C3H2CH2FeHC2H4CHCSHCH3FeNC3HSH6CH2SH3C3H2C2H5CHCH2CH2C6H5CH3C2H2CNCH2CHCNH4C2HFeC5FeH2CH3CHCHC2HCHCHNH12NC12H25FeH2SH3FeCHSH3C2H5CHC2NC2HFeHSH4C3H4CNC6HC2SH2CH3CH8CH5CH3C3S2H3CH2CH3C4SH3SH3FeHSC2HC2HCH3FeH2SH2C4H2CHC2HC2H2CH3S2C2HCH2SC2H5CHCH8CSHCHCH2C2HC4H2CH5CH2C2H2CNH5CH3CH2SH3CH2C2H5CH9
_chemical_formula_sum              "Fe576 H9216 S1152 C5184 N288"
_cell_length_a       121.614
_cell_length_b       121.555
_cell_length_c       121.492
_cell_angle_alpha    73.7796
_cell_angle_beta     73.493
_cell_angle_gamma    73.4039

_space_group_name_H-M_alt    "P 1"
_space_group_IT_number       1

loop_
  _space_group_symop_operation_xyz
  'x, y, z'

loop_
  _atom_site_type_symbol
  _atom_site_label
  _atom_site_symmetry_multiplicity
  _atom_site_fract_x
  _atom_site_fract_y
  _atom_site_fract_z
  _atom_site_occupancy
  Fe  Fe1       1.0  0.47998  0.15786  0.05600  1.0000
  H   H1        1.0  0.46447  0.13156  0.03116  1.0000
  S   S1        1.0  0.47020  0.14350  0.06075  1.0000
  Fe  Fe2       1.0  0.47641  0.18326  0.05747  1.0000
  H   H2        1.0  0.45696  0.12978  0.05295  1.0000
  S   S2        1.0  0.46248  0.19821  0.06396  1.0000
  H   H3        1.0  0.44354  0.00036  0.16425  1.0000
  H   H4        1.0  0.45015  0.01151  0.15419  1.0000
  H   H5        1.0  0.45824  0.04779  0.15012  1.0000
  C   C1        1.0  0.48691  0.01225  0.24048  1.0000
  S   S3        1.0  0.47332  0.17504  0.04460  1.0000
  S   S4        1.0  0.48146  0.16601  0.06981  1.0000
  H   H6        1.0  0.43007  0.00602  0.14981  1.0000
  C   C2        1.0  0.47036  0.15774  0.02147  1.0000
  H   H7        1.0  0.47248  0.18516  0.09945  1.0000
  C   C3        1.0  0.46609  0.21202  0.05904  1.0000
  C   C4        1.0  0.48847  0.04115  0.04203  1.0000
  C   C5        1.0  0.49396  0.11635  0.04794  1.0000
  C   C6        1.0  0.44918  0.17504  0.03174  1.0000
  H   H8        1.0  0.48533  0.07088  0.06646  1.0000
  H   H9        1.0  0.44097  0.16845  0.02190  1.0000
  H   H10       1.0  0.47801  0.04858  0.23108  1.0000
  H   H11       1.0  0.42743  0.00552  0.20768  1.0000
  C   C7        1.0  0.48956  0.01772  0.15627  1.0000
  H   H12       1.0  0.49565  0.23249  0.07891  1.0000
  H   H13       1.0  0.45069  0.22042  0.07025  1.0000
  H   H14       1.0  0.48232  0.04705  0.04771  1.0000
  H   H15       1.0  0.44056  0.19227  0.02289  1.0000
  H   H16       1.0  0.47080  0.16058  0.02926  1.0000
  C   C8        1.0  0.46042  0.00514  0.17189  1.0000
  H   H17       1.0  0.48034  0.14271  0.01316  1.0000
  H   H18       1.0  0.43061  0.18383  0.03361  1.0000
  H   H19       1.0  0.49124  0.05856  0.07703  1.0000
  H   H20       1.0  0.47286  0.16481  0.01386  1.0000
  C   C9        1.0  0.45525  0.13574  0.03471  1.0000
  C   C10       1.0  0.45415  0.03080  0.15898  1.0000
  C   C11       1.0  0.47842  0.12944  0.05893  1.0000
  C   C12       1.0  0.48805  0.12780  0.04946  1.0000
  H   H21       1.0  0.48181  0.20645  0.04661  1.0000
  H   H22       1.0  0.41942  0.00217  0.19900  1.0000
  C   C13       1.0  0.46130  0.15934  0.99985  1.0000
  C   C14       1.0  0.47483  0.11967  0.06690  1.0000
  H   H23       1.0  0.47329  0.21125  0.00340  1.0000
  H   H24       1.0  0.46992  0.18302  0.08641  1.0000
  H   H25       1.0  0.46361  0.02653  0.15716  1.0000
  H   H26       1.0  0.46733  0.12090  0.07416  1.0000
  H   H27       1.0  0.48419  0.17682  0.08991  1.0000
  C   C15       1.0  0.46875  0.18985  0.00627  1.0000
  H   H28       1.0  0.45521  0.16808  0.99826  1.0000
  C   C16       1.0  0.46434  0.04019  0.23179  1.0000
  C   C17       1.0  0.47144  0.04386  0.23673  1.0000
  H   H29       1.0  0.47136  0.21435  0.02070  1.0000
  C   C18       1.0  0.42217  0.00932  0.20083  1.0000
  H   H30       1.0  0.47892  0.22031  0.09047  1.0000
  C   C19       1.0  0.48446  0.21990  0.08150  1.0000
  C   C20       1.0  0.45724  0.15214  0.01242  1.0000
  H   H31       1.0  0.44215  0.13243  0.05107  1.0000
  C   C21       1.0  0.45003  0.16883  0.02187  1.0000
  H   H32       1.0  0.43927  0.19067  0.03838  1.0000
  H   H33       1.0  0.47830  0.10080  0.07202  1.0000
  H   H34       1.0  0.43537  0.01921  0.14191  1.0000
  H   H35       1.0  0.45748  0.17781  0.03031  1.0000
  C   C22       1.0  0.49040  0.22453  0.01104  1.0000
  C   C23       1.0  0.48831  0.23172  0.07568  1.0000
  H   H36       1.0  0.48886  0.12924  0.09339  1.0000
  H   H37       1.0  0.46248  0.14300  0.01263  1.0000
  H   H38       1.0  0.43799  0.99911  0.18432  1.0000
  H   H39       1.0  0.48578  0.06034  0.14526  1.0000
  C   C24       1.0  0.46171  0.23255  0.06011  1.0000
  C   C25       1.0  0.44054  0.00720  0.18436  1.0000
  C   C26       1.0  0.48924  0.19845  0.08849  1.0000
  H   H40       1.0  0.48782  0.21266  0.99468  1.0000
  C   C27       1.0  0.47657  0.18449  0.09018  1.0000
  H   H41       1.0  0.49327  0.00505  0.18394  1.0000
  H   H42       1.0  0.49094  0.20572  0.01260  1.0000
  C   C28       1.0  0.49356  0.21123  0.01684  1.0000
  Fe  Fe3       1.0  0.45777  0.01820  0.22033  1.0000
  C   C29       1.0  0.44893  0.22163  0.03127  1.0000
  C   C30       1.0  0.45870  0.22156  0.06373  1.0000
  H   H43       1.0  0.45295  0.11953  0.04745  1.0000
  H   H44       1.0  0.48693  0.22580  0.03995  1.0000
  C   C31       1.0  0.45578  0.03415  0.23907  1.0000
  H   H45       1.0  0.48446  0.19465  0.07387  1.0000
  C   C32       1.0  0.49134  0.12799  0.08423  1.0000
  S   S5        1.0  0.46143  0.99879  0.22773  1.0000
  H   H46       1.0  0.45770  0.14967  0.04108  1.0000
  C   C33       1.0  0.49228  0.14891  0.01859  1.0000
  C   C34       1.0  0.47217  0.23400  0.05185  1.0000
  H   H47       1.0  0.49045  0.03737  0.19807  1.0000
  S   S6        1.0  0.44683  0.02956  0.23298  1.0000
  C   C35       1.0  0.48737  0.01570  0.16858  1.0000
  H   H48       1.0  0.44396  0.04861  0.16003  1.0000
  H   H49       1.0  0.47835  0.21955  0.07636  1.0000
  H   H50       1.0  0.47488  0.18945  0.02142  1.0000
  H   H51       1.0  0.45038  0.03066  0.15172  1.0000
  H   H52       1.0  0.46705  0.23410  0.99707  1.0000
  S   S7        1.0  0.47638  0.01877  0.21074  1.0000
  H   H53       1.0  0.49079  0.05865  0.05179  1.0000
  C   C36       1.0  0.45158  0.12899  0.04732  1.0000
  C   C37       1.0  0.44371  0.00977  0.16270  1.0000
  H   H54       1.0  0.44597  0.00436  0.19107  1.0000
  C   C38       1.0  0.43127  0.01671  0.16101  1.0000
  H   H55       1.0  0.45989  0.19453  0.00944  1.0000
  H   H56       1.0  0.49289  0.22909  0.01648  1.0000
  H   H57       1.0  0.45716  0.04428  0.16574  1.0000
  N   N1        1.0  0.45803  0.15670  0.02246  1.0000
  H   H58       1.0  0.47884  0.13981  0.02889  1.0000
  H   H59       1.0  0.44397  0.15218  0.03745  1.0000
  C   C39       1.0  0.45329  0.04366  0.15874  1.0000
  H   H60       1.0  0.45112  0.02572  0.17803  1.0000
  H   H61       1.0  0.41417  0.01561  0.20433  1.0000
  C   C40       1.0  0.48887  0.18156  0.00860  1.0000
  C   C41       1.0  0.49040  0.05097  0.14744  1.0000
  H   H62       1.0  0.48407  0.04602  0.15398  1.0000
  H   H63       1.0  0.47520  0.04338  0.03236  1.0000
  H   H64       1.0  0.44961  0.13459  0.02953  1.0000
  Fe  Fe4       1.0  0.47131  0.01562  0.19565  1.0000
  H   H65       1.0  0.45604  0.23987  0.06384  1.0000
  H   H66       1.0  0.49260  0.15288  0.02565  1.0000
  C   C42       1.0  0.47631  0.21361  0.05054  1.0000
  S   S8        1.0  0.49500  0.18413  0.04802  1.0000
  H   H67       1.0  0.48710  0.01219  0.23135  1.0000
  C   C43       1.0  0.49059  0.10660  0.05621  1.0000
  H   H68       1.0  0.46400  0.00722  0.17837  1.0000
  H   H69       1.0  0.42994  0.02622  0.16050  1.0000
  H   H70       1.0  0.49338  0.04746  0.13930  1.0000
  H   H71       1.0  0.49076  0.13534  0.04323  1.0000
  C   C44       1.0  0.48015  0.14644  0.02057  1.0000
  H   H72       1.0  0.44756  0.16928  0.04063  1.0000
  H   H73       1.0  0.44798  0.15167  0.01338  1.0000
  C   C45       1.0  0.47724  0.18701  0.01302  1.0000
  C   C46       1.0  0.48705  0.06115  0.06939  1.0000
  H   H74       1.0  0.43838  0.03006  0.17229  1.0000
  C   C47       1.0  0.43928  0.18613  0.03160  1.0000
  H   H75       1.0  0.46536  0.04217  0.22235  1.0000
  C   C48       1.0  0.45362  0.14901  0.03422  1.0000
  S   S9        1.0  0.45226  0.01688  0.20471  1.0000
  C   C49       1.0  0.47931  0.22457  0.04690  1.0000
  S   S10       1.0  0.47607  0.02501  0.17656  1.0000
  H   H76       1.0  0.43940  0.22500  0.03138  1.0000
  H   H77       1.0  0.45297  0.17494  0.01352  1.0000
  N   N2        1.0  0.49430  0.20903  0.08187  1.0000
  N   N3        1.0  0.44777  0.01186  0.17242  1.0000
  H   H78       1.0  0.49400  0.20932  0.06399  1.0000
  C   C50       1.0  0.47828  0.21683  0.99603  1.0000
  H   H79       1.0  0.48673  0.03032  0.03127  1.0000
  C   C51       1.0  0.44750  0.02468  0.17101  1.0000
  C   C52       1.0  0.46945  0.22394  0.02014  1.0000
  C   C53       1.0  0.49197  0.17890  0.99751  1.0000
  H   H80       1.0  0.42454  0.01312  0.16838  1.0000
  H   H81       1.0  0.47244  0.20296  0.08298  1.0000
  H   H82       1.0  0.48718  0.12109  0.08388  1.0000
  H   H83       1.0  0.42351  0.02013  0.18342  1.0000
  C   C54       1.0  0.47187  0.18708  0.99518  1.0000
  C   C55       1.0  0.48048  0.19578  0.08302  1.0000
  C   C56       1.0  0.42933  0.01574  0.18965  1.0000
  H   H84       1.0  0.43185  0.02269  0.19210  1.0000
  H   H85       1.0  0.48907  0.20965  0.02626  1.0000
  H   H86       1.0  0.48440  0.19953  0.09751  1.0000
  C   C57       1.0  0.48100  0.10831  0.06565  1.0000
  H   H87       1.0  0.47032  0.16062  0.99835  1.0000
  C   C58       1.0  0.48102  0.03609  0.03732  1.0000
  N   N4        1.0  0.47776  0.22983  0.00988  1.0000
  H   H88       1.0  0.46611  0.00782  0.16313  1.0000
  H   H89       1.0  0.48428  0.02522  0.15145  1.0000
  H   H90       1.0  0.45129  0.21212  0.03117  1.0000
  Fe  Fe5       1.0  0.47962  0.99917  0.21706  1.0000
  Fe  Fe6       1.0  0.49232  0.17444  0.03615  1.0000
  H   H91       1.0  0.47850  0.05846  0.07214  1.0000
  Fe  Fe7       1.0  0.45763  0.99739  0.21130  1.0000
  S   S11       1.0  0.47621  0.99593  0.20120  1.0000
  H   H92       1.0  0.47081  0.22485  0.02848  1.0000
  C   C59       1.0  0.47605  0.22923  0.99825  1.0000
  H   H93       1.0  0.42001  0.02021  0.14884  1.0000
  H   H94       1.0  0.47541  0.03097  0.04466  1.0000
  C   C60       1.0  0.42909  0.01543  0.14969  1.0000
  H   H95       1.0  0.45404  0.22726  0.01256  1.0000
  H   H96       1.0  0.48785  0.13640  0.07846  1.0000
  C   C61       1.0  0.45612  0.22846  0.02041  1.0000
  H   H97       1.0  0.45052  0.22271  0.03945  1.0000
  C   C62       1.0  0.49446  0.00625  0.17463  1.0000
  H   H98       1.0  0.49123  0.23255  0.06601  1.0000
  H   H99       1.0  0.49237  0.22232  0.09913  1.0000
  H   H100      1.0  0.49000  0.03895  0.06804  1.0000
  H   H101      1.0  0.49293  0.20715  0.10642  1.0000
  H   H102      1.0  0.45312  0.23787  0.02085  1.0000
  H   H103      1.0  0.49434  0.15503  0.01000  1.0000
  C   C63       1.0  0.47494  0.24267  0.01024  1.0000
  H   H104      1.0  0.47553  0.24225  0.08755  1.0000
  C   C64       1.0  0.49515  0.05554  0.05930  1.0000
  H   H105      1.0  0.49519  0.05043  0.18911  1.0000
  H   H106      1.0  0.49453  0.03768  0.17692  1.0000
  H   H107      1.0  0.49052  0.02667  0.05666  1.0000
  H   H108      1.0  0.47041  0.24183  0.07511  1.0000
  H   H109      1.0  0.49363  0.04635  0.03434  1.0000
  C   C65       1.0  0.47813  0.24218  0.07804  1.0000
  H   H110      1.0  0.48347  0.02131  0.24176  1.0000
  H   H111      1.0  0.06375  0.16228  0.35442  1.0000
  H   H112      1.0  0.26677  0.02862  0.39739  1.0000
  C   C66       1.0  0.29035  0.00252  0.40941  1.0000
  Fe  Fe8       1.0  0.05976  0.09291  0.47242  1.0000
  H   H113      1.0  0.10174  0.19503  0.40766  1.0000
  H   H114      1.0  0.42697  0.00619  0.38340  1.0000
  H   H115      1.0  0.28065  0.02031  0.45246  1.0000
  C   C67       1.0  0.05901  0.17221  0.39320  1.0000
  H   H116      1.0  0.29119  0.03396  0.47985  1.0000
  H   H117      1.0  0.11232  0.20946  0.49058  1.0000
  H   H118      1.0  0.46883  0.02511  0.37275  1.0000
  H   H119      1.0  0.28247  0.05639  0.46980  1.0000
  C   C68       1.0  0.05262  0.21856  0.39072  1.0000
  C   C69       1.0  0.05531  0.22944  0.38911  1.0000
  C   C70       1.0  0.05295  0.23466  0.39868  1.0000
  C   C71       1.0  0.28059  0.01737  0.37255  1.0000
  S   S12       1.0  0.06497  0.09576  0.45274  1.0000
  H   H120      1.0  0.05451  0.21457  0.38328  1.0000
  H   H121      1.0  0.05938  0.23375  0.38045  1.0000
  H   H122      1.0  0.04129  0.21358  0.42022  1.0000
  H   H123      1.0  0.01668  0.15574  0.42713  1.0000
  C   C72       1.0  0.06954  0.21681  0.48596  1.0000
  H   H124      1.0  0.10582  0.15551  0.47998  1.0000
  H   H125      1.0  0.44216  0.01519  0.35274  1.0000
  C   C73       1.0  0.10756  0.18998  0.42381  1.0000
  C   C74       1.0  0.06935  0.20933  0.42720  1.0000
  C   C75       1.0  0.44859  0.01740  0.33404  1.0000
  H   H126      1.0  0.32376  0.01039  0.44740  1.0000
  C   C76       1.0  0.06724  0.13338  0.43337  1.0000
  H   H127      1.0  0.01233  0.23410  0.45579  1.0000
  H   H128      1.0  0.28814  0.99786  0.43511  1.0000
  H   H129      1.0  0.07592  0.18602  0.38571  1.0000
  H   H130      1.0  0.28624  0.03166  0.39675  1.0000
  H   H131      1.0  0.46952  0.00861  0.24571  1.0000
  H   H132      1.0  0.05558  0.11799  0.46015  1.0000
  C   C77       1.0  0.00110  0.18072  0.44944  1.0000
  H   H133      1.0  0.06794  0.15508  0.37817  1.0000
  C   C78       1.0  0.02607  0.11923  0.45764  1.0000
  H   H134      1.0  0.09097  0.20500  0.47956  1.0000
  S   S13       1.0  0.30694  0.01609  0.40318  1.0000
  H   H135      1.0  0.07402  0.16147  0.40092  1.0000
  C   C79       1.0  0.04759  0.22909  0.40985  1.0000
  C   C80       1.0  0.01527  0.22650  0.43652  1.0000
  H   H136      1.0  0.09303  0.17938  0.45057  1.0000
  H   H137      1.0  0.44432  0.99820  0.38701  1.0000
  H   H138      1.0  0.28212  0.03035  0.47312  1.0000
  N   N5        1.0  0.08548  0.14357  0.46438  1.0000
  H   H139      1.0  0.02639  0.11288  0.46623  1.0000
  C   C81       1.0  0.04774  0.21273  0.40195  1.0000
  C   C82       1.0  0.28647  0.01199  0.45013  1.0000
  C   C83       1.0  0.28431  0.02305  0.40048  1.0000
  C   C84       1.0  0.01920  0.13610  0.46756  1.0000
  S   S14       1.0  0.04502  0.19887  0.40362  1.0000
  C   C85       1.0  0.04519  0.21800  0.41154  1.0000
  C   C86       1.0  0.25585  0.02063  0.43274  1.0000
  H   H140      1.0  0.48398  0.01334  0.33437  1.0000
  H   H141      1.0  0.08371  0.10807  0.45636  1.0000
  H   H142      1.0  0.29166  0.03380  0.43709  1.0000
  H   H143      1.0  0.03345  0.09693  0.44202  1.0000
  H   H144      1.0  0.24949  0.02568  0.43914  1.0000
  C   C87       1.0  0.03652  0.18089  0.38596  1.0000
  S   S15       1.0  0.07185  0.09481  0.48235  1.0000
  N   N6        1.0  0.05384  0.16346  0.39072  1.0000
  C   C88       1.0  0.02385  0.14769  0.42695  1.0000
  H   H145      1.0  0.30324  0.04634  0.46389  1.0000
  H   H146      1.0  0.30404  0.02476  0.44334  1.0000
  C   C89       1.0  0.42191  0.00386  0.36882  1.0000
  C   C90       1.0  0.02484  0.11269  0.44890  1.0000
  H   H147      1.0  0.01382  0.14527  0.46690  1.0000
  S   S16       1.0  0.03970  0.17001  0.42459  1.0000
  H   H148      1.0  0.03771  0.18723  0.39033  1.0000
  C   C91       1.0  0.36884  0.99858  0.43926  1.0000
  S   S17       1.0  0.01251  0.16843  0.45200  1.0000
  H   H149      1.0  0.00870  0.14693  0.44957  1.0000
  C   C92       1.0  0.07686  0.17884  0.39362  1.0000
  H   H150      1.0  0.05768  0.18072  0.38669  1.0000
  H   H151      1.0  0.06611  0.14839  0.39839  1.0000
  H   H152      1.0  0.06212  0.17004  0.37258  1.0000
  H   H153      1.0  0.10444  0.01699  0.45171  1.0000
  H   H154      1.0  0.18448  0.06047  0.47691  1.0000
  C   C93       1.0  0.49322  0.03819  0.33199  1.0000
  C   C94       1.0  0.27164  0.00486  0.47363  1.0000
  H   H155      1.0  0.07756  0.16528  0.38506  1.0000
  Fe  Fe9       1.0  0.04420  0.18738  0.42168  1.0000
  H   H156      1.0  0.03636  0.16239  0.39050  1.0000
  H   H157      1.0  0.05435  0.17433  0.40191  1.0000
  H   H158      1.0  0.05401  0.15307  0.35558  1.0000
  H   H159      1.0  0.46154  0.05030  0.30898  1.0000
  H   H160      1.0  0.07185  0.18232  0.40159  1.0000
  H   H161      1.0  0.08629  0.17587  0.39398  1.0000
  H   H162      1.0  0.07427  0.12415  0.46662  1.0000
  H   H163      1.0  0.20134  0.01509  0.47055  1.0000
  H   H164      1.0  0.03192  0.15020  0.42095  1.0000
  Fe  Fe10      1.0  0.02990  0.17287  0.44247  1.0000
  C   C95       1.0  0.27072  0.01022  0.40553  1.0000
  H   H165      1.0  0.44768  0.02717  0.25693  1.0000
  C   C96       1.0  0.05961  0.15503  0.36028  1.0000
  C   C97       1.0  0.00273  0.18942  0.43919  1.0000
  H   H166      1.0  0.26233  0.01563  0.45405  1.0000
  H   H167      1.0  0.45721  0.05407  0.32316  1.0000
  H   H168      1.0  0.99782  0.21841  0.47959  1.0000
  H   H169      1.0  0.43882  0.00356  0.32179  1.0000
  S   S18       1.0  0.48027  0.04446  0.25479  1.0000
  H   H170      1.0  0.17750  0.04806  0.47035  1.0000
  H   H171      1.0  0.05117  0.15314  0.48423  1.0000
  H   H172      1.0  0.01064  0.13492  0.44328  1.0000
  H   H173      1.0  0.30259  0.00768  0.43691  1.0000
  H   H174      1.0  0.29525  0.01091  0.35959  1.0000
  H   H175      1.0  0.07421  0.21894  0.40004  1.0000
  H   H176      1.0  0.03680  0.16798  0.40220  1.0000
  C   C98       1.0  0.05207  0.15858  0.37169  1.0000
  C   C99       1.0  0.06381  0.18827  0.46225  1.0000
  C   C100      1.0  0.27328  0.02133  0.40086  1.0000
  C   C101      1.0  0.07234  0.16851  0.39310  1.0000
  H   H177      1.0  0.06751  0.14155  0.47129  1.0000
  C   C102      1.0  0.08512  0.18281  0.45651  1.0000
  C   C103      1.0  0.11322  0.20782  0.48177  1.0000
  H   H178      1.0  0.27272  0.01493  0.37905  1.0000
  H   H179      1.0  0.11706  0.19200  0.47458  1.0000
  H   H180      1.0  0.45538  0.04032  0.32169  1.0000
  C   C104      1.0  0.05952  0.16185  0.37829  1.0000
  H   H181      1.0  0.28190  0.00747  0.35971  1.0000
  H   H182      1.0  0.04543  0.23329  0.41718  1.0000
  H   H183      1.0  0.45150  0.01647  0.28295  1.0000
  H   H184      1.0  0.44109  0.02433  0.33206  1.0000
  H   H185      1.0  0.06660  0.14703  0.36217  1.0000
  H   H186      1.0  0.41936  0.01352  0.36553  1.0000
  C   C105      1.0  0.07403  0.18450  0.45411  1.0000
  Fe  Fe11      1.0  0.04870  0.18196  0.44599  1.0000
  H   H187      1.0  0.09365  0.00990  0.45088  1.0000
  C   C106      1.0  0.23975  0.05435  0.48497  1.0000
  H   H188      1.0  0.46688  0.02053  0.35480  1.0000
  C   C107      1.0  0.30992  0.00730  0.48074  1.0000
  C   C108      1.0  0.46183  0.03493  0.25622  1.0000
  H   H189      1.0  0.10065  0.07611  0.48912  1.0000
  H   H190      1.0  0.09577  0.23478  0.47314  1.0000
  C   C109      1.0  0.18835  0.99652  0.44867  1.0000
  H   H191      1.0  0.46779  0.02867  0.33627  1.0000
  H   H192      1.0  0.19901  0.02458  0.44572  1.0000
  H   H193      1.0  0.06663  0.20603  0.42097  1.0000
  H   H194      1.0  0.35631  0.00872  0.47090  1.0000
  H   H195      1.0  0.26212  0.00293  0.44995  1.0000
  S   S19       1.0  0.47801  0.01540  0.28025  1.0000
  H   H196      1.0  0.01787  0.05632  0.46707  1.0000
  H   H197      1.0  0.05039  0.13387  0.41797  1.0000
  S   S20       1.0  0.04535  0.16389  0.45068  1.0000
  H   H198      1.0  0.10672  0.20568  0.46325  1.0000
  H   H199      1.0  0.27817  0.04947  0.46089  1.0000
  H   H200      1.0  0.41429  0.00606  0.42299  1.0000
  C   C110      1.0  0.05125  0.14191  0.39930  1.0000
  H   H201      1.0  0.10444  0.19132  0.43298  1.0000
  H   H202      1.0  0.02799  0.15314  0.47170  1.0000
  C   C111      1.0  0.47805  0.00512  0.24845  1.0000
  C   C112      1.0  0.09454  0.14781  0.46746  1.0000
  S   S21       1.0  0.45639  0.02028  0.31037  1.0000
  H   H203      1.0  0.08452  0.06007  0.48110  1.0000
  H   H204      1.0  0.10312  0.99885  0.46728  1.0000
  H   H205      1.0  0.01652  0.13152  0.47689  1.0000
  C   C113      1.0  0.03213  0.13657  0.46610  1.0000
  H   H206      1.0  0.41576  0.99968  0.36705  1.0000
  H   H207      1.0  0.17064  0.06908  0.48223  1.0000
  H   H208      1.0  0.09612  0.20683  0.37451  1.0000
  Fe  Fe12      1.0  0.05556  0.16272  0.43240  1.0000
  C   C114      1.0  0.09247  0.15856  0.43106  1.0000
  H   H209      1.0  0.04162  0.18249  0.37674  1.0000
  S   S22       1.0  0.03266  0.19109  0.43876  1.0000
  H   H210      1.0  0.99811  0.16940  0.43066  1.0000
  H   H211      1.0  0.09415  0.22609  0.43880  1.0000
  H   H212      1.0  0.02147  0.14137  0.42345  1.0000
  H   H213      1.0  0.05657  0.13849  0.44936  1.0000
  H   H214      1.0  0.05336  0.15371  0.40863  1.0000
  C   C115      1.0  0.42143  0.00113  0.38199  1.0000
  H   H215      1.0  0.03496  0.12114  0.45438  1.0000
  C   C116      1.0  0.07306  0.12394  0.42789  1.0000
  H   H216      1.0  0.03378  0.13465  0.43846  1.0000
  C   C117      1.0  0.18162  0.00480  0.45542  1.0000
  C   C118      1.0  0.06462  0.19082  0.47245  1.0000
  S   S23       1.0  0.04986  0.18910  0.46049  1.0000
  C   C119      1.0  0.47566  0.01786  0.35695  1.0000
  C   C120      1.0  0.03491  0.10189  0.44769  1.0000
  C   C121      1.0  0.01496  0.13857  0.44796  1.0000
  C   C122      1.0  0.01755  0.06270  0.47222  1.0000
  S   S24       1.0  0.14748  0.02825  0.48876  1.0000
  H   H217      1.0  0.09584  0.23199  0.45599  1.0000
  C   C123      1.0  0.02611  0.14215  0.43927  1.0000
  H   H218      1.0  0.02068  0.19299  0.38144  1.0000
  C   C124      1.0  0.01851  0.21880  0.44795  1.0000
  C   C125      1.0  0.06011  0.11970  0.45105  1.0000
  C   C126      1.0  0.09186  0.21373  0.39023  1.0000
  H   H219      1.0  0.09947  0.15638  0.42332  1.0000
  C   C127      1.0  0.44915  0.01216  0.34574  1.0000
  C   C128      1.0  0.01184  0.22468  0.45853  1.0000
  H   H220      1.0  0.01664  0.07166  0.46651  1.0000
  H   H221      1.0  0.32326  0.02572  0.45754  1.0000
  H   H222      1.0  0.02852  0.14886  0.44214  1.0000
  H   H223      1.0  0.99628  0.13932  0.47668  1.0000
  C   C129      1.0  0.09998  0.04583  0.48003  1.0000
  H   H224      1.0  0.04494  0.16623  0.36931  1.0000
  C   C130      1.0  0.06068  0.13128  0.44495  1.0000
  H   H225      1.0  0.46089  0.03283  0.26565  1.0000
  H   H226      1.0  0.30520  0.02777  0.42774  1.0000
  C   C131      1.0  0.29915  0.02604  0.43649  1.0000
  H   H227      1.0  0.40898  0.00106  0.45879  1.0000
  C   C132      1.0  0.27636  0.02899  0.36440  1.0000
  H   H228      1.0  0.25262  0.01293  0.43285  1.0000
  H   H229      1.0  0.27762  0.01052  0.47299  1.0000
  C   C133      1.0  0.05374  0.13133  0.40930  1.0000
  H   H230      1.0  0.04785  0.15128  0.37702  1.0000
  H   H231      1.0  0.09190  0.10705  0.46694  1.0000
  C   C134      1.0  0.41088  0.99791  0.42645  1.0000
  C   C135      1.0  0.45771  0.01378  0.32489  1.0000
  S   S25       1.0  0.06069  0.17999  0.42849  1.0000
  C   C136      1.0  0.29293  0.01365  0.40467  1.0000
  Fe  Fe13      1.0  0.31976  0.00189  0.41251  1.0000
  C   C137      1.0  0.04068  0.16813  0.39269  1.0000
  H   H232      1.0  0.48011  0.00911  0.35486  1.0000
  H   H233      1.0  0.05544  0.13881  0.39100  1.0000
  H   H234      1.0  0.01114  0.18875  0.43300  1.0000
  H   H235      1.0  0.10274  0.21155  0.44332  1.0000
  C   C138      1.0  0.02345  0.18367  0.38594  1.0000
  H   H236      1.0  0.43097  0.00058  0.36396  1.0000
  C   C139      1.0  0.05646  0.15205  0.39955  1.0000
  H   H237      1.0  0.02961  0.14004  0.48324  1.0000
  C   C140      1.0  0.06563  0.11031  0.44542  1.0000
  H   H238      1.0  0.25638  0.02636  0.42379  1.0000
  H   H239      1.0  0.02156  0.18573  0.46378  1.0000
  H   H240      1.0  0.46806  0.01009  0.37489  1.0000
  C   C141      1.0  0.45164  0.00887  0.27949  1.0000
  C   C142      1.0  0.20872  0.00724  0.47023  1.0000
  C   C143      1.0  0.09837  0.19694  0.41659  1.0000
  H   H241      1.0  0.02175  0.17796  0.38118  1.0000
  Fe  Fe14      1.0  0.47342  0.02131  0.29720  1.0000
  H   H242      1.0  0.02505  0.11844  0.44001  1.0000
  C   C144      1.0  0.26162  0.04491  0.48208  1.0000
  H   H243      1.0  0.02597  0.06037  0.47509  1.0000
  C   C145      1.0  0.31983  0.00954  0.45668  1.0000
  C   C146      1.0  0.26753  0.00938  0.44833  1.0000
  Fe  Fe15      1.0  0.48339  0.03252  0.27196  1.0000
  H   H244      1.0  0.08159  0.24035  0.41888  1.0000
  N   N7        1.0  0.08565  0.21823  0.41103  1.0000
  S   S26       1.0  0.17716  0.02521  0.46320  1.0000
  S   S27       1.0  0.31483  0.02771  0.48174  1.0000
  H   H245      1.0  0.16574  0.05404  0.45488  1.0000
  C   C147      1.0  0.09612  0.21035  0.41583  1.0000
  C   C148      1.0  0.10762  0.14584  0.48118  1.0000
  C   C149      1.0  0.07490  0.22006  0.42087  1.0000
  H   H246      1.0  0.06335  0.12752  0.40806  1.0000
  N   N8        1.0  0.10334  0.21598  0.47622  1.0000
  H   H247      1.0  0.44961  0.00339  0.30373  1.0000
  H   H248      1.0  0.09738  0.11274  0.45145  1.0000
  C   C150      1.0  0.00732  0.06231  0.48299  1.0000
  S   S28       1.0  0.25727  0.00818  0.40465  1.0000
  C   C151      1.0  0.34426  0.99698  0.47578  1.0000
  H   H249      1.0  0.12679  0.06962  0.47687  1.0000
  H   H250      1.0  0.10444  0.21294  0.41041  1.0000
  C   C152      1.0  0.47037  0.04100  0.24894  1.0000
  H   H251      1.0  0.08380  0.16011  0.42892  1.0000
  H   H252      1.0  0.03620  0.14021  0.45698  1.0000
  C   C153      1.0  0.01053  0.19894  0.47367  1.0000
  C   C154      1.0  0.46737  0.00477  0.32748  1.0000
  C   C155      1.0  0.15754  0.05531  0.46182  1.0000
  H   H253      1.0  0.23369  0.02187  0.45886  1.0000
  C   C156      1.0  0.19251  0.03620  0.48454  1.0000
  C   C157      1.0  0.29477  0.01505  0.43788  1.0000
  C   C158      1.0  0.26803  0.01660  0.43558  1.0000
  S   S29       1.0  0.47708  0.03910  0.28856  1.0000
  H   H254      1.0  0.06790  0.22726  0.41740  1.0000
  C   C159      1.0  0.08349  0.15074  0.45249  1.0000
  C   C160      1.0  0.47357  0.01660  0.37021  1.0000
  H   H255      1.0  0.29060  0.01652  0.43046  1.0000
  H   H256      1.0  0.04158  0.14459  0.40028  1.0000
  H   H257      1.0  0.08858  0.21987  0.45983  1.0000
  H   H258      1.0  0.29926  0.03812  0.45590  1.0000
  S   S30       1.0  0.32939  0.00580  0.42380  1.0000
  H   H259      1.0  0.23137  0.05574  0.49166  1.0000
  H   H260      1.0  0.10246  0.14744  0.44350  1.0000
  C   C161      1.0  0.19602  0.01675  0.44659  1.0000
  H   H261      1.0  0.07362  0.16284  0.47533  1.0000
  H   H262      1.0  0.00490  0.20298  0.46718  1.0000
  H   H263      1.0  0.08167  0.16026  0.45243  1.0000
  C   C162      1.0  0.23653  0.01349  0.46451  1.0000
  C   C163      1.0  0.49040  0.01901  0.33201  1.0000
  S   S31       1.0  0.49112  0.01336  0.30145  1.0000
  H   H264      1.0  0.02396  0.20248  0.47976  1.0000
  H   H265      1.0  0.29245  0.00860  0.45638  1.0000
  H   H266      1.0  0.10932  0.22422  0.43913  1.0000
  C   C164      1.0  0.11406  0.23298  0.47188  1.0000
  H   H267      1.0  0.29182  0.05072  0.48557  1.0000
  C   C165      1.0  0.16944  0.04871  0.47755  1.0000
  C   C166      1.0  0.18538  0.01499  0.45438  1.0000
  C   C167      1.0  0.02517  0.22439  0.47092  1.0000
  H   H268      1.0  0.00755  0.21702  0.48865  1.0000
  H   H269      1.0  0.10769  0.00856  0.44055  1.0000
  Fe  Fe16      1.0  0.13613  0.01865  0.48504  1.0000
  H   H270      1.0  0.06091  0.21337  0.44441  1.0000
  C   C168      1.0  0.09007  0.13067  0.46430  1.0000
  H   H271      1.0  0.34572  0.01264  0.46177  1.0000
  S   S32       1.0  0.06871  0.14759  0.42561  1.0000
  H   H272      1.0  0.99653  0.18314  0.42008  1.0000
  N   N9        1.0  0.27916  0.00324  0.45163  1.0000
  H   H273      1.0  0.05172  0.16803  0.48347  1.0000
  H   H274      1.0  0.27127  0.02461  0.43440  1.0000
  H   H275      1.0  0.19674  0.07027  0.48234  1.0000
  H   H276      1.0  0.27378  0.01141  0.42911  1.0000
  H   H277      1.0  0.17368  0.00312  0.46158  1.0000
  H   H278      1.0  0.01035  0.09388  0.46506  1.0000
  H   H279      1.0  0.33486  0.99799  0.47611  1.0000
  H   H280      1.0  0.02509  0.08801  0.47744  1.0000
  H   H281      1.0  0.00650  0.11903  0.47339  1.0000
  C   C169      1.0  0.29682  0.04649  0.45889  1.0000
  C   C170      1.0  0.06770  0.15808  0.47409  1.0000
  H   H282      1.0  0.23874  0.04947  0.47896  1.0000
  H   H283      1.0  0.03551  0.09596  0.45641  1.0000
  C   C171      1.0  0.46114  0.04671  0.31852  1.0000
  C   C172      1.0  0.20298  0.00822  0.44013  1.0000
  H   H284      1.0  0.07685  0.22300  0.42787  1.0000
  H   H285      1.0  0.01808  0.18242  0.39509  1.0000
  C   C173      1.0  0.09375  0.14843  0.44175  1.0000
  H   H286      1.0  0.07834  0.12549  0.41903  1.0000
  C   C174      1.0  0.00020  0.23493  0.48047  1.0000
  H   H287      1.0  0.48762  0.04989  0.34444  1.0000
  C   C175      1.0  0.00752  0.09436  0.47421  1.0000
  H   H288      1.0  0.00234  0.12257  0.45972  1.0000
  H   H289      1.0  0.47977  0.05489  0.33280  1.0000
  H   H290      1.0  0.02708  0.22094  0.47987  1.0000
  H   H291      1.0  0.01778  0.23508  0.43453  1.0000
  H   H292      1.0  0.07337  0.18253  0.44622  1.0000
  C   C176      1.0  0.34707  0.00915  0.47088  1.0000
  C   C177      1.0  0.28596  0.99396  0.44463  1.0000
  C   C178      1.0  0.07203  0.11248  0.43380  1.0000
  H   H293      1.0  0.21118  0.00962  0.43419  1.0000
  H   H294      1.0  0.09329  0.16676  0.43279  1.0000
  C   C179      1.0  0.45438  0.03173  0.25130  1.0000
  C   C180      1.0  0.01585  0.09095  0.48121  1.0000
  H   H295      1.0  0.10620  0.19168  0.48816  1.0000
  H   H296      1.0  0.04937  0.12444  0.40936  1.0000
  H   H297      1.0  0.09385  0.14025  0.43932  1.0000
  C   C181      1.0  0.48847  0.05055  0.33496  1.0000
  C   C182      1.0  0.05838  0.21247  0.43666  1.0000
  H   H298      1.0  0.30599  0.99834  0.34894  1.0000
  C   C183      1.0  0.15983  0.05849  0.47217  1.0000
  S   S33       1.0  0.16714  0.00317  0.49117  1.0000
  H   H299      1.0  0.13265  0.18932  0.48527  1.0000
  H   H300      1.0  0.26294  0.01057  0.47253  1.0000
  H   H301      1.0  0.47721  0.03376  0.31534  1.0000
  H   H302      1.0  0.00567  0.22802  0.43722  1.0000
  H   H303      1.0  0.29735  0.05386  0.45106  1.0000
  C   C184      1.0  0.47352  0.04072  0.32049  1.0000
  H   H304      1.0  0.07647  0.10523  0.42946  1.0000
  H   H305      1.0  0.11495  0.21664  0.45893  1.0000
  H   H306      1.0  0.08131  0.20458  0.40575  1.0000
  H   H307      1.0  0.09640  0.23164  0.41854  1.0000
  H   H308      1.0  0.49173  0.02404  0.35288  1.0000
  H   H309      1.0  0.21378  0.00782  0.46097  1.0000
  H   H310      1.0  0.28394  0.03210  0.35790  1.0000
  H   H311      1.0  0.45772  0.00931  0.27072  1.0000
  C   C185      1.0  0.08268  0.12486  0.46009  1.0000
  H   H312      1.0  0.09159  0.19667  0.38796  1.0000
  C   C186      1.0  0.01998  0.20597  0.47190  1.0000
  H   H313      1.0  0.09035  0.19346  0.42060  1.0000
  Fe  Fe17      1.0  0.09341  0.17412  0.49120  1.0000
  C   C187      1.0  0.00523  0.12628  0.46554  1.0000
  C   C188      1.0  0.31952  0.01822  0.46242  1.0000
  H   H314      1.0  0.08065  0.12988  0.45154  1.0000
  H   H315      1.0  0.07928  0.22696  0.48992  1.0000
  S   S34       1.0  0.09912  0.18040  0.47162  1.0000
  C   C189      1.0  0.39591  0.00345  0.47485  1.0000
  H   H316      1.0  0.07541  0.14954  0.45079  1.0000
  S   S35       1.0  0.04371  0.10420  0.48144  1.0000
  H   H317      1.0  0.27163  0.03576  0.36969  1.0000
  H   H318      1.0  0.43765  0.00066  0.40172  1.0000
  H   H319      1.0  0.10912  0.18046  0.42411  1.0000
  C   C190      1.0  0.09711  0.22255  0.45624  1.0000
  H   H320      1.0  0.12114  0.22776  0.47656  1.0000
  H   H321      1.0  0.19159  0.03400  0.47662  1.0000
  H   H322      1.0  0.04339  0.10462  0.44355  1.0000
  H   H323      1.0  0.16677  0.04021  0.47951  1.0000
  C   C191      1.0  0.03700  0.22257  0.46182  1.0000
  H   H324      1.0  0.47888  0.04745  0.31687  1.0000
  N   N10       1.0  0.01664  0.13016  0.45945  1.0000
  H   H325      1.0  0.28633  0.01905  0.37726  1.0000
  C   C192      1.0  0.03305  0.14394  0.47395  1.0000
  H   H326      1.0  0.00918  0.18126  0.47460  1.0000
  C   C193      1.0  0.46779  0.99931  0.33925  1.0000
  H   H327      1.0  0.02817  0.21694  0.44669  1.0000
  H   H328      1.0  0.40432  0.01189  0.49035  1.0000
  H   H329      1.0  0.46798  0.04220  0.33882  1.0000
  H   H330      1.0  0.30711  0.99995  0.37303  1.0000
  H   H331      1.0  0.00240  0.22479  0.45962  1.0000
  H   H332      1.0  0.09089  0.22284  0.38479  1.0000
  H   H333      1.0  0.11602  0.19278  0.41981  1.0000
  H   H334      1.0  0.35335  0.02796  0.48540  1.0000
  H   H335      1.0  0.47862  0.03516  0.35363  1.0000
  C   C194      1.0  0.07560  0.18898  0.47491  1.0000
  H   H336      1.0  0.26076  0.03911  0.47681  1.0000
  C   C195      1.0  0.48314  0.02707  0.35018  1.0000
  C   C196      1.0  0.37454  0.01328  0.48986  1.0000
  C   C197      1.0  0.31473  0.01703  0.47452  1.0000
  H   H337      1.0  0.03735  0.12763  0.46887  1.0000
  C   C198      1.0  0.43090  0.99386  0.33832  1.0000
  C   C199      1.0  0.23656  0.01294  0.47612  1.0000
  H   H338      1.0  0.05672  0.19370  0.47877  1.0000
  H   H339      1.0  0.41218  0.00440  0.38646  1.0000
  C   C200      1.0  0.47320  0.03536  0.33374  1.0000
  C   C201      1.0  0.10322  0.00904  0.44981  1.0000
  C   C202      1.0  0.28747  0.00767  0.36551  1.0000
  H   H340      1.0  0.00477  0.19871  0.48260  1.0000
  H   H341      1.0  0.10101  0.21063  0.39154  1.0000
  C   C203      1.0  0.08834  0.23018  0.40503  1.0000
  H   H342      1.0  0.39841  0.01144  0.47503  1.0000
  H   H343      1.0  0.08118  0.23587  0.40057  1.0000
  H   H344      1.0  0.05444  0.22603  0.45805  1.0000
  H   H345      1.0  0.47432  0.00174  0.32045  1.0000
  H   H346      1.0  0.04242  0.14398  0.47288  1.0000
  C   C204      1.0  0.08994  0.20603  0.38325  1.0000
  C   C205      1.0  0.08583  0.18476  0.46711  1.0000
  C   C206      1.0  0.08937  0.11244  0.45864  1.0000
  H   H347      1.0  0.10312  0.14611  0.46116  1.0000
  H   H348      1.0  0.02218  0.23408  0.46981  1.0000
  C   C207      1.0  0.01615  0.18618  0.47274  1.0000
  H   H349      1.0  0.04074  0.21320  0.46162  1.0000
  C   C208      1.0  0.09711  0.14220  0.47986  1.0000
  H   H350      1.0  0.30605  0.00631  0.48997  1.0000
  H   H351      1.0  0.04793  0.22216  0.47349  1.0000
  C   C209      1.0  0.30996  0.99880  0.47497  1.0000
  H   H352      1.0  0.36407  0.00403  0.44553  1.0000
  C   C210      1.0  0.08276  0.21362  0.40213  1.0000
  C   C211      1.0  0.31498  0.99985  0.46296  1.0000
  H   H353      1.0  0.24141  0.06308  0.47991  1.0000
  C   C212      1.0  0.27924  0.00081  0.40990  1.0000
  H   H354      1.0  0.46493  0.99683  0.28805  1.0000
  H   H355      1.0  0.11410  0.07134  0.47112  1.0000
  H   H356      1.0  0.09924  0.12909  0.45891  1.0000
  H   H357      1.0  0.09650  0.22934  0.39798  1.0000
  S   S36       1.0  0.11943  0.02765  0.47856  1.0000
  H   H358      1.0  0.01604  0.21033  0.44934  1.0000
  H   H359      1.0  0.15079  0.06247  0.45796  1.0000
  C   C213      1.0  0.07395  0.14517  0.47332  1.0000
  H   H360      1.0  0.01650  0.10969  0.45184  1.0000
  C   C214      1.0  0.00527  0.22176  0.48001  1.0000
  C   C215      1.0  0.19915  0.99807  0.44120  1.0000
  H   H361      1.0  0.20908  0.02356  0.48436  1.0000
  H   H362      1.0  0.05348  0.20540  0.43945  1.0000
  C   C216      1.0  0.09011  0.23716  0.41305  1.0000
  H   H363      1.0  0.48119  0.99575  0.24780  1.0000
  H   H364      1.0  0.09213  0.15752  0.46652  1.0000
  H   H365      1.0  0.02182  0.18190  0.47919  1.0000
  Fe  Fe18      1.0  0.16233  0.01838  0.47677  1.0000
  H   H366      1.0  0.08079  0.20885  0.38191  1.0000
  H   H367      1.0  0.48825  0.99620  0.27106  1.0000
  H   H368      1.0  0.34113  0.01534  0.47639  1.0000
  S   S37       1.0  0.15067  0.01021  0.47185  1.0000
  C   C217      1.0  0.44785  0.99670  0.30025  1.0000
  H   H369      1.0  0.27021  0.02798  0.35971  1.0000
  C   C218      1.0  0.10117  0.22095  0.44358  1.0000
  H   H370      1.0  0.36997  0.00996  0.48511  1.0000
  H   H371      1.0  0.09055  0.12546  0.47333  1.0000
  C   C219      1.0  0.45866  0.00302  0.34839  1.0000
  H   H372      1.0  0.03579  0.22765  0.45295  1.0000
  H   H373      1.0  0.07557  0.20222  0.43174  1.0000
  H   H374      1.0  0.15425  0.04708  0.46478  1.0000
  H   H375      1.0  0.09549  0.21162  0.42474  1.0000
  H   H376      1.0  0.10005  0.04539  0.47123  1.0000
  H   H377      1.0  0.06456  0.16280  0.46592  1.0000
  N   N11       1.0  0.01567  0.21916  0.47003  1.0000
  H   H378      1.0  0.11392  0.00551  0.47650  1.0000
  C   C220      1.0  0.28436  0.04821  0.46657  1.0000
  H   H379      1.0  0.37948  0.01934  0.48296  1.0000
  H   H380      1.0  0.02721  0.20348  0.46451  1.0000
  H   H381      1.0  0.05235  0.22070  0.43338  1.0000
  S   S38       1.0  0.23567  0.99789  0.43380  1.0000
  H   H382      1.0  0.27839  0.99560  0.38926  1.0000
  H   H383      1.0  0.26229  0.05351  0.47593  1.0000
  H   H384      1.0  0.45897  0.00047  0.39573  1.0000
  H   H385      1.0  0.24024  0.00377  0.45123  1.0000
  H   H386      1.0  0.38884  0.00621  0.46985  1.0000
  C   C221      1.0  0.10811  0.99797  0.45827  1.0000
  C   C222      1.0  0.28283  0.03743  0.47689  1.0000
  H   H387      1.0  0.07606  0.19048  0.48308  1.0000
  N   N12       1.0  0.48499  0.02991  0.33699  1.0000
  N   N13       1.0  0.27254  0.03967  0.48705  1.0000
  H   H388      1.0  0.44269  0.00951  0.27840  1.0000
  H   H389      1.0  0.41935  0.00076  0.40362  1.0000
  H   H390      1.0  0.08018  0.22847  0.47468  1.0000
  H   H391      1.0  0.19704  0.04358  0.48173  1.0000
  H   H392      1.0  0.49249  0.02148  0.32223  1.0000
  H   H393      1.0  0.12302  0.00486  0.45754  1.0000
  H   H394      1.0  0.16266  0.06695  0.46882  1.0000
  C   C223      1.0  0.24007  0.00319  0.46023  1.0000
  H   H395      1.0  0.15133  0.05981  0.47867  1.0000
  C   C224      1.0  0.10613  0.21488  0.46361  1.0000
  H   H396      1.0  0.40173  0.99990  0.42530  1.0000
  H   H397      1.0  0.29568  0.00186  0.38543  1.0000
  H   H398      1.0  0.35530  0.00425  0.42932  1.0000
  S   S39       1.0  0.05591  0.07588  0.48424  1.0000
  H   H399      1.0  0.04281  0.23662  0.46485  1.0000
  H   H400      1.0  0.02002  0.22202  0.42914  1.0000
  C   C225      1.0  0.10267  0.22827  0.47726  1.0000
  H   H401      1.0  0.00640  0.23848  0.48291  1.0000
  C   C226      1.0  0.04608  0.22712  0.46478  1.0000
  H   H402      1.0  0.48206  0.01352  0.37305  1.0000
  H   H403      1.0  0.36327  0.03715  0.48401  1.0000
  H   H404      1.0  0.11719  0.23282  0.46240  1.0000
  H   H405      1.0  0.49357  0.06722  0.33072  1.0000
  H   H406      1.0  0.47655  0.00586  0.25766  1.0000
  C   C227      1.0  0.05690  0.15880  0.48426  1.0000
  C   C228      1.0  0.10868  0.03811  0.48576  1.0000
  H   H407      1.0  0.99839  0.24027  0.47188  1.0000
  H   H408      1.0  0.06947  0.21333  0.47845  1.0000
  S   S40       1.0  0.23224  0.02586  0.48131  1.0000
  Fe  Fe19      1.0  0.24993  0.99365  0.41818  1.0000
  H   H409      1.0  0.43850  0.00003  0.29952  1.0000
  H   H410      1.0  0.21455  0.00722  0.47579  1.0000
  H   H411      1.0  0.07509  0.14003  0.48221  1.0000
  H   H412      1.0  0.03137  0.23887  0.48504  1.0000
  H   H413      1.0  0.11722  0.05941  0.48325  1.0000
  H   H414      1.0  0.09932  0.13249  0.48166  1.0000
  C   C229      1.0  0.24016  0.00211  0.48344  1.0000
  C   C230      1.0  0.17724  0.06098  0.48491  1.0000
  H   H415      1.0  0.12188  0.20959  0.47648  1.0000
  H   H416      1.0  0.11567  0.14291  0.47465  1.0000
  C   C231      1.0  0.27673  0.99700  0.46443  1.0000
  C   C232      1.0  0.45580  0.99729  0.28774  1.0000
  C   C233      1.0  0.36389  0.99872  0.43009  1.0000
  C   C234      1.0  0.08033  0.22200  0.48311  1.0000
  C   C235      1.0  0.09193  0.21228  0.48287  1.0000
  H   H417      1.0  0.19886  0.99610  0.48389  1.0000
  H   H418      1.0  0.43127  0.00030  0.34305  1.0000
  H   H419      1.0  0.12775  0.99999  0.48091  1.0000
  C   C236      1.0  0.09118  0.05415  0.48560  1.0000
  C   C237      1.0  0.11448  0.19443  0.48325  1.0000
  H   H420      1.0  0.41067  0.99507  0.43601  1.0000
  S   S41       1.0  0.45875  0.99652  0.36321  1.0000
  H   H421      1.0  0.42201  0.99612  0.33642  1.0000
  C   C238      1.0  0.26997  0.99723  0.48608  1.0000
  C   C239      1.0  0.40657  0.99609  0.46796  1.0000
  C   C240      1.0  0.11751  0.06875  0.47927  1.0000
  H   H422      1.0  0.08939  0.14505  0.48669  1.0000
  C   C241      1.0  0.39148  0.99628  0.48734  1.0000
  H   H423      1.0  0.16024  0.99529  0.45217  1.0000
  H   H424      1.0  0.39132  0.02381  0.49079  1.0000
  H   H425      1.0  0.00849  0.05320  0.48834  1.0000
  H   H426      1.0  0.06142  0.22377  0.48754  1.0000
  H   H427      1.0  0.10001  0.22878  0.48671  1.0000
  H   H428      1.0  0.00800  0.06821  0.48818  1.0000
  C   C242      1.0  0.20054  0.02556  0.49059  1.0000
  H   H429      1.0  0.19786  0.99675  0.46917  1.0000
  H   H430      1.0  0.18327  0.08135  0.48506  1.0000
  C   C243      1.0  0.44365  0.99427  0.39650  1.0000
  H   H431      1.0  0.13103  0.10866  0.48757  1.0000
  H   H432      1.0  0.12571  0.09001  0.48936  1.0000
  H   H433      1.0  0.02929  0.16123  0.49049  1.0000
  C   C244      1.0  0.20389  0.99614  0.47469  1.0000
  H   H434      1.0  0.11066  0.08577  0.48335  1.0000
  C   C245      1.0  0.24977  0.04733  0.49112  1.0000
  C   C246      1.0  0.11917  0.99798  0.48179  1.0000
  H   H435      1.0  0.44382  0.99515  0.25877  1.0000
  C   C247      1.0  0.10993  0.07662  0.48776  1.0000
  N   N14       1.0  0.17197  0.05034  0.48841  1.0000
  H   H436      1.0  0.27020  0.05730  0.48945  1.0000
  C   C248      1.0  0.44037  0.99437  0.32692  1.0000
  Fe  Fe20      1.0  0.15460  0.99539  0.48696  1.0000
  C   C249      1.0  0.12152  0.99646  0.45688  1.0000
  H   H437      1.0  0.26936  0.02232  0.49042  1.0000
  C   C250      1.0  0.18884  0.07309  0.48910  1.0000
  C   C251      1.0  0.35767  0.03129  0.49032  1.0000
  N   N15       1.0  0.29119  0.99547  0.37272  1.0000
  H   H438      1.0  0.13992  0.99602  0.46431  1.0000
  H   H439      1.0  0.12570  0.99568  0.44764  1.0000
  H   H440      1.0  0.11642  0.11143  0.48517  1.0000
  C   C252      1.0  0.12191  0.10761  0.49183  1.0000
  H   H441      1.0  0.12471  0.17770  0.49092  1.0000
  H   H442      1.0  0.27238  0.99617  0.37741  1.0000
  Fe  Fe21      1.0  0.49525  0.03071  0.29139  1.0000
  H   H443      1.0  0.41421  0.99383  0.47210  1.0000
  H   H444      1.0  0.34551  0.99400  0.48492  1.0000
  H   H445      1.0  0.29700  0.99513  0.41229  1.0000
  C   C253      1.0  0.29991  0.99590  0.37920  1.0000
  H   H446      1.0  0.10930  0.14173  0.49010  1.0000
  C   C254      1.0  0.12398  0.18722  0.49000  1.0000
  H   H447      1.0  0.99621  0.06244  0.47190  1.0000
  H   H448      1.0  0.21721  0.99908  0.55557  1.0000
  H   H449      1.0  0.41163  0.01590  0.63178  1.0000
  H   H450      1.0  0.05777  0.19026  0.57157  1.0000
  C   C255      1.0  0.05960  0.21685  0.51627  1.0000
  H   H451      1.0  0.16730  0.05180  0.51267  1.0000
  H   H452      1.0  0.19185  0.07488  0.49612  1.0000
  H   H453      1.0  0.05470  0.22578  0.51271  1.0000
  H   H454      1.0  0.04080  0.17013  0.55204  1.0000
  H   H455      1.0  0.48746  0.99495  0.73802  1.0000
  H   H456      1.0  0.11840  0.11260  0.49897  1.0000
  C   C256      1.0  0.02446  0.16555  0.53349  1.0000
  Fe  Fe22      1.0  0.23426  0.02908  0.51973  1.0000
  H   H457      1.0  0.48671  0.04985  0.73787  1.0000
  Fe  Fe23      1.0  0.46217  0.00781  0.71853  1.0000
  H   H458      1.0  0.05964  0.15610  0.49275  1.0000
  H   H459      1.0  0.29544  0.05533  0.50233  1.0000
  Fe  Fe24      1.0  0.44956  0.00974  0.69924  1.0000
  S   S42       1.0  0.46292  0.01784  0.68478  1.0000
  H   H460      1.0  0.26345  0.99903  0.55686  1.0000
  Fe  Fe25      1.0  0.47602  0.00436  0.69410  1.0000
  N   N16       1.0  0.00340  0.19535  0.56311  1.0000
  Fe  Fe26      1.0  0.46247  0.02827  0.69756  1.0000
  S   S43       1.0  0.46222  0.04752  0.69231  1.0000
  H   H461      1.0  0.07587  0.18748  0.55907  1.0000
  S   S44       1.0  0.44772  0.02155  0.71136  1.0000
  Fe  Fe27      1.0  0.08997  0.15248  0.51037  1.0000
  H   H462      1.0  0.17190  0.99360  0.53867  1.0000
  S   S45       1.0  0.09335  0.13289  0.51216  1.0000
  Fe  Fe28      1.0  0.09529  0.17300  0.51589  1.0000
  S   S46       1.0  0.08492  0.18622  0.50357  1.0000
  S   S47       1.0  0.10489  0.17865  0.52595  1.0000
  Fe  Fe29      1.0  0.07162  0.17521  0.51125  1.0000
  S   S48       1.0  0.05310  0.18572  0.51425  1.0000
  H   H463      1.0  0.19099  0.99864  0.56417  1.0000
  H   H464      1.0  0.28071  0.02502  0.50880  1.0000
  S   S49       1.0  0.08128  0.16267  0.52464  1.0000
  S   S50       1.0  0.10500  0.16161  0.50285  1.0000
  H   H465      1.0  0.17588  0.00964  0.50971  1.0000
  H   H466      1.0  0.42870  0.00479  0.59236  1.0000
  C   C257      1.0  0.11266  0.99709  0.49467  1.0000
  C   C258      1.0  0.27103  0.02804  0.49523  1.0000
  H   H467      1.0  0.00417  0.21116  0.52713  1.0000
  S   S51       1.0  0.02220  0.08545  0.50246  1.0000
  H   H468      1.0  0.01059  0.13463  0.54027  1.0000
  S   S52       1.0  0.07989  0.06478  0.50441  1.0000
  H   H469      1.0  0.08970  0.20302  0.54027  1.0000
  H   H470      1.0  0.40991  0.00382  0.59858  1.0000
  S   S53       1.0  0.05133  0.08901  0.50603  1.0000
  C   C259      1.0  0.07524  0.11729  0.50008  1.0000
  H   H471      1.0  0.48870  0.05166  0.70715  1.0000
  H   H472      1.0  0.33290  0.03080  0.58088  1.0000
  S   S54       1.0  0.32412  0.00461  0.53095  1.0000
  H   H473      1.0  0.36895  0.00334  0.56157  1.0000
  C   C260      1.0  0.44258  0.99603  0.66518  1.0000
  H   H474      1.0  0.01521  0.18280  0.57347  1.0000
  S   S55       1.0  0.11003  0.23150  0.50818  1.0000
  H   H475      1.0  0.03631  0.19334  0.57428  1.0000
  C   C261      1.0  0.18191  0.06344  0.49438  1.0000
  H   H476      1.0  0.03244  0.10896  0.53010  1.0000
  S   S56       1.0  0.43369  0.00509  0.69719  1.0000
  H   H477      1.0  0.01660  0.11480  0.52096  1.0000
  C   C262      1.0  0.42175  0.99727  0.67313  1.0000
  C   C263      1.0  0.03472  0.17415  0.55933  1.0000
  C   C264      1.0  0.00281  0.19974  0.55033  1.0000
  H   H478      1.0  0.49063  0.01769  0.65984  1.0000
  H   H479      1.0  0.02064  0.23346  0.49761  1.0000
  H   H480      1.0  0.05267  0.11194  0.52457  1.0000
  C   C265      1.0  0.02196  0.17638  0.52575  1.0000
  C   C266      1.0  0.00951  0.11830  0.50141  1.0000
  C   C267      1.0  0.08757  0.08701  0.52187  1.0000
  H   H481      1.0  0.34165  0.02573  0.54988  1.0000
  H   H482      1.0  0.11154  0.00551  0.49723  1.0000
  C   C268      1.0  0.99805  0.20312  0.58229  1.0000
  H   H483      1.0  0.11670  0.05671  0.52091  1.0000
  Fe  Fe30      1.0  0.15127  0.01198  0.50274  1.0000
  H   H484      1.0  0.03451  0.20906  0.57230  1.0000
  H   H485      1.0  0.04952  0.11949  0.53640  1.0000
  C   C269      1.0  0.25863  0.02013  0.53038  1.0000
  C   C270      1.0  0.11381  0.07259  0.49966  1.0000
  C   C271      1.0  0.28116  0.02099  0.50149  1.0000
  C   C272      1.0  0.09960  0.04691  0.50278  1.0000
  H   H486      1.0  0.19661  0.01774  0.49334  1.0000
  H   H487      1.0  0.04831  0.21104  0.55274  1.0000
  S   S57       1.0  0.05272  0.12235  0.49669  1.0000
  S   S58       1.0  0.22496  0.01671  0.53410  1.0000
  C   C273      1.0  0.44342  0.99921  0.67523  1.0000
  H   H488      1.0  0.03803  0.15196  0.54055  1.0000
  H   H489      1.0  0.44599  0.01327  0.58776  1.0000
  H   H490      1.0  0.07305  0.07826  0.52602  1.0000
  H   H491      1.0  0.01451  0.15896  0.49487  1.0000
  H   H492      1.0  0.01774  0.20839  0.54605  1.0000
  C   C274      1.0  0.07133  0.20964  0.54899  1.0000
  C   C275      1.0  0.43168  0.99514  0.66411  1.0000
  H   H493      1.0  0.00793  0.14676  0.51369  1.0000
  C   C276      1.0  0.99937  0.20589  0.56875  1.0000
  H   H494      1.0  0.05626  0.20566  0.57059  1.0000
  H   H495      1.0  0.47306  0.05963  0.73644  1.0000
  C   C277      1.0  0.26893  0.01338  0.53399  1.0000
  C   C278      1.0  0.10638  0.19332  0.52077  1.0000
  C   C279      1.0  0.09806  0.20187  0.51524  1.0000
  C   C280      1.0  0.09912  0.21359  0.51143  1.0000
  C   C281      1.0  0.10863  0.21683  0.51295  1.0000
  C   C282      1.0  0.11713  0.20825  0.51827  1.0000
  C   C283      1.0  0.11590  0.19655  0.52234  1.0000
  H   H496      1.0  0.09054  0.19961  0.51428  1.0000
  H   H497      1.0  0.09264  0.22007  0.50715  1.0000
  H   H498      1.0  0.12453  0.21069  0.51945  1.0000
  H   H499      1.0  0.12239  0.18999  0.52662  1.0000
  H   H500      1.0  0.48812  0.08251  0.71694  1.0000
  C   C284      1.0  0.47789  0.05034  0.73655  1.0000
  H   H501      1.0  0.48626  0.03334  0.68821  1.0000
  C   C285      1.0  0.10925  0.09293  0.50291  1.0000
  H   H502      1.0  0.99603  0.21177  0.59637  1.0000
  N   N17       1.0  0.10790  0.08049  0.50829  1.0000
  H   H503      1.0  0.44173  0.04128  0.72531  1.0000
  H   H504      1.0  0.34818  0.00456  0.53273  1.0000
  H   H505      1.0  0.48388  0.03259  0.71669  1.0000
  S   S59       1.0  0.38716  0.00024  0.54022  1.0000
  C   C286      1.0  0.08188  0.12944  0.50863  1.0000
  C   C287      1.0  0.07055  0.13654  0.51044  1.0000
  C   C288      1.0  0.06160  0.13405  0.50702  1.0000
  C   C289      1.0  0.06393  0.12452  0.50174  1.0000
  C   C290      1.0  0.48653  0.04241  0.68700  1.0000
  C   C291      1.0  0.08420  0.11983  0.50348  1.0000
  H   H506      1.0  0.06867  0.14398  0.51444  1.0000
  H   H507      1.0  0.05292  0.13971  0.50830  1.0000
  C   C292      1.0  0.10854  0.03873  0.49713  1.0000
  H   H508      1.0  0.15794  0.00269  0.55527  1.0000
  H   H509      1.0  0.01307  0.18037  0.52471  1.0000
  C   C293      1.0  0.01872  0.12321  0.51531  1.0000
  C   C294      1.0  0.46711  0.05144  0.72153  1.0000
  H   H510      1.0  0.03939  0.17924  0.56198  1.0000
  S   S60       1.0  0.05779  0.24279  0.54576  1.0000
  C   C295      1.0  0.39498  0.99830  0.61088  1.0000
  C   C296      1.0  0.99660  0.13285  0.53366  1.0000
  H   H511      1.0  0.03320  0.14911  0.50982  1.0000
  H   H512      1.0  0.09024  0.21659  0.55203  1.0000
  C   C297      1.0  0.20787  0.00276  0.55942  1.0000
  C   C298      1.0  0.03095  0.18228  0.51953  1.0000
  C   C299      1.0  0.04246  0.17737  0.52098  1.0000
  C   C300      1.0  0.04512  0.16626  0.52828  1.0000
  H   H513      1.0  0.02896  0.19074  0.51366  1.0000
  H   H514      1.0  0.05404  0.16241  0.52935  1.0000
  H   H515      1.0  0.01877  0.20238  0.52802  1.0000
  H   H516      1.0  0.12169  0.18901  0.49895  1.0000
  H   H517      1.0  0.40367  0.03877  0.61435  1.0000
  H   H518      1.0  0.46842  0.06955  0.68681  1.0000
  S   S61       1.0  0.28994  0.01031  0.53953  1.0000
  C   C301      1.0  0.40651  0.01473  0.61614  1.0000
  H   H519      1.0  0.37506  0.02066  0.56366  1.0000
  S   S62       1.0  0.46272  0.99538  0.70765  1.0000
  H   H520      1.0  0.03475  0.24295  0.51874  1.0000
  C   C302      1.0  0.16064  0.02058  0.53395  1.0000
  S   S63       1.0  0.34071  0.02984  0.52329  1.0000
  H   H521      1.0  0.39228  0.00951  0.57225  1.0000
  C   C303      1.0  0.16273  0.01578  0.52416  1.0000
  H   H522      1.0  0.38578  0.99688  0.57823  1.0000
  C   C304      1.0  0.47650  0.06283  0.68608  1.0000
  H   H523      1.0  0.39495  0.99932  0.50723  1.0000
  H   H524      1.0  0.24533  0.01512  0.55391  1.0000
  H   H525      1.0  0.28306  0.00322  0.49963  1.0000
  H   H526      1.0  0.34891  0.00694  0.58925  1.0000
  H   H527      1.0  0.06945  0.09158  0.53136  1.0000
  C   C305      1.0  0.02375  0.18212  0.55526  1.0000
  Fe  Fe31      1.0  0.05543  0.10483  0.49239  1.0000
  H   H528      1.0  0.10261  0.06301  0.52922  1.0000
  C   C306      1.0  0.45944  0.04224  0.72470  1.0000
  H   H529      1.0  0.34176  0.04909  0.55501  1.0000
  H   H530      1.0  0.10606  0.09824  0.50979  1.0000
  H   H531      1.0  0.04872  0.19629  0.55318  1.0000
  H   H532      1.0  0.28513  0.99687  0.56740  1.0000
  Fe  Fe32      1.0  0.31743  0.02011  0.50022  1.0000
  H   H533      1.0  0.44516  0.01160  0.60317  1.0000
  H   H534      1.0  0.06510  0.21835  0.54869  1.0000
  H   H535      1.0  0.20475  0.01139  0.55377  1.0000
  H   H536      1.0  0.48091  0.99620  0.57866  1.0000
  C   C307      1.0  0.37516  0.99499  0.50464  1.0000
  H   H537      1.0  0.35205  0.02102  0.58469  1.0000
  C   C308      1.0  0.41144  0.02092  0.62265  1.0000
  H   H538      1.0  0.08198  0.18769  0.54400  1.0000
  C   C309      1.0  0.01567  0.18902  0.56474  1.0000
  C   C310      1.0  0.33422  0.02141  0.58547  1.0000
  H   H539      1.0  0.42955  0.00277  0.61809  1.0000
  C   C311      1.0  0.27553  0.03112  0.53140  1.0000
  H   H540      1.0  0.48287  0.03727  0.66603  1.0000
  H   H541      1.0  0.25025  0.05241  0.49720  1.0000
  Fe  Fe33      1.0  0.06679  0.07868  0.49499  1.0000
  H   H542      1.0  0.99901  0.17734  0.55532  1.0000
  H   H543      1.0  0.40532  0.01317  0.51024  1.0000
  H   H544      1.0  0.40081  0.99733  0.63266  1.0000
  H   H545      1.0  0.00570  0.19643  0.58501  1.0000
  C   C312      1.0  0.08303  0.21142  0.54019  1.0000
  C   C313      1.0  0.29273  0.99827  0.56978  1.0000
  H   H546      1.0  0.01931  0.16675  0.50278  1.0000
  H   H547      1.0  0.45029  0.99451  0.65820  1.0000
  H   H548      1.0  0.38981  0.00753  0.60939  1.0000
  H   H549      1.0  0.49194  0.04791  0.66057  1.0000
  S   S64       1.0  0.21946  0.03580  0.51034  1.0000
  C   C314      1.0  0.34744  0.01538  0.58268  1.0000
  C   C315      1.0  0.14890  0.05175  0.51850  1.0000
  H   H550      1.0  0.08154  0.21512  0.53119  1.0000
  H   H551      1.0  0.31163  0.99404  0.56512  1.0000
  H   H552      1.0  0.00516  0.16972  0.56796  1.0000
  Fe  Fe34      1.0  0.04080  0.08756  0.49423  1.0000
  H   H553      1.0  0.46824  0.05470  0.71183  1.0000
  H   H554      1.0  0.03625  0.23684  0.56044  1.0000
  H   H555      1.0  0.42051  0.02187  0.61800  1.0000
  H   H556      1.0  0.35464  0.03143  0.56530  1.0000
  H   H557      1.0  0.46320  0.03601  0.71870  1.0000
  C   C316      1.0  0.48733  0.06594  0.68333  1.0000
  H   H558      1.0  0.06628  0.17846  0.54293  1.0000
  H   H559      1.0  0.04941  0.10409  0.53963  1.0000
  S   S65       1.0  0.31108  0.00405  0.51102  1.0000
  H   H560      1.0  0.09212  0.20855  0.49230  1.0000
  H   H561      1.0  0.10358  0.09725  0.49644  1.0000
  H   H562      1.0  0.36138  0.03589  0.52371  1.0000
  H   H563      1.0  0.39704  0.01530  0.62049  1.0000
  C   C317      1.0  0.17418  0.01349  0.51721  1.0000
  C   C318      1.0  0.04725  0.11268  0.53350  1.0000
  H   H564      1.0  0.24730  0.03900  0.49633  1.0000
  H   H565      1.0  0.37112  0.01609  0.57943  1.0000
  H   H566      1.0  0.49459  0.00969  0.63735  1.0000
  C   C319      1.0  0.48911  0.04110  0.65824  1.0000
  H   H567      1.0  0.02061  0.19536  0.56496  1.0000
  C   C320      1.0  0.37404  0.01299  0.57109  1.0000
  C   C321      1.0  0.40038  0.02059  0.50451  1.0000
  C   C322      1.0  0.03416  0.11577  0.53346  1.0000
  C   C323      1.0  0.03607  0.16037  0.53462  1.0000
  H   H568      1.0  0.03104  0.13474  0.53055  1.0000
  C   C324      1.0  0.34633  0.00619  0.56707  1.0000
  H   H569      1.0  0.07324  0.20713  0.55790  1.0000
  H   H570      1.0  0.02671  0.18831  0.54697  1.0000
  C   C325      1.0  0.25669  0.03239  0.52739  1.0000
  H   H571      1.0  0.33499  0.04696  0.54455  1.0000
  S   S66       1.0  0.24393  0.04084  0.52261  1.0000
  H   H572      1.0  0.40770  0.03750  0.62790  1.0000
  H   H573      1.0  0.17621  0.03157  0.49512  1.0000
  C   C326      1.0  0.18121  0.02122  0.52977  1.0000
  H   H574      1.0  0.09077  0.08477  0.50418  1.0000
  S   S67       1.0  0.13888  0.00288  0.49987  1.0000
  H   H575      1.0  0.35076  0.04339  0.54226  1.0000
  H   H576      1.0  0.35056  0.00492  0.55796  1.0000
  C   C327      1.0  0.09495  0.08058  0.51185  1.0000
  C   C328      1.0  0.99736  0.17590  0.56496  1.0000
  H   H577      1.0  0.03028  0.14093  0.50119  1.0000
  C   C329      1.0  0.42262  0.00023  0.68315  1.0000
  C   C330      1.0  0.99694  0.21408  0.58670  1.0000
  Fe  Fe35      1.0  0.30662  0.01271  0.52616  1.0000
  H   H578      1.0  0.06031  0.19649  0.53379  1.0000
  H   H579      1.0  0.09362  0.07145  0.51455  1.0000
  C   C331      1.0  0.36242  0.02652  0.52719  1.0000
  C   C332      1.0  0.35291  0.02493  0.56148  1.0000
  H   H580      1.0  0.01126  0.12014  0.53905  1.0000
  N   N18       1.0  0.35269  0.01338  0.57037  1.0000
  C   C333      1.0  0.28022  0.00821  0.50670  1.0000
  H   H581      1.0  0.39478  0.03283  0.62832  1.0000
  H   H582      1.0  0.02919  0.11537  0.54272  1.0000
  C   C334      1.0  0.16044  0.05211  0.49741  1.0000
  H   H583      1.0  0.00582  0.11148  0.50857  1.0000
  C   C335      1.0  0.32965  0.02111  0.59862  1.0000
  H   H584      1.0  0.35070  0.03654  0.49618  1.0000
  C   C336      1.0  0.34196  0.03083  0.55604  1.0000
  C   C337      1.0  0.48743  0.05400  0.71573  1.0000
  H   H585      1.0  0.46160  0.05914  0.72527  1.0000
  H   H586      1.0  0.05606  0.21026  0.51439  1.0000
  H   H587      1.0  0.11516  0.03276  0.50163  1.0000
  H   H588      1.0  0.47804  0.02908  0.73202  1.0000
  C   C338      1.0  0.16980  0.02337  0.53668  1.0000
  H   H589      1.0  0.25214  0.01581  0.53003  1.0000
  H   H590      1.0  0.48451  0.04541  0.65092  1.0000
  H   H591      1.0  0.26355  0.04738  0.52576  1.0000
  H   H592      1.0  0.47253  0.99817  0.59310  1.0000
  H   H593      1.0  0.33358  0.03126  0.56269  1.0000
  H   H594      1.0  0.12355  0.07121  0.49788  1.0000
  C   C339      1.0  0.03491  0.24180  0.52785  1.0000
  H   H595      1.0  0.20730  0.00422  0.56821  1.0000
  C   C340      1.0  0.09090  0.05463  0.49703  1.0000
  H   H596      1.0  0.48661  0.07078  0.72963  1.0000
  N   N19       1.0  0.01862  0.13127  0.52288  1.0000
  H   H597      1.0  0.07712  0.10997  0.49592  1.0000
  H   H598      1.0  0.48602  0.00188  0.65844  1.0000
  H   H599      1.0  0.06903  0.21601  0.51174  1.0000
  H   H600      1.0  0.35886  0.01601  0.50425  1.0000
  H   H601      1.0  0.07111  0.09244  0.51595  1.0000
  H   H602      1.0  0.38235  0.01040  0.51049  1.0000
  H   H603      1.0  0.06011  0.17796  0.55835  1.0000
  C   C341      1.0  0.05275  0.19924  0.56841  1.0000
  C   C342      1.0  0.36525  0.00229  0.53626  1.0000
  H   H604      1.0  0.01606  0.21808  0.52531  1.0000
  H   H605      1.0  0.09937  0.04719  0.51166  1.0000
  H   H606      1.0  0.36923  0.99929  0.51182  1.0000
  S   S68       1.0  0.21938  0.00778  0.51329  1.0000
  C   C343      1.0  0.48992  0.07279  0.71998  1.0000
  H   H607      1.0  0.09654  0.22117  0.53662  1.0000
  C   C344      1.0  0.47604  0.05106  0.68805  1.0000
  C   C345      1.0  0.05820  0.21515  0.52948  1.0000
  C   C346      1.0  0.06827  0.17812  0.55139  1.0000
  C   C347      1.0  0.35357  0.02103  0.52777  1.0000
  H   H608      1.0  0.00485  0.21783  0.58256  1.0000
  H   H609      1.0  0.11219  0.06647  0.54299  1.0000
  H   H610      1.0  0.16367  0.03848  0.51296  1.0000
  H   H611      1.0  0.28203  0.03538  0.53187  1.0000
  C   C348      1.0  0.38624  0.00484  0.57103  1.0000
  Fe  Fe36      1.0  0.22906  0.02129  0.50086  1.0000
  S   S69       1.0  0.31144  0.02956  0.51514  1.0000
  H   H612      1.0  0.39271  0.02546  0.51012  1.0000
  H   H613      1.0  0.14579  0.06146  0.51674  1.0000
  H   H614      1.0  0.45898  0.03705  0.73378  1.0000
  H   H615      1.0  0.11200  0.06367  0.50352  1.0000
  C   C349      1.0  0.37410  0.00788  0.53559  1.0000
  H   H616      1.0  0.28161  0.05243  0.51139  1.0000
  C   C350      1.0  0.27739  0.01887  0.53450  1.0000
  H   H617      1.0  0.08205  0.22873  0.54287  1.0000
  H   H618      1.0  0.03257  0.23804  0.49977  1.0000
  C   C351      1.0  0.03053  0.12824  0.52589  1.0000
  C   C352      1.0  0.08824  0.22000  0.54316  1.0000
  N   N20       1.0  0.38266  0.00308  0.49607  1.0000
  H   H619      1.0  0.02773  0.12056  0.50990  1.0000
  H   H620      1.0  0.07382  0.20085  0.52898  1.0000
  H   H621      1.0  0.36907  0.02496  0.50239  1.0000
  C   C353      1.0  0.07451  0.08731  0.52390  1.0000
  H   H622      1.0  0.11010  0.08218  0.52479  1.0000
  H   H623      1.0  0.08540  0.16613  0.54768  1.0000
  H   H624      1.0  0.25997  0.00004  0.57201  1.0000
  C   C354      1.0  0.16096  0.04818  0.51058  1.0000
  Fe  Fe37      1.0  0.32944  0.02070  0.51879  1.0000
  C   C355      1.0  0.24950  0.01367  0.56139  1.0000
  H   H625      1.0  0.00350  0.12197  0.49525  1.0000
  H   H626      1.0  0.00151  0.13241  0.51042  1.0000
  H   H627      1.0  0.14955  0.04854  0.52786  1.0000
  H   H628      1.0  0.03228  0.16697  0.56686  1.0000
  C   C356      1.0  0.41023  0.99479  0.62820  1.0000
  C   C357      1.0  0.38881  0.00695  0.50302  1.0000
  N   N21       1.0  0.06579  0.20074  0.54733  1.0000
  H   H629      1.0  0.06148  0.22213  0.53086  1.0000
  C   C358      1.0  0.28627  0.05555  0.50223  1.0000
  H   H630      1.0  0.15184  0.02234  0.53936  1.0000
  H   H631      1.0  0.36036  0.02369  0.55375  1.0000
  H   H632      1.0  0.37945  0.02433  0.53052  1.0000
  C   C359      1.0  0.03999  0.20025  0.57532  1.0000
  C   C360      1.0  0.48390  0.06769  0.71366  1.0000
  S   S70       1.0  0.33588  0.01301  0.50277  1.0000
  H   H633      1.0  0.44845  0.99878  0.59697  1.0000
  H   H634      1.0  0.26832  0.04661  0.50269  1.0000
  C   C361      1.0  0.36525  0.00648  0.56995  1.0000
  H   H635      1.0  0.29114  0.03866  0.49795  1.0000
  H   H636      1.0  0.48278  0.99387  0.64338  1.0000
  C   C362      1.0  0.34578  0.99387  0.57512  1.0000
  H   H637      1.0  0.27109  0.00763  0.51149  1.0000
  H   H638      1.0  0.24259  0.01609  0.56908  1.0000
  C   C363      1.0  0.18346  0.01611  0.52011  1.0000
  C   C364      1.0  0.11708  0.06030  0.53708  1.0000
  N   N22       1.0  0.47894  0.04739  0.72498  1.0000
  C   C365      1.0  0.44681  0.04811  0.72347  1.0000
  S   S71       1.0  0.01226  0.23961  0.53308  1.0000
  H   H639      1.0  0.27044  0.00390  0.53620  1.0000
  H   H640      1.0  0.40625  0.02666  0.49938  1.0000
  S   S72       1.0  0.24449  0.01550  0.50923  1.0000
  H   H641      1.0  0.26564  0.00287  0.49258  1.0000
  H   H642      1.0  0.28993  0.02081  0.49558  1.0000
  H   H643      1.0  0.16801  0.02726  0.54419  1.0000
  C   C366      1.0  0.34244  0.04333  0.54906  1.0000
  H   H644      1.0  0.36559  0.99845  0.57713  1.0000
  S   S73       1.0  0.19222  0.02510  0.53368  1.0000
  H   H645      1.0  0.01476  0.14969  0.52311  1.0000
  C   C367      1.0  0.05353  0.20188  0.55499  1.0000
  C   C368      1.0  0.02632  0.23993  0.49399  1.0000
  H   H646      1.0  0.07326  0.15906  0.55466  1.0000
  C   C369      1.0  0.20019  0.99435  0.56059  1.0000
  C   C370      1.0  0.00966  0.12952  0.53437  1.0000
  C   C371      1.0  0.37265  0.01998  0.53102  1.0000
  C   C372      1.0  0.07700  0.16648  0.55443  1.0000
  Fe  Fe38      1.0  0.21107  0.02187  0.52362  1.0000
  C   C373      1.0  0.26510  0.03789  0.52797  1.0000
  H   H647      1.0  0.15564  0.06149  0.49577  1.0000
  N   N23       1.0  0.41271  0.00212  0.61585  1.0000
  S   S74       1.0  0.01295  0.15887  0.54215  1.0000
  H   H648      1.0  0.12653  0.06056  0.53461  1.0000
  H   H649      1.0  0.49002  0.02597  0.64549  1.0000
  H   H650      1.0  0.09304  0.11467  0.50175  1.0000
  H   H651      1.0  0.03755  0.12889  0.51774  1.0000
  H   H652      1.0  0.18215  0.03946  0.50131  1.0000
  H   H653      1.0  0.33713  0.01089  0.56674  1.0000
  C   C374      1.0  0.02623  0.14782  0.50636  1.0000
  C   C375      1.0  0.07344  0.18867  0.55058  1.0000
  C   C376      1.0  0.43009  0.00830  0.59925  1.0000
  S   S75       1.0  0.47681  0.01541  0.70569  1.0000
  H   H654      1.0  0.19232  0.01418  0.51493  1.0000
  H   H655      1.0  0.32874  0.01707  0.58292  1.0000
  H   H656      1.0  0.20223  0.02743  0.49833  1.0000
  C   C377      1.0  0.44322  0.00794  0.59669  1.0000
  C   C378      1.0  0.40389  0.03326  0.62331  1.0000
  C   C379      1.0  0.03584  0.23834  0.55135  1.0000
  C   C380      1.0  0.48382  0.03443  0.72521  1.0000
  H   H657      1.0  0.40648  0.02014  0.60709  1.0000
  C   C381      1.0  0.39630  0.01608  0.49613  1.0000
  H   H658      1.0  0.09034  0.08247  0.53025  1.0000
  C   C382      1.0  0.11199  0.06351  0.52615  1.0000
  H   H659      1.0  0.01842  0.23534  0.55548  1.0000
  H   H660      1.0  0.44245  0.05390  0.72984  1.0000
  C   C383      1.0  0.35501  0.00886  0.53223  1.0000
  H   H661      1.0  0.42540  0.01765  0.59835  1.0000
  H   H662      1.0  0.34158  0.99449  0.58437  1.0000
  H   H663      1.0  0.17442  0.06660  0.50131  1.0000
  H   H664      1.0  0.24226  0.99546  0.56106  1.0000
  C   C384      1.0  0.04528  0.24139  0.54237  1.0000
  C   C385      1.0  0.43338  0.00134  0.68423  1.0000
  C   C386      1.0  0.02574  0.23751  0.54854  1.0000
  H   H665      1.0  0.99719  0.09419  0.50747  1.0000
  H   H666      1.0  0.11626  0.05126  0.54198  1.0000
  H   H667      1.0  0.25574  0.01957  0.55877  1.0000
  H   H668      1.0  0.04865  0.21640  0.53357  1.0000
  C   C387      1.0  0.00938  0.20966  0.54339  1.0000
  C   C388      1.0  0.01213  0.09075  0.49325  1.0000
  H   H669      1.0  0.38231  0.99314  0.60493  1.0000
  H   H670      1.0  0.00559  0.21185  0.56484  1.0000
  H   H671      1.0  0.33468  0.02557  0.60167  1.0000
  H   H672      1.0  0.29203  0.99517  0.57941  1.0000
  H   H673      1.0  0.44666  0.05339  0.71441  1.0000
  H   H674      1.0  0.07884  0.16538  0.56316  1.0000
  H   H675      1.0  0.14240  0.04773  0.51710  1.0000
  C   C389      1.0  0.12191  0.09456  0.49679  1.0000
  H   H676      1.0  0.12310  0.07537  0.51596  1.0000
  S   S76       1.0  0.07589  0.23873  0.51513  1.0000
  H   H677      1.0  0.30477  0.99526  0.55351  1.0000
  C   C390      1.0  0.42585  0.00083  0.61163  1.0000
  H   H678      1.0  0.10380  0.99545  0.49599  1.0000
  H   H679      1.0  0.38999  0.00203  0.56253  1.0000
  H   H680      1.0  0.18012  0.99980  0.55088  1.0000
  H   H681      1.0  0.48761  0.07506  0.68194  1.0000
  H   H682      1.0  0.03962  0.19906  0.58481  1.0000
  H   H683      1.0  0.48677  0.07132  0.70411  1.0000
  H   H684      1.0  0.08843  0.09625  0.51975  1.0000
  H   H685      1.0  0.01408  0.13474  0.49902  1.0000
  H   H686      1.0  0.06949  0.20959  0.49391  1.0000
  S   S77       1.0  0.07903  0.16426  0.49773  1.0000
  C   C391      1.0  0.01222  0.21036  0.53016  1.0000
  H   H687      1.0  0.15454  0.04701  0.49653  1.0000
  H   H688      1.0  0.24171  0.99357  0.57625  1.0000
  C   C392      1.0  0.01623  0.14409  0.51678  1.0000
  H   H689      1.0  0.42676  0.99587  0.73890  1.0000
  Fe  Fe39      1.0  0.99645  0.16891  0.53590  1.0000
  H   H690      1.0  0.47427  0.07119  0.71593  1.0000
  C   C393      1.0  0.01051  0.12808  0.50645  1.0000
  C   C394      1.0  0.00012  0.09434  0.49816  1.0000
  H   H691      1.0  0.00369  0.21823  0.54512  1.0000
  H   H692      1.0  0.28188  0.06477  0.49890  1.0000
  H   H693      1.0  0.12777  0.09112  0.50309  1.0000
  H   H694      1.0  0.20030  0.99970  0.54192  1.0000
  C   C395      1.0  0.11347  0.07591  0.51879  1.0000
  C   C396      1.0  0.06492  0.20276  0.53475  1.0000
  H   H695      1.0  0.28607  0.00403  0.51298  1.0000
  H   H696      1.0  0.02733  0.24251  0.58947  1.0000
  S   S78       1.0  0.46355  0.00066  0.73751  1.0000
  H   H697      1.0  0.44056  0.00035  0.73467  1.0000
  H   H698      1.0  0.45179  0.00002  0.67599  1.0000
  H   H699      1.0  0.39548  0.99524  0.59384  1.0000
  H   H700      1.0  0.01926  0.17653  0.55312  1.0000
  C   C397      1.0  0.36501  0.02110  0.49770  1.0000
  H   H701      1.0  0.41330  0.99667  0.67237  1.0000
  Fe  Fe40      1.0  0.23392  0.00362  0.52279  1.0000
  H   H702      1.0  0.26318  0.02932  0.50253  1.0000
  H   H703      1.0  0.39202  0.99406  0.62020  1.0000
  C   C398      1.0  0.28646  0.04761  0.49437  1.0000
  S   S79       1.0  0.15073  0.01275  0.52115  1.0000
  H   H704      1.0  0.41520  0.99652  0.63371  1.0000
  C   C399      1.0  0.49377  0.99654  0.65338  1.0000
  C   C400      1.0  0.25614  0.00088  0.56445  1.0000
  H   H705      1.0  0.00612  0.19248  0.54556  1.0000
  C   C401      1.0  0.40832  0.99812  0.60754  1.0000
  Fe  Fe41      1.0  0.32908  0.99763  0.51458  1.0000
  H   H706      1.0  0.18787  0.05557  0.49845  1.0000
  H   H707      1.0  0.32023  0.02575  0.60035  1.0000
  C   C402      1.0  0.02522  0.23939  0.53677  1.0000
  H   H708      1.0  0.01827  0.11413  0.49663  1.0000
  H   H709      1.0  0.49330  0.01311  0.73956  1.0000
  C   C403      1.0  0.02199  0.15939  0.49816  1.0000
  H   H710      1.0  0.41484  0.00186  0.69004  1.0000
  H   H711      1.0  0.29237  0.00786  0.56736  1.0000
  H   H712      1.0  0.33040  0.01189  0.60374  1.0000
  C   C404      1.0  0.27380  0.04802  0.49357  1.0000
  C   C405      1.0  0.18036  0.03923  0.49294  1.0000
  C   C406      1.0  0.15890  0.99344  0.55486  1.0000
  S   S80       1.0  0.49190  0.99352  0.68439  1.0000
  H   H713      1.0  0.24026  0.00170  0.49241  1.0000
  H   H714      1.0  0.36927  0.99310  0.50017  1.0000
  H   H715      1.0  0.15215  0.99323  0.55043  1.0000
  H   H716      1.0  0.46301  0.14563  0.96989  1.0000
  C   C407      1.0  0.48344  0.18136  0.99099  1.0000
  C   C408      1.0  0.46651  0.14075  0.96272  1.0000
  H   H717      1.0  0.49420  0.08458  0.81785  1.0000
  C   C409      1.0  0.46565  0.10165  0.92225  1.0000
  H   H718      1.0  0.44347  0.01964  0.74319  1.0000
  H   H719      1.0  0.47448  0.09188  0.90889  1.0000
  S   S81       1.0  0.47100  0.04774  0.80988  1.0000
  S   S82       1.0  0.48388  0.01287  0.81084  1.0000
  C   C410      1.0  0.49546  0.08191  0.89267  1.0000
  C   C411      1.0  0.48680  0.02297  0.87775  1.0000
  H   H720      1.0  0.47034  0.01548  0.83409  1.0000
  S   S83       1.0  0.49130  0.22028  0.93349  1.0000
  H   H721      1.0  0.47660  0.03361  0.74925  1.0000
  C   C412      1.0  0.48570  0.13141  0.96967  1.0000
  C   C413      1.0  0.47150  0.04285  0.74768  1.0000
  S   S84       1.0  0.48053  0.17331  0.96373  1.0000
  S   S85       1.0  0.47184  0.17351  0.93504  1.0000
  H   H722      1.0  0.49252  0.01918  0.76722  1.0000
  H   H723      1.0  0.44464  0.00468  0.79372  1.0000
  C   C414      1.0  0.46993  0.06759  0.77929  1.0000
  H   H724      1.0  0.48415  0.13775  0.97529  1.0000
  Fe  Fe42      1.0  0.48627  0.20351  0.94476  1.0000
  C   C415      1.0  0.48854  0.24289  0.93551  1.0000
  H   H725      1.0  0.49228  0.12939  0.99051  1.0000
  H   H726      1.0  0.47211  0.02694  0.86991  1.0000
  C   C416      1.0  0.46036  0.01032  0.74701  1.0000
  H   H727      1.0  0.46561  0.04208  0.76641  1.0000
  S   S86       1.0  0.45630  0.02426  0.80857  1.0000
  Fe  Fe43      1.0  0.47221  0.19112  0.96773  1.0000
  Fe  Fe44      1.0  0.46212  0.02209  0.78990  1.0000
  C   C417      1.0  0.46489  0.01469  0.76341  1.0000
  H   H728      1.0  0.45241  0.15193  0.99136  1.0000
  H   H729      1.0  0.48192  0.23391  0.99080  1.0000
  S   S87       1.0  0.46208  0.99305  0.82882  1.0000
  H   H730      1.0  0.46472  0.22061  0.98611  1.0000
  H   H731      1.0  0.48089  0.11042  0.90264  1.0000
  H   H732      1.0  0.46413  0.15857  0.98167  1.0000
  S   S88       1.0  0.48538  0.05556  0.85269  1.0000
  H   H733      1.0  0.45957  0.09564  0.92672  1.0000
  H   H734      1.0  0.48098  0.02443  0.88634  1.0000
  C   C418      1.0  0.48004  0.16002  0.93152  1.0000
  C   C419      1.0  0.47448  0.15351  0.92787  1.0000
  H   H735      1.0  0.45570  0.03426  0.83484  1.0000
  H   H736      1.0  0.49208  0.19982  0.91373  1.0000
  C   C420      1.0  0.47699  0.09508  0.91532  1.0000
  H   H737      1.0  0.46539  0.15691  0.92717  1.0000
  Fe  Fe45      1.0  0.47852  0.18188  0.94537  1.0000
  H   H738      1.0  0.48228  0.14724  0.95598  1.0000
  H   H739      1.0  0.46481  0.02083  0.85867  1.0000
  Fe  Fe46      1.0  0.46783  0.00634  0.81279  1.0000
  C   C421      1.0  0.49182  0.15560  0.93239  1.0000
  C   C422      1.0  0.47511  0.04845  0.82236  1.0000
  C   C423      1.0  0.46690  0.05489  0.83023  1.0000
  C   C424      1.0  0.47016  0.05677  0.83959  1.0000
  C   C425      1.0  0.48174  0.05252  0.84101  1.0000
  C   C426      1.0  0.49080  0.01337  0.83895  1.0000
  C   C427      1.0  0.48671  0.04407  0.82379  1.0000
  H   H740      1.0  0.45799  0.05855  0.82901  1.0000
  H   H741      1.0  0.46372  0.06178  0.84563  1.0000
  H   H742      1.0  0.43764  0.03009  0.75963  1.0000
  H   H743      1.0  0.48790  0.06485  0.76964  1.0000
  C   C428      1.0  0.48050  0.14254  0.92531  1.0000
  C   C429      1.0  0.47098  0.02070  0.84995  1.0000
  H   H744      1.0  0.48593  0.17886  0.98264  1.0000
  H   H745      1.0  0.45172  0.99875  0.77577  1.0000
  H   H746      1.0  0.47473  0.22253  0.95557  1.0000
  Fe  Fe47      1.0  0.47277  0.03065  0.80505  1.0000
  H   H747      1.0  0.46257  0.04309  0.74699  1.0000
  C   C430      1.0  0.42786  0.00154  0.78510  1.0000
  H   H748      1.0  0.46757  0.10488  0.92906  1.0000
  H   H749      1.0  0.48226  0.06547  0.79594  1.0000
  S   S89       1.0  0.47779  0.02990  0.78599  1.0000
  H   H750      1.0  0.48808  0.08208  0.80088  1.0000
  H   H751      1.0  0.48639  0.10779  0.91531  1.0000
  H   H752      1.0  0.47731  0.01150  0.87576  1.0000
  H   H753      1.0  0.46429  0.05672  0.75758  1.0000
  H   H754      1.0  0.43406  0.00592  0.76600  1.0000
  C   C431      1.0  0.49007  0.04616  0.83308  1.0000
  H   H755      1.0  0.42631  0.99427  0.77094  1.0000
  H   H756      1.0  0.46702  0.23901  0.96596  1.0000
  H   H757      1.0  0.49043  0.07063  0.82067  1.0000
  H   H758      1.0  0.48469  0.05336  0.78209  1.0000
  H   H759      1.0  0.42745  0.00796  0.82341  1.0000
  H   H760      1.0  0.48955  0.10092  0.88759  1.0000
  H   H761      1.0  0.49451  0.01575  0.87945  1.0000
  C   C432      1.0  0.47751  0.23072  0.95165  1.0000
  H   H762      1.0  0.46363  0.13231  0.96558  1.0000
  C   C433      1.0  0.47440  0.21736  0.98496  1.0000
  S   S90       1.0  0.46163  0.19145  0.98620  1.0000
  H   H763      1.0  0.41543  0.02045  0.77112  1.0000
  H   H764      1.0  0.46117  0.10924  0.91629  1.0000
  H   H765      1.0  0.46206  0.00837  0.84758  1.0000
  H   H766      1.0  0.42860  0.01044  0.78527  1.0000
  H   H767      1.0  0.48886  0.02745  0.85341  1.0000
  H   H768      1.0  0.46278  0.14614  0.95504  1.0000
  C   C434      1.0  0.48699  0.06864  0.78681  1.0000
  C   C435      1.0  0.44130  0.99651  0.79815  1.0000
  H   H769      1.0  0.47956  0.99663  0.85129  1.0000
  N   N24       1.0  0.48300  0.01317  0.85123  1.0000
  C   C436      1.0  0.47321  0.24002  0.95756  1.0000
  C   C437      1.0  0.42655  0.00273  0.77249  1.0000
  H   H770      1.0  0.49028  0.00611  0.83537  1.0000
  C   C438      1.0  0.48160  0.00083  0.85731  1.0000
  C   C439      1.0  0.46996  0.04771  0.75847  1.0000
  H   H771      1.0  0.47384  0.00097  0.86487  1.0000
  Fe  Fe48      1.0  0.48736  0.01136  0.79215  1.0000
  H   H772      1.0  0.42270  0.00299  0.80712  1.0000
  H   H773      1.0  0.44745  0.02765  0.84889  1.0000
  C   C440      1.0  0.45348  0.02591  0.84048  1.0000
  C   C441      1.0  0.43407  0.00716  0.81507  1.0000
  H   H774      1.0  0.46473  0.06586  0.78849  1.0000
  H   H775      1.0  0.40742  0.00882  0.77619  1.0000
  H   H776      1.0  0.47082  0.01310  0.76912  1.0000
  H   H777      1.0  0.46763  0.14442  0.99134  1.0000
  S   S91       1.0  0.46839  0.19936  0.94975  1.0000
  S   S92       1.0  0.48898  0.19723  0.96308  1.0000
  H   H778      1.0  0.46720  0.06299  0.77417  1.0000
  C   C442      1.0  0.48527  0.23210  0.94065  1.0000
  H   H779      1.0  0.48279  0.13406  0.95175  1.0000
  C   C443      1.0  0.44624  0.02426  0.75800  1.0000
  H   H780      1.0  0.48752  0.02144  0.83268  1.0000
  H   H781      1.0  0.48084  0.08751  0.92169  1.0000
  C   C444      1.0  0.46466  0.01678  0.84273  1.0000
  H   H782      1.0  0.47160  0.03002  0.84591  1.0000
  C   C445      1.0  0.45378  0.02211  0.76560  1.0000
  H   H783      1.0  0.48985  0.03117  0.87293  1.0000
  H   H784      1.0  0.48368  0.11383  0.96093  1.0000
  H   H785      1.0  0.49536  0.23851  0.96992  1.0000
  H   H786      1.0  0.48310  0.07826  0.78493  1.0000
  C   C446      1.0  0.41531  0.01169  0.77008  1.0000
  H   H787      1.0  0.48397  0.08636  0.88040  1.0000
  H   H788      1.0  0.49371  0.99512  0.86931  1.0000
  H   H789      1.0  0.46791  0.07718  0.77547  1.0000
  C   C447      1.0  0.48555  0.10330  0.90884  1.0000
  C   C448      1.0  0.48007  0.01975  0.87067  1.0000
  C   C449      1.0  0.43146  0.99891  0.80918  1.0000
  C   C450      1.0  0.49222  0.13804  0.92622  1.0000
  H   H790      1.0  0.48073  0.12461  0.97515  1.0000
  H   H791      1.0  0.41930  0.00028  0.79115  1.0000
  H   H792      1.0  0.41461  0.01259  0.76094  1.0000
  H   H793      1.0  0.48843  0.07935  0.90025  1.0000
  C   C451      1.0  0.47991  0.13854  0.95919  1.0000
  C   C452      1.0  0.48773  0.01846  0.85829  1.0000
  C   C453      1.0  0.46809  0.00873  0.75425  1.0000
  H   H794      1.0  0.44885  0.02258  0.83585  1.0000
  H   H795      1.0  0.43371  0.01604  0.80920  1.0000
  S   S93       1.0  0.44892  0.02782  0.77837  1.0000
  H   H796      1.0  0.47858  0.04788  0.75977  1.0000
  H   H797      1.0  0.47604  0.13753  0.92264  1.0000
  C   C454      1.0  0.44954  0.01839  0.74868  1.0000
  C   C455      1.0  0.48310  0.06304  0.77892  1.0000
  S   S94       1.0  0.47212  0.00345  0.79449  1.0000
  H   H798      1.0  0.44290  0.00372  0.81709  1.0000
  C   C456      1.0  0.46136  0.15312  0.99052  1.0000
  H   H799      1.0  0.47642  0.00255  0.75317  1.0000
  H   H800      1.0  0.49315  0.03939  0.81756  1.0000
  H   H801      1.0  0.49501  0.04469  0.79642  1.0000
  H   H802      1.0  0.47683  0.20848  0.98309  1.0000
  C   C457      1.0  0.49274  0.10902  0.96179  1.0000
  C   C458      1.0  0.43424  0.99628  0.74219  1.0000
  H   H803      1.0  0.43090  0.00210  0.74853  1.0000
  H   H804      1.0  0.47888  0.22315  0.97731  1.0000
  C   C459      1.0  0.49267  0.08068  0.88162  1.0000
  H   H805      1.0  0.49245  0.07141  0.88245  1.0000
  H   H806      1.0  0.49063  0.09430  0.95638  1.0000
  H   H807      1.0  0.49237  0.10399  0.97098  1.0000
  H   H808      1.0  0.49205  0.12303  0.89331  1.0000
  C   C460      1.0  0.17636  0.45169  0.99759  1.0000
  S   S95       1.0  0.47635  0.24750  0.04799  1.0000
  C   C461      1.0  0.45385  0.33285  0.01359  1.0000
  C   C462      1.0  0.47457  0.40011  0.00960  1.0000
  H   H809      1.0  0.28147  0.39112  0.04050  1.0000
  H   H810      1.0  0.29689  0.45666  0.99704  1.0000
  S   S96       1.0  0.16378  0.46972  0.04247  1.0000
  H   H811      1.0  0.48511  0.28876  0.01296  1.0000
  C   C463      1.0  0.44933  0.30685  0.99393  1.0000
  C   C464      1.0  0.30705  0.47394  0.05501  1.0000
  S   S97       1.0  0.23197  0.43456  0.04552  1.0000
  H   H812      1.0  0.48212  0.26940  0.01466  1.0000
  H   H813      1.0  0.29213  0.48457  0.00433  1.0000
  Fe  Fe49      1.0  0.33762  0.43390  0.04189  1.0000
  S   S98       1.0  0.05917  0.48487  0.09659  1.0000
  S   S99       1.0  0.35499  0.42851  0.04704  1.0000
  Fe  Fe50      1.0  0.31791  0.42553  0.03786  1.0000
  C   C465      1.0  0.35256  0.39750  0.02084  1.0000
  S   S100      1.0  0.31385  0.40907  0.03664  1.0000
  H   H814      1.0  0.24594  0.46944  0.06689  1.0000
  C   C466      1.0  0.10254  0.47981  0.23094  1.0000
  C   C467      1.0  0.36091  0.39670  0.02848  1.0000
  S   S101      1.0  0.33458  0.43011  0.02619  1.0000
  S   S102      1.0  0.32208  0.42728  0.05397  1.0000
  H   H815      1.0  0.03416  0.38733  0.23659  1.0000
  S   S103      1.0  0.06636  0.48878  0.18225  1.0000
  H   H816      1.0  0.35257  0.41528  0.01200  1.0000
  H   H817      1.0  0.05153  0.48823  0.22841  1.0000
  H   H818      1.0  0.28556  0.44740  0.99285  1.0000
  H   H819      1.0  0.34413  0.45928  0.06638  1.0000
  H   H820      1.0  0.36230  0.42421  0.99330  1.0000
  H   H821      1.0  0.45525  0.43368  0.00235  1.0000
  S   S104      1.0  0.39377  0.41022  0.00532  1.0000
  H   H822      1.0  0.43746  0.38964  0.99942  1.0000
  H   H823      1.0  0.00549  0.47400  0.15425  1.0000
  H   H824      1.0  0.01484  0.45976  0.08328  1.0000
  S   S105      1.0  0.25491  0.44403  0.02668  1.0000
  S   S106      1.0  0.38947  0.46718  0.99324  1.0000
  C   C468      1.0  0.49281  0.29978  0.02672  1.0000
  H   H825      1.0  0.47265  0.28662  0.99985  1.0000
  S   S107      1.0  0.24218  0.42749  0.01971  1.0000
  Fe  Fe51      1.0  0.04416  0.41854  0.21006  1.0000
  H   H826      1.0  0.46614  0.24711  0.00826  1.0000
  S   S108      1.0  0.20925  0.43094  0.02903  1.0000
  C   C469      1.0  0.23674  0.38113  0.03199  1.0000
  S   S109      1.0  0.26062  0.40939  0.04141  1.0000
  H   H827      1.0  0.29255  0.42776  0.03904  1.0000
  H   H828      1.0  0.41437  0.39948  0.02555  1.0000
  Fe  Fe52      1.0  0.06020  0.45646  0.12121  1.0000
  N   N25       1.0  0.10882  0.48966  0.22795  1.0000
  S   S110      1.0  0.06300  0.44015  0.13536  1.0000
  C   C470      1.0  0.34820  0.40176  0.06860  1.0000
  H   H829      1.0  0.05812  0.46731  0.18943  1.0000
  S   S111      1.0  0.08810  0.46209  0.08272  1.0000
  H   H830      1.0  0.12851  0.48331  0.05838  1.0000
  H   H831      1.0  0.33473  0.47906  0.03833  1.0000
  H   H832      1.0  0.26511  0.46915  0.05273  1.0000
  S   S112      1.0  0.07476  0.46612  0.11478  1.0000
  C   C471      1.0  0.02413  0.45562  0.08385  1.0000
  H   H833      1.0  0.03811  0.45064  0.13758  1.0000
  S   S113      1.0  0.01956  0.43547  0.17841  1.0000
  H   H834      1.0  0.01621  0.47128  0.23632  1.0000
  C   C472      1.0  0.05896  0.41086  0.23357  1.0000
  N   N26       1.0  0.23847  0.39348  0.02921  1.0000
  C   C473      1.0  0.47651  0.27454  0.02127  1.0000
  C   C474      1.0  0.33657  0.43952  0.08155  1.0000
  C   C475      1.0  0.27761  0.47125  0.00851  1.0000
  H   H835      1.0  0.34538  0.43353  0.10127  1.0000
  C   C476      1.0  0.05084  0.43884  0.14717  1.0000
  H   H836      1.0  0.29846  0.42580  0.10039  1.0000
  C   C477      1.0  0.00235  0.46898  0.18400  1.0000
  C   C478      1.0  0.03164  0.43669  0.16641  1.0000
  C   C479      1.0  0.04299  0.43050  0.16764  1.0000
  C   C480      1.0  0.05253  0.43138  0.15794  1.0000
  H   H837      1.0  0.28015  0.38144  0.02383  1.0000
  H   H838      1.0  0.00437  0.44028  0.15961  1.0000
  H   H839      1.0  0.04438  0.42479  0.17596  1.0000
  H   H840      1.0  0.06123  0.42623  0.15871  1.0000
  H   H841      1.0  0.46759  0.27264  0.02411  1.0000
  H   H842      1.0  0.29189  0.45939  0.01693  1.0000
  C   C481      1.0  0.22330  0.40240  0.05958  1.0000
  H   H843      1.0  0.23008  0.36135  0.03119  1.0000
  H   H844      1.0  0.10945  0.45886  0.06539  1.0000
  H   H845      1.0  0.45598  0.43603  0.03955  1.0000
  C   C482      1.0  0.43767  0.44367  0.00175  1.0000
  H   H846      1.0  0.00947  0.39106  0.19700  1.0000
  H   H847      1.0  0.46920  0.32877  0.00033  1.0000
  H   H848      1.0  0.26096  0.37640  0.02793  1.0000
  H   H849      1.0  0.33811  0.44322  0.06238  1.0000
  S   S114      1.0  0.08973  0.49007  0.19018  1.0000
  H   H850      1.0  0.25197  0.40338  0.02115  1.0000
  C   C483      1.0  0.44678  0.43173  0.00270  1.0000
  S   S115      1.0  0.03854  0.43621  0.19883  1.0000
  H   H851      1.0  0.09924  0.41376  0.21468  1.0000
  H   H852      1.0  0.00459  0.45923  0.18499  1.0000
  H   H853      1.0  0.27167  0.42785  0.04104  1.0000
  H   H854      1.0  0.05608  0.44042  0.24115  1.0000
  C   C484      1.0  0.19658  0.44925  0.03948  1.0000
  H   H855      1.0  0.19609  0.45572  0.00801  1.0000
  C   C485      1.0  0.03856  0.47110  0.21426  1.0000
  H   H856      1.0  0.43378  0.43314  0.02561  1.0000
  H   H857      1.0  0.27680  0.48982  0.04539  1.0000
  H   H858      1.0  0.17200  0.44763  0.00657  1.0000
  H   H859      1.0  0.40974  0.41521  0.02105  1.0000
  H   H860      1.0  0.35947  0.38979  0.03660  1.0000
  H   H861      1.0  0.46846  0.41824  0.01064  1.0000
  H   H862      1.0  0.27904  0.46969  0.05402  1.0000
  C   C486      1.0  0.27560  0.45995  0.02977  1.0000
  H   H863      1.0  0.21506  0.40629  0.00665  1.0000
  H   H864      1.0  0.48088  0.25049  0.07307  1.0000
  C   C487      1.0  0.23090  0.48372  0.06823  1.0000
  C   C488      1.0  0.23869  0.36256  0.02529  1.0000
  H   H865      1.0  0.10115  0.45219  0.10316  1.0000
  H   H866      1.0  0.04976  0.37294  0.22756  1.0000
  H   H867      1.0  0.20470  0.46029  0.05657  1.0000
  C   C489      1.0  0.29889  0.40945  0.03839  1.0000
  C   C490      1.0  0.29569  0.39913  0.03883  1.0000
  C   C491      1.0  0.28387  0.39914  0.04013  1.0000
  C   C492      1.0  0.27520  0.40952  0.04072  1.0000
  C   C493      1.0  0.27835  0.41984  0.04040  1.0000
  C   C494      1.0  0.29019  0.41979  0.03927  1.0000
  H   H868      1.0  0.35387  0.38865  0.01921  1.0000
  H   H869      1.0  0.08378  0.41425  0.23326  1.0000
  C   C495      1.0  0.04271  0.46534  0.18575  1.0000
  C   C496      1.0  0.23670  0.39700  0.04070  1.0000
  C   C497      1.0  0.05804  0.45232  0.21618  1.0000
  C   C498      1.0  0.24396  0.47906  0.06333  1.0000
  C   C499      1.0  0.46066  0.32618  0.00385  1.0000
  H   H870      1.0  0.44136  0.44221  0.03697  1.0000
  H   H871      1.0  0.34355  0.48476  0.01139  1.0000
  H   H872      1.0  0.45552  0.43572  0.01952  1.0000
  H   H873      1.0  0.11419  0.47747  0.07796  1.0000
  C   C500      1.0  0.30923  0.48449  0.05545  1.0000
  H   H874      1.0  0.37344  0.42960  0.00547  1.0000
  H   H875      1.0  0.47158  0.29218  0.02359  1.0000
  H   H876      1.0  0.33942  0.42614  0.99995  1.0000
  C   C501      1.0  0.24185  0.47726  0.02106  1.0000
  C   C502      1.0  0.44829  0.43397  0.03799  1.0000
  C   C503      1.0  0.37399  0.42537  0.01445  1.0000
  C   C504      1.0  0.36530  0.42939  0.02374  1.0000
  C   C505      1.0  0.36602  0.42393  0.03537  1.0000
  C   C506      1.0  0.37538  0.41446  0.03773  1.0000
  C   C507      1.0  0.38382  0.41018  0.02844  1.0000
  H   H877      1.0  0.22897  0.48206  0.07798  1.0000
  H   H878      1.0  0.35812  0.43678  0.02190  1.0000
  H   H879      1.0  0.37589  0.41019  0.04672  1.0000
  H   H880      1.0  0.39088  0.40265  0.03026  1.0000
  H   H881      1.0  0.19529  0.48375  0.06467  1.0000
  H   H882      1.0  0.26600  0.46160  0.03035  1.0000
  H   H883      1.0  0.07515  0.44664  0.23293  1.0000
  C   C508      1.0  0.23893  0.37560  0.02132  1.0000
  H   H884      1.0  0.34807  0.41614  0.09436  1.0000
  H   H885      1.0  0.12471  0.47995  0.08407  1.0000
  H   H886      1.0  0.18636  0.43672  0.02375  1.0000
  H   H887      1.0  0.48393  0.30062  0.03203  1.0000
  C   C509      1.0  0.41696  0.40744  0.01938  1.0000
  H   H888      1.0  0.31420  0.43142  0.10513  1.0000
  H   H889      1.0  0.20439  0.44843  0.04250  1.0000
  H   H890      1.0  0.45258  0.40493  0.02148  1.0000
  C   C510      1.0  0.18639  0.44262  0.02895  1.0000
  H   H891      1.0  0.26328  0.44906  0.06255  1.0000
  H   H892      1.0  0.04293  0.47562  0.16114  1.0000
  C   C511      1.0  0.32169  0.45047  0.99739  1.0000
  Fe  Fe53      1.0  0.32375  0.44850  0.02372  1.0000
  C   C512      1.0  0.10474  0.46789  0.06308  1.0000
  H   H893      1.0  0.42701  0.40920  0.03043  1.0000
  H   H894      1.0  0.05211  0.38748  0.22041  1.0000
  H   H895      1.0  0.08793  0.44336  0.06220  1.0000
  H   H896      1.0  0.27511  0.47880  0.01291  1.0000
  C   C513      1.0  0.34135  0.42040  0.11683  1.0000
  C   C514      1.0  0.26105  0.38560  0.02756  1.0000
  H   H897      1.0  0.28366  0.40581  0.99961  1.0000
  H   H898      1.0  0.08461  0.41771  0.21210  1.0000
  H   H899      1.0  0.27362  0.39684  0.01980  1.0000
  H   H900      1.0  0.48965  0.25108  0.00696  1.0000
  C   C515      1.0  0.11610  0.48409  0.08153  1.0000
  H   H901      1.0  0.45914  0.42102  0.02834  1.0000
  H   H902      1.0  0.06996  0.46983  0.04486  1.0000
  H   H903      1.0  0.02893  0.47216  0.07694  1.0000
  H   H904      1.0  0.18632  0.46342  0.04801  1.0000
  H   H905      1.0  0.30236  0.39111  0.03822  1.0000
  N   N27       1.0  0.07534  0.44799  0.17891  1.0000
  C   C516      1.0  0.06229  0.45051  0.18417  1.0000
  C   C517      1.0  0.08031  0.43486  0.18061  1.0000
  C   C518      1.0  0.08100  0.45271  0.18566  1.0000
  C   C519      1.0  0.07826  0.45404  0.16610  1.0000
  C   C520      1.0  0.07145  0.45233  0.15789  1.0000
  C   C521      1.0  0.46892  0.29246  0.00628  1.0000
  C   C522      1.0  0.09464  0.45031  0.18226  1.0000
  C   C523      1.0  0.07262  0.42731  0.17928  1.0000
  C   C524      1.0  0.07952  0.41472  0.17889  1.0000
  C   C525      1.0  0.07211  0.46180  0.14658  1.0000
  C   C526      1.0  0.32544  0.48408  0.01776  1.0000
  C   C527      1.0  0.09934  0.45496  0.19005  1.0000
  H   H906      1.0  0.06058  0.44619  0.19370  1.0000
  H   H907      1.0  0.05757  0.44651  0.18031  1.0000
  H   H908      1.0  0.08903  0.43296  0.17447  1.0000
  H   H909      1.0  0.08196  0.43111  0.18965  1.0000
  H   H910      1.0  0.07834  0.44906  0.19528  1.0000
  H   H911      1.0  0.07784  0.46242  0.18451  1.0000
  H   H912      1.0  0.07718  0.46365  0.16524  1.0000
  H   H913      1.0  0.08774  0.45101  0.16216  1.0000
  H   H914      1.0  0.06200  0.45284  0.16186  1.0000
  H   H915      1.0  0.07541  0.44370  0.15538  1.0000
  H   H916      1.0  0.35749  0.40235  0.06703  1.0000
  H   H917      1.0  0.05864  0.46895  0.17411  1.0000
  H   H918      1.0  0.09772  0.45479  0.17303  1.0000
  H   H919      1.0  0.09864  0.44076  0.18329  1.0000
  H   H920      1.0  0.06499  0.42686  0.18690  1.0000
  H   H921      1.0  0.06920  0.43104  0.17124  1.0000
  H   H922      1.0  0.07359  0.40948  0.17842  1.0000
  H   H923      1.0  0.08691  0.41459  0.17102  1.0000
  H   H924      1.0  0.08301  0.41054  0.18697  1.0000
  H   H925      1.0  0.06811  0.47065  0.14860  1.0000
  S   S116      1.0  0.07334  0.46676  0.21056  1.0000
  H   H926      1.0  0.06706  0.46047  0.14095  1.0000
  C   C528      1.0  0.23712  0.47894  0.03254  1.0000
  C   C529      1.0  0.17637  0.45152  0.03155  1.0000
  C   C530      1.0  0.32126  0.42760  0.08755  1.0000
  H   H927      1.0  0.09587  0.46460  0.18904  1.0000
  H   H928      1.0  0.10070  0.45559  0.11691  1.0000
  H   H929      1.0  0.10910  0.45321  0.18743  1.0000
  S   S117      1.0  0.06331  0.41055  0.21012  1.0000
  H   H930      1.0  0.10758  0.47303  0.22575  1.0000
  H   H931      1.0  0.16857  0.45241  0.02848  1.0000
  H   H932      1.0  0.47249  0.39349  0.00627  1.0000
  H   H933      1.0  0.47417  0.39689  0.01918  1.0000
  H   H934      1.0  0.11348  0.44596  0.11008  1.0000
  H   H935      1.0  0.21433  0.40277  0.06530  1.0000
  Fe  Fe54      1.0  0.24944  0.42692  0.03485  1.0000
  H   H936      1.0  0.32619  0.41299  0.99190  1.0000
  H   H937      1.0  0.26905  0.47034  0.00766  1.0000
  H   H938      1.0  0.29946  0.46263  0.08436  1.0000
  H   H939      1.0  0.27069  0.44159  0.07442  1.0000
  Fe  Fe55      1.0  0.31242  0.44601  0.04956  1.0000
  N   N28       1.0  0.26467  0.48299  0.06097  1.0000
  H   H940      1.0  0.21733  0.40396  0.04415  1.0000
  H   H941      1.0  0.09269  0.42896  0.20886  1.0000
  C   C531      1.0  0.05602  0.46368  0.18307  1.0000
  C   C532      1.0  0.03951  0.44510  0.14596  1.0000
  C   C533      1.0  0.28256  0.46005  0.01712  1.0000
  H   H942      1.0  0.08481  0.42968  0.07150  1.0000
  H   H943      1.0  0.34345  0.40001  0.02605  1.0000
  C   C534      1.0  0.05197  0.38072  0.22876  1.0000
  Fe  Fe56      1.0  0.24582  0.44538  0.01258  1.0000
  C   C535      1.0  0.27143  0.48467  0.06887  1.0000
  C   C536      1.0  0.06551  0.46289  0.04538  1.0000
  H   H944      1.0  0.22755  0.38078  0.03683  1.0000
  H   H945      1.0  0.26060  0.46206  0.07634  1.0000
  H   H946      1.0  0.07184  0.45434  0.04719  1.0000
  C   C537      1.0  0.05391  0.46313  0.05504  1.0000
  C   C538      1.0  0.34050  0.40752  0.07876  1.0000
  S   S118      1.0  0.03207  0.41054  0.20524  1.0000
  C   C539      1.0  0.19653  0.44160  0.03280  1.0000
  C   C540      1.0  0.23259  0.40471  0.00910  1.0000
  H   H947      1.0  0.00598  0.48294  0.09412  1.0000
  H   H948      1.0  0.34789  0.39235  0.07070  1.0000
  H   H949      1.0  0.22718  0.41077  0.02498  1.0000
  H   H950      1.0  0.24001  0.35886  0.01749  1.0000
  C   C541      1.0  0.09095  0.42065  0.21502  1.0000
  H   H951      1.0  0.09582  0.47974  0.13698  1.0000
  N   N29       1.0  0.05440  0.46393  0.06708  1.0000
  C   C542      1.0  0.30232  0.46867  0.07630  1.0000
  H   H952      1.0  0.34789  0.47709  0.04906  1.0000
  H   H953      1.0  0.34112  0.47135  0.02120  1.0000
  C   C543      1.0  0.01852  0.46572  0.11666  1.0000
  H   H954      1.0  0.49005  0.24540  0.99487  1.0000
  H   H955      1.0  0.42473  0.42740  0.01451  1.0000
  C   C544      1.0  0.03223  0.46324  0.07506  1.0000
  H   H956      1.0  0.11386  0.43107  0.23567  1.0000
  H   H957      1.0  0.35033  0.42122  0.07363  1.0000
  H   H958      1.0  0.05143  0.47691  0.07729  1.0000
  H   H959      1.0  0.24538  0.48031  0.05376  1.0000
  H   H960      1.0  0.14126  0.47972  0.23857  1.0000
  H   H961      1.0  0.00207  0.47263  0.21163  1.0000
  H   H962      1.0  0.00546  0.42815  0.15318  1.0000
  H   H963      1.0  0.34957  0.38384  0.00078  1.0000
  H   H964      1.0  0.09671  0.45061  0.19944  1.0000
  C   C545      1.0  0.00526  0.39604  0.20408  1.0000
  H   H965      1.0  0.48520  0.30776  0.00137  1.0000
  H   H966      1.0  0.05850  0.48591  0.05042  1.0000
  H   H967      1.0  0.99910  0.46001  0.20898  1.0000
  C   C546      1.0  0.33794  0.48105  0.01969  1.0000
  C   C547      1.0  0.33470  0.45949  0.06746  1.0000
  H   H968      1.0  0.04264  0.46273  0.15654  1.0000
  H   H969      1.0  0.27145  0.47751  0.07688  1.0000
  H   H970      1.0  0.34498  0.40613  0.06039  1.0000
  H   H971      1.0  0.33141  0.40657  0.07988  1.0000
  H   H972      1.0  0.11912  0.48372  0.10284  1.0000
  S   S119      1.0  0.32584  0.45840  0.00499  1.0000
  H   H973      1.0  0.22193  0.38910  0.05198  1.0000
  H   H974      1.0  0.31333  0.44439  0.09328  1.0000
  H   H975      1.0  0.35894  0.48540  0.04469  1.0000
  H   H976      1.0  0.03429  0.45428  0.24055  1.0000
  H   H977      1.0  0.20149  0.46666  0.01091  1.0000
  C   C548      1.0  0.22936  0.40201  0.02275  1.0000
  H   H978      1.0  0.24232  0.37520  0.03811  1.0000
  N   N30       1.0  0.33415  0.42733  0.08565  1.0000
  Fe  Fe57      1.0  0.06031  0.48231  0.11531  1.0000
  H   H979      1.0  0.25237  0.39304  0.01328  1.0000
  H   H980      1.0  0.04698  0.47051  0.05166  1.0000
  C   C549      1.0  0.38316  0.41567  0.01681  1.0000
  S   S120      1.0  0.41025  0.43545  0.99521  1.0000
  H   H981      1.0  0.21471  0.48870  0.02351  1.0000
  C   C550      1.0  0.27061  0.44881  0.06645  1.0000
  C   C551      1.0  0.30820  0.48702  0.06631  1.0000
  S   S121      1.0  0.04583  0.47258  0.12308  1.0000
  H   H982      1.0  0.00992  0.45453  0.13178  1.0000
  C   C552      1.0  0.17635  0.45899  0.03848  1.0000
  Fe  Fe58      1.0  0.22511  0.43645  0.02964  1.0000
  C   C553      1.0  0.26901  0.46050  0.06978  1.0000
  H   H983      1.0  0.05312  0.41932  0.23163  1.0000
  H   H984      1.0  0.11799  0.46198  0.09341  1.0000
  H   H985      1.0  0.29760  0.43837  0.08824  1.0000
  H   H986      1.0  0.12362  0.44420  0.24043  1.0000
  H   H987      1.0  0.27910  0.44687  0.06004  1.0000
  H   H988      1.0  0.35008  0.41426  0.11519  1.0000
  H   H989      1.0  0.43624  0.44749  0.00948  1.0000
  H   H990      1.0  0.44424  0.36786  0.99428  1.0000
  H   H991      1.0  0.27615  0.45950  0.07422  1.0000
  H   H992      1.0  0.99864  0.39152  0.21065  1.0000
  H   H993      1.0  0.99672  0.49094  0.12111  1.0000
  H   H994      1.0  0.32999  0.43443  0.10739  1.0000
  H   H995      1.0  0.24276  0.39075  0.04613  1.0000
  H   H996      1.0  0.99642  0.44230  0.14848  1.0000
  H   H997      1.0  0.22089  0.39910  0.02577  1.0000
  H   H998      1.0  0.23889  0.40572  0.03896  1.0000
  H   H999      1.0  0.26062  0.38645  0.03652  1.0000
  H   H1000     1.0  0.47113  0.26658  0.00205  1.0000
  H   H1001     1.0  0.31593  0.43804  0.01304  1.0000
  H   H1002     1.0  0.30388  0.48110  0.08512  1.0000
  S   S122      1.0  0.30052  0.45303  0.06500  1.0000
  H   H1003     1.0  0.31844  0.43063  0.07903  1.0000
  H   H1004     1.0  0.06557  0.44506  0.21680  1.0000
  S   S123      1.0  0.32829  0.45282  0.03848  1.0000
  H   H1005     1.0  0.05436  0.45568  0.24115  1.0000
  C   C554      1.0  0.26959  0.47073  0.05873  1.0000
  H   H1006     1.0  0.11717  0.46564  0.10704  1.0000
  C   C555      1.0  0.25079  0.39436  0.02231  1.0000
  H   H1007     1.0  0.48051  0.27169  0.02906  1.0000
  H   H1008     1.0  0.45425  0.31056  0.01385  1.0000
  C   C556      1.0  0.47592  0.28763  0.01620  1.0000
  H   H1009     1.0  0.02309  0.46178  0.17063  1.0000
  C   C557      1.0  0.02663  0.47663  0.15634  1.0000
  H   H1010     1.0  0.23145  0.44284  0.00138  1.0000
  N   N31       1.0  0.44362  0.42212  0.01320  1.0000
  H   H1011     1.0  0.43260  0.41926  0.00355  1.0000
  H   H1012     1.0  0.04260  0.48115  0.06675  1.0000
  C   C558      1.0  0.08972  0.48335  0.22930  1.0000
  C   C559      1.0  0.18640  0.45776  0.04253  1.0000
  H   H1013     1.0  0.01589  0.46567  0.19398  1.0000
  H   H1014     1.0  0.28988  0.42724  0.00676  1.0000
  H   H1015     1.0  0.43513  0.40058  0.01963  1.0000
  H   H1016     1.0  0.33194  0.46462  0.05919  1.0000
  C   C560      1.0  0.33595  0.40463  0.00603  1.0000
  H   H1017     1.0  0.31141  0.40126  0.99873  1.0000
  H   H1018     1.0  0.22980  0.39651  0.06473  1.0000
  C   C561      1.0  0.20355  0.46008  0.00542  1.0000
  Fe  Fe59      1.0  0.47874  0.36532  0.99656  1.0000
  H   H1019     1.0  0.02486  0.45477  0.09298  1.0000
  H   H1020     1.0  0.04447  0.47620  0.14596  1.0000
  H   H1021     1.0  0.22495  0.41140  0.05690  1.0000
  C   C562      1.0  0.00242  0.47014  0.16368  1.0000
  C   C563      1.0  0.33855  0.42827  0.10527  1.0000
  C   C564      1.0  0.99803  0.48705  0.24108  1.0000
  C   C565      1.0  0.35459  0.40681  0.00919  1.0000
  H   H1022     1.0  0.05912  0.45733  0.03320  1.0000
  C   C566      1.0  0.28197  0.42355  0.01085  1.0000
  H   H1023     1.0  0.32543  0.48058  0.01025  1.0000
  H   H1024     1.0  0.35778  0.46493  0.00488  1.0000
  H   H1025     1.0  0.31942  0.48015  0.02568  1.0000
  C   C567      1.0  0.05945  0.46388  0.21324  1.0000
  C   C568      1.0  0.27294  0.38786  0.02000  1.0000
  H   H1026     1.0  0.10306  0.42105  0.23027  1.0000
  H   H1027     1.0  0.03128  0.46373  0.06611  1.0000
  C   C569      1.0  0.12124  0.48436  0.22963  1.0000
  H   H1028     1.0  0.44867  0.29759  0.99786  1.0000
  C   C570      1.0  0.31683  0.44082  0.00370  1.0000
  S   S124      1.0  0.09307  0.48920  0.15712  1.0000
  C   C571      1.0  0.11410  0.48854  0.20599  1.0000
  H   H1029     1.0  0.31968  0.41857  0.09104  1.0000
  C   C572      1.0  0.33823  0.48545  0.03044  1.0000
  H   H1030     1.0  0.23924  0.41022  0.00583  1.0000
  C   C573      1.0  0.10229  0.47567  0.09863  1.0000
  H   H1031     1.0  0.36870  0.48036  0.02567  1.0000
  C   C574      1.0  0.36112  0.46511  0.03316  1.0000
  S   S125      1.0  0.46058  0.37669  0.00140  1.0000
  C   C575      1.0  0.11192  0.46442  0.10154  1.0000
  Fe  Fe60      1.0  0.15288  0.47755  0.02887  1.0000
  H   H1032     1.0  0.43932  0.41843  0.03219  1.0000
  H   H1033     1.0  0.07168  0.46387  0.02661  1.0000
  S   S126      1.0  0.22809  0.45455  0.02124  1.0000
  C   C576      1.0  0.10643  0.45393  0.10834  1.0000
  S   S127      1.0  0.23449  0.46701  0.04415  1.0000
  H   H1034     1.0  0.33700  0.39579  0.01192  1.0000
  H   H1035     1.0  0.18693  0.47700  0.05971  1.0000
  H   H1036     1.0  0.25048  0.48212  0.07650  1.0000
  H   H1037     1.0  0.09718  0.47367  0.09346  1.0000
  H   H1038     1.0  0.09612  0.47687  0.10714  1.0000
  H   H1039     1.0  0.99779  0.38532  0.23669  1.0000
  C   C577      1.0  0.20359  0.46616  0.06256  1.0000
  H   H1040     1.0  0.02672  0.46320  0.11950  1.0000
  H   H1041     1.0  0.46814  0.31094  0.01538  1.0000
  H   H1042     1.0  0.41806  0.40648  0.01028  1.0000
  S   S128      1.0  0.05873  0.45667  0.10319  1.0000
  Fe  Fe61      1.0  0.07230  0.46763  0.09676  1.0000
  H   H1043     1.0  0.11808  0.47221  0.04761  1.0000
  H   H1044     1.0  0.35916  0.40520  0.03107  1.0000
  C   C578      1.0  0.47800  0.26195  0.99563  1.0000
  H   H1045     1.0  0.11252  0.45226  0.23221  1.0000
  S   S129      1.0  0.30672  0.44380  0.03450  1.0000
  H   H1046     1.0  0.08138  0.46139  0.14166  1.0000
  H   H1047     1.0  0.27409  0.38689  0.01089  1.0000
  H   H1048     1.0  0.27589  0.42915  0.01683  1.0000
  C   C579      1.0  0.33284  0.44704  0.07004  1.0000
  H   H1049     1.0  0.02639  0.44672  0.08195  1.0000
  H   H1050     1.0  0.29380  0.44048  0.10305  1.0000
  C   C580      1.0  0.06621  0.45786  0.07007  1.0000
  C   C581      1.0  0.43221  0.41988  0.01262  1.0000
  H   H1051     1.0  0.06490  0.44012  0.08034  1.0000
  C   C582      1.0  0.31259  0.43508  0.09616  1.0000
  H   H1052     1.0  0.13822  0.46580  0.23905  1.0000
  N   N32       1.0  0.46880  0.30509  0.99992  1.0000
  C   C583      1.0  0.44160  0.42569  0.02467  1.0000
  C   C584      1.0  0.37103  0.45660  0.02673  1.0000
  H   H1053     1.0  0.47417  0.24367  0.01931  1.0000
  H   H1054     1.0  0.06700  0.44157  0.06480  1.0000
  H   H1055     1.0  0.07923  0.39026  0.21998  1.0000
  H   H1056     1.0  0.04444  0.39432  0.23853  1.0000
  C   C585      1.0  0.08274  0.43933  0.07073  1.0000
  H   H1057     1.0  0.36386  0.38465  0.00182  1.0000
  H   H1058     1.0  0.45137  0.40593  0.00703  1.0000
  H   H1059     1.0  0.28457  0.41452  0.01605  1.0000
  H   H1060     1.0  0.05111  0.45499  0.05557  1.0000
  Fe  Fe62      1.0  0.02505  0.42890  0.19577  1.0000
  H   H1061     1.0  0.48369  0.40101  0.00508  1.0000
  H   H1062     1.0  0.07344  0.46151  0.06352  1.0000
  C   C586      1.0  0.33867  0.42084  0.09667  1.0000
  C   C587      1.0  0.00900  0.46079  0.12360  1.0000
  C   C588      1.0  0.27601  0.42348  0.00141  1.0000
  H   H1063     1.0  0.34369  0.40250  0.08682  1.0000
  H   H1064     1.0  0.35272  0.46240  0.03479  1.0000
  H   H1065     1.0  0.17766  0.48507  0.04445  1.0000
  C   C589      1.0  0.04976  0.47325  0.21201  1.0000
  H   H1066     1.0  0.37959  0.45909  0.02487  1.0000
  Fe  Fe63      1.0  0.14423  0.47741  0.00782  1.0000
  S   S130      1.0  0.13770  0.47144  0.02738  1.0000
  H   H1067     1.0  0.09345  0.44643  0.23848  1.0000
  C   C590      1.0  0.30489  0.47904  0.07674  1.0000
  H   H1068     1.0  0.36423  0.40517  0.00524  1.0000
  H   H1069     1.0  0.04701  0.44866  0.07608  1.0000
  C   C591      1.0  0.20083  0.48376  0.04556  1.0000
  H   H1070     1.0  0.12265  0.48249  0.20706  1.0000
  H   H1071     1.0  0.27735  0.46681  0.03303  1.0000
  Fe  Fe64      1.0  0.23682  0.45184  0.03606  1.0000
  H   H1072     1.0  0.02118  0.44850  0.15437  1.0000
  H   H1073     1.0  0.21240  0.46703  0.06267  1.0000
  S   S131      1.0  0.16040  0.48170  0.00946  1.0000
  H   H1074     1.0  0.02426  0.47388  0.14951  1.0000
  H   H1075     1.0  0.00808  0.48071  0.19122  1.0000
  H   H1076     1.0  0.33656  0.48374  0.06731  1.0000
  H   H1077     1.0  0.05092  0.48216  0.20923  1.0000
  C   C592      1.0  0.07473  0.38936  0.23867  1.0000
  S   S132      1.0  0.01117  0.43375  0.21139  1.0000
  H   H1078     1.0  0.36060  0.47812  0.01693  1.0000
  S   S133      1.0  0.00987  0.40294  0.23473  1.0000
  H   H1079     1.0  0.32343  0.44774  0.07065  1.0000
  H   H1080     1.0  0.45985  0.29123  0.01055  1.0000
  Fe  Fe65      1.0  0.01918  0.41603  0.22117  1.0000
  S   S134      1.0  0.48843  0.35499  0.01069  1.0000
  C   C593      1.0  0.36032  0.47804  0.02614  1.0000
  C   C594      1.0  0.04687  0.45016  0.21798  1.0000
  C   C595      1.0  0.06955  0.44428  0.07154  1.0000
  H   H1081     1.0  0.04581  0.44123  0.22008  1.0000
  C   C596      1.0  0.03710  0.45959  0.21713  1.0000
  H   H1082     1.0  0.36317  0.46406  0.04179  1.0000
  H   H1083     1.0  0.36926  0.45645  0.01832  1.0000
  Fe  Fe66      1.0  0.02524  0.43976  0.21508  1.0000
  H   H1084     1.0  0.23628  0.39666  0.00553  1.0000
  C   C597      1.0  0.02990  0.44387  0.15551  1.0000
  C   C598      1.0  0.22414  0.39786  0.04877  1.0000
  H   H1085     1.0  0.27592  0.48960  0.08802  1.0000
  H   H1086     1.0  0.33450  0.41525  0.12143  1.0000
  H   H1087     1.0  0.28087  0.48414  0.06431  1.0000
  H   H1088     1.0  0.03844  0.47484  0.18480  1.0000
  C   C599      1.0  0.42845  0.40872  0.02114  1.0000
  C   C600      1.0  0.06564  0.40514  0.22448  1.0000
  H   H1089     1.0  0.26113  0.48370  0.03844  1.0000
  H   H1090     1.0  0.09532  0.43560  0.22552  1.0000
  H   H1091     1.0  0.32931  0.46401  0.07467  1.0000
  C   C601      1.0  0.00681  0.47681  0.10238  1.0000
  H   H1092     1.0  0.16261  0.49185  0.06135  1.0000
  C   C602      1.0  0.31301  0.43464  0.99795  1.0000
  H   H1093     1.0  0.03944  0.46077  0.19481  1.0000
  H   H1094     1.0  0.33054  0.41081  0.01185  1.0000
  C   C603      1.0  0.07391  0.39464  0.22699  1.0000
  H   H1095     1.0  0.01213  0.39604  0.20848  1.0000
  H   H1096     1.0  0.23185  0.37999  0.01642  1.0000
  H   H1097     1.0  0.37178  0.44756  0.03228  1.0000
  S   S135      1.0  0.02316  0.45716  0.21890  1.0000
  H   H1098     1.0  0.24585  0.35760  0.02997  1.0000
  H   H1099     1.0  0.00646  0.41224  0.19182  1.0000
  C   C604      1.0  0.30350  0.46609  0.06544  1.0000
  N   N33       1.0  0.00675  0.47496  0.17143  1.0000
  H   H1100     1.0  0.26769  0.40518  0.99231  1.0000
  H   H1101     1.0  0.45322  0.34242  0.01008  1.0000
  H   H1102     1.0  0.08541  0.44102  0.07802  1.0000
  C   C605      1.0  0.06322  0.46439  0.03326  1.0000
  C   C606      1.0  0.05970  0.48445  0.05948  1.0000
  H   H1103     1.0  0.19942  0.46201  0.07157  1.0000
  H   H1104     1.0  0.33753  0.42477  0.06798  1.0000
  C   C607      1.0  0.46598  0.41200  0.00721  1.0000
  H   H1105     1.0  0.34618  0.43891  0.08019  1.0000
  H   H1106     1.0  0.45848  0.33010  0.02093  1.0000
  C   C608      1.0  0.09424  0.42712  0.23180  1.0000
  Fe  Fe67      1.0  0.49030  0.33915  0.00378  1.0000
  H   H1107     1.0  0.30774  0.47206  0.04662  1.0000
  H   H1108     1.0  0.13693  0.48840  0.06532  1.0000
  H   H1109     1.0  0.03108  0.47833  0.21334  1.0000
  H   H1110     1.0  0.44490  0.42748  0.04578  1.0000
  H   H1111     1.0  0.10777  0.48324  0.20665  1.0000
  C   C609      1.0  0.00709  0.47154  0.19341  1.0000
  H   H1112     1.0  0.07940  0.48682  0.07263  1.0000
  C   C610      1.0  0.04521  0.45811  0.07625  1.0000
  C   C611      1.0  0.46280  0.31275  0.00874  1.0000
  H   H1113     1.0  0.07726  0.42908  0.22742  1.0000
  C   C612      1.0  0.05155  0.47658  0.06817  1.0000
  H   H1114     1.0  0.24433  0.46856  0.01931  1.0000
  H   H1115     1.0  0.06655  0.45968  0.07842  1.0000
  C   C613      1.0  0.08576  0.42259  0.22754  1.0000
  S   S136      1.0  0.03170  0.42268  0.22662  1.0000
  C   C614      1.0  0.48400  0.24986  0.00181  1.0000
  H   H1116     1.0  0.02332  0.47464  0.17482  1.0000
  H   H1117     1.0  0.03893  0.48243  0.23718  1.0000
  H   H1118     1.0  0.04559  0.45836  0.08524  1.0000
  H   H1119     1.0  0.06088  0.37807  0.23064  1.0000
  S   S137      1.0  0.48555  0.32283  0.01651  1.0000
  C   C615      1.0  0.08457  0.47256  0.23208  1.0000
  C   C616      1.0  0.10965  0.47544  0.05299  1.0000
  C   C617      1.0  0.09383  0.47195  0.07019  1.0000
  C   C618      1.0  0.01744  0.47374  0.10605  1.0000
  H   H1120     1.0  0.37024  0.39447  0.02368  1.0000
  H   H1121     1.0  0.19980  0.47808  0.04029  1.0000
  C   C619      1.0  0.34090  0.42069  0.07608  1.0000
  N   N34       1.0  0.34993  0.48701  0.03106  1.0000
  S   S138      1.0  0.02930  0.47995  0.09720  1.0000
  Fe  Fe68      1.0  0.04570  0.47384  0.10439  1.0000
  C   C620      1.0  0.45302  0.41088  0.01261  1.0000
  C   C621      1.0  0.03996  0.47247  0.15498  1.0000
  H   H1122     1.0  0.08468  0.46763  0.24126  1.0000
  H   H1123     1.0  0.46726  0.41517  0.99751  1.0000
  H   H1124     1.0  0.33383  0.41381  0.10172  1.0000
  C   C622      1.0  0.04177  0.49038  0.23123  1.0000
  H   H1125     1.0  0.28203  0.45210  0.01465  1.0000
  H   H1126     1.0  0.04022  0.46159  0.17972  1.0000
  H   H1127     1.0  0.21053  0.48245  0.04422  1.0000
  C   C623      1.0  0.19590  0.47823  0.05859  1.0000
  H   H1128     1.0  0.30922  0.42726  0.00299  1.0000
  C   C624      1.0  0.45203  0.42899  0.02690  1.0000
  H   H1129     1.0  0.34154  0.42591  0.12265  1.0000
  C   C625      1.0  0.29986  0.43489  0.09698  1.0000
  H   H1130     1.0  0.18575  0.45072  0.99739  1.0000
  H   H1131     1.0  0.12529  0.47682  0.22521  1.0000
  H   H1132     1.0  0.07529  0.47537  0.23114  1.0000
  C   C626      1.0  0.02003  0.47156  0.16885  1.0000
  H   H1133     1.0  0.30184  0.47110  0.00244  1.0000
  H   H1134     1.0  0.33215  0.44481  0.08834  1.0000
  H   H1135     1.0  0.27840  0.45125  0.03549  1.0000
  H   H1136     1.0  0.24758  0.37629  0.01528  1.0000
  H   H1137     1.0  0.42912  0.44269  0.00108  1.0000
  H   H1138     1.0  0.35158  0.45526  0.00091  1.0000
  H   H1139     1.0  0.22558  0.47917  0.06569  1.0000
  Fe  Fe69      1.0  0.07265  0.48473  0.19886  1.0000
  H   H1140     1.0  0.44483  0.33124  0.01701  1.0000
  H   H1141     1.0  0.08926  0.48801  0.22013  1.0000
  H   H1142     1.0  0.21792  0.41990  0.00725  1.0000
  H   H1143     1.0  0.45558  0.32907  0.99688  1.0000
  H   H1144     1.0  0.08961  0.46671  0.22589  1.0000
  C   C627      1.0  0.22183  0.41160  0.00404  1.0000
  H   H1145     1.0  0.21150  0.45330  0.00726  1.0000
  C   C628      1.0  0.48149  0.30605  0.99480  1.0000
  H   H1146     1.0  0.00631  0.46054  0.16462  1.0000
  N   N35       1.0  0.10655  0.48679  0.09219  1.0000
  H   H1147     1.0  0.44828  0.42864  0.99448  1.0000
  C   C629      1.0  0.04281  0.38574  0.23871  1.0000
  H   H1148     1.0  0.26748  0.42095  0.00586  1.0000
  C   C630      1.0  0.11403  0.44658  0.24078  1.0000
  H   H1149     1.0  0.06907  0.48055  0.05966  1.0000
  H   H1150     1.0  0.24662  0.48554  0.00279  1.0000
  H   H1151     1.0  0.08234  0.48261  0.12390  1.0000
  C   C631      1.0  0.35754  0.46145  0.99747  1.0000
  H   H1152     1.0  0.44409  0.31238  0.00033  1.0000
  H   H1153     1.0  0.27418  0.43257  0.99617  1.0000
  H   H1154     1.0  0.31183  0.40683  0.01086  1.0000
  H   H1155     1.0  0.21375  0.47830  0.99494  1.0000
  C   C632      1.0  0.08725  0.48564  0.13834  1.0000
  C   C633      1.0  0.08780  0.48362  0.06716  1.0000
  C   C634      1.0  0.32843  0.40433  0.99776  1.0000
  C   C635      1.0  0.34998  0.48562  0.04381  1.0000
  H   H1156     1.0  0.05736  0.47309  0.03073  1.0000
  C   C636      1.0  0.07964  0.48725  0.13092  1.0000
  C   C637      1.0  0.10361  0.48708  0.04984  1.0000
  H   H1157     1.0  0.02473  0.48634  0.15472  1.0000
  C   C638      1.0  0.29553  0.47847  0.99816  1.0000
  C   C639      1.0  0.25172  0.48516  0.06677  1.0000
  N   N36       1.0  0.34771  0.40784  0.00015  1.0000
  C   C640      1.0  0.99726  0.47190  0.10935  1.0000
  H   H1158     1.0  0.01531  0.49129  0.23309  1.0000
  H   H1159     1.0  0.08397  0.48902  0.23541  1.0000
  Fe  Fe70      1.0  0.49599  0.24540  0.04204  1.0000
  C   C641      1.0  0.24325  0.48689  0.01168  1.0000
  H   H1160     1.0  0.31866  0.39170  0.01014  1.0000
  N   N37       1.0  0.28573  0.47404  0.99663  1.0000
  H   H1161     1.0  0.08078  0.38098  0.24061  1.0000
  S   S139      1.0  0.14508  0.46672  0.99493  1.0000
  H   H1162     1.0  0.10214  0.47515  0.24022  1.0000
  H   H1163     1.0  0.15597  0.49297  0.04948  1.0000
  C   C642      1.0  0.35763  0.38710  0.99594  1.0000
  H   H1164     1.0  0.38125  0.48898  0.00059  1.0000
  C   C643      1.0  0.31689  0.40082  0.00484  1.0000
  C   C644      1.0  0.99833  0.46390  0.11999  1.0000
  C   C645      1.0  0.99956  0.40869  0.19893  1.0000
  C   C646      1.0  0.45569  0.39041  0.99253  1.0000
  H   H1165     1.0  0.27348  0.45954  0.99462  1.0000
  C   C647      1.0  0.00242  0.48812  0.17024  1.0000
  H   H1166     1.0  0.12697  0.49075  0.22524  1.0000
  H   H1167     1.0  0.17200  0.46117  0.99569  1.0000
  H   H1168     1.0  0.00849  0.49161  0.17303  1.0000
  C   C648      1.0  0.99895  0.46950  0.20557  1.0000
  H   H1169     1.0  0.00084  0.46607  0.23181  1.0000
  H   H1170     1.0  0.00032  0.42534  0.17783  1.0000
  C   C649      1.0  0.99945  0.43606  0.15618  1.0000
  S   S140      1.0  0.25318  0.45066  0.99331  1.0000
  H   H1171     1.0  0.22441  0.41384  0.99429  1.0000
  C   C650      1.0  0.28389  0.41462  0.99378  1.0000
  C   C651      1.0  0.34525  0.42056  0.99372  1.0000
  C   C652      1.0  0.38941  0.48937  0.99413  1.0000
  H   H1172     1.0  0.99840  0.48583  0.23224  1.0000
  H   H1173     1.0  0.36649  0.45655  0.99396  1.0000
  H   H1174     1.0  0.02806  0.49140  0.13139  1.0000
  C   C653      1.0  0.23412  0.49027  0.03465  1.0000
  H   H1175     1.0  0.44380  0.35331  0.99387  1.0000
  H   H1176     1.0  0.99714  0.41489  0.17237  1.0000
  C   C654      1.0  0.26054  0.49243  0.03996  1.0000
  H   H1177     1.0  0.34933  0.48960  0.06531  1.0000
  H   H1178     1.0  0.00742  0.49240  0.15064  1.0000
  H   H1179     1.0  0.20466  0.49011  0.00768  1.0000
  Fe  Fe71      1.0  0.12793  0.49026  0.02674  1.0000
  C   C655      1.0  0.44355  0.39488  0.99362  1.0000
  C   C656      1.0  0.08367  0.49147  0.14766  1.0000
  H   H1180     1.0  0.48712  0.29754  0.99273  1.0000
  H   H1181     1.0  0.19209  0.49241  0.02626  1.0000
  H   H1182     1.0  0.03782  0.49278  0.22346  1.0000
  C   C657      1.0  0.11122  0.49039  0.10059  1.0000
  C   C658      1.0  0.09266  0.49116  0.05697  1.0000
  H   H1183     1.0  0.10469  0.49050  0.10914  1.0000
  H   H1184     1.0  0.08125  0.49157  0.10265  1.0000
  C   C659      1.0  0.20532  0.46594  0.99237  1.0000
  H   H1185     1.0  0.11893  0.49052  0.18701  1.0000
  H   H1186     1.0  0.31161  0.49072  0.04738  1.0000
  C   C660      1.0  0.26716  0.49168  0.04941  1.0000
  C   C661      1.0  0.34047  0.49156  0.06341  1.0000
  H   H1187     1.0  0.33316  0.39782  0.99221  1.0000
  C   C662      1.0  0.12900  0.49084  0.06159  1.0000
  H   H1188     1.0  0.99697  0.41373  0.20593  1.0000
  H   H1189     1.0  0.23041  0.49165  0.04348  1.0000
  C   C663      1.0  0.23470  0.44278  0.99217  1.0000
  H   H1190     1.0  0.31015  0.49200  0.99708  1.0000
  H   H1191     1.0  0.99604  0.43203  0.19545  1.0000
  H   H1192     1.0  0.34411  0.47594  0.99203  1.0000
  H   H1193     1.0  0.09313  0.49290  0.08216  1.0000
  Fe  Fe72      1.0  0.03083  0.34325  0.44582  1.0000
  C   C664      1.0  0.02781  0.39627  0.37239  1.0000
  C   C665      1.0  0.05002  0.45169  0.31297  1.0000
  S   S141      1.0  0.04653  0.29842  0.41138  1.0000
  C   C666      1.0  0.04761  0.38839  0.36180  1.0000
  Fe  Fe73      1.0  0.04005  0.41958  0.28160  1.0000
  S   S142      1.0  0.04023  0.40039  0.28617  1.0000
  H   H1194     1.0  0.02085  0.29972  0.38099  1.0000
  Fe  Fe74      1.0  0.06438  0.41559  0.28611  1.0000
  S   S143      1.0  0.06629  0.39607  0.29139  1.0000
  S   S144      1.0  0.08042  0.42107  0.28623  1.0000
  Fe  Fe75      1.0  0.05887  0.39857  0.27572  1.0000
  S   S145      1.0  0.06774  0.38727  0.26245  1.0000
  Fe  Fe76      1.0  0.04755  0.40017  0.30127  1.0000
  S   S146      1.0  0.03992  0.39290  0.32021  1.0000
  S   S147      1.0  0.05807  0.41786  0.26990  1.0000
  S   S148      1.0  0.04623  0.41958  0.29719  1.0000
  C   C667      1.0  0.08229  0.43541  0.27988  1.0000
  C   C668      1.0  0.07298  0.44475  0.27697  1.0000
  C   C669      1.0  0.07500  0.45615  0.27210  1.0000
  C   C670      1.0  0.08637  0.45803  0.26987  1.0000
  C   C671      1.0  0.09562  0.44863  0.27258  1.0000
  C   C672      1.0  0.09355  0.43739  0.27772  1.0000
  H   H1195     1.0  0.06427  0.44321  0.27863  1.0000
  H   H1196     1.0  0.06786  0.46343  0.26989  1.0000
  H   H1197     1.0  0.10438  0.45007  0.27090  1.0000
  H   H1198     1.0  0.10073  0.43018  0.28000  1.0000
  C   C673      1.0  0.05122  0.37200  0.38684  1.0000
  C   C674      1.0  0.04751  0.36934  0.27538  1.0000
  H   H1199     1.0  0.01440  0.40065  0.25944  1.0000
  S   S149      1.0  0.08943  0.47190  0.26320  1.0000
  H   H1200     1.0  0.11705  0.47332  0.24753  1.0000
  H   H1201     1.0  0.04207  0.32328  0.40893  1.0000
  C   C675      1.0  0.03960  0.42181  0.33741  1.0000
  C   C676      1.0  0.03021  0.41615  0.34132  1.0000
  C   C677      1.0  0.03055  0.40674  0.33653  1.0000
  C   C678      1.0  0.04024  0.40309  0.32781  1.0000
  C   C679      1.0  0.04980  0.40844  0.32433  1.0000
  H   H1202     1.0  0.08970  0.25522  0.45671  1.0000
  H   H1203     1.0  0.02254  0.41930  0.34768  1.0000
  H   H1204     1.0  0.02310  0.40270  0.33911  1.0000
  H   H1205     1.0  0.02340  0.45499  0.28203  1.0000
  C   C680      1.0  0.02049  0.35796  0.48855  1.0000
  H   H1206     1.0  0.09015  0.39962  0.27238  1.0000
  H   H1207     1.0  0.02785  0.44255  0.32164  1.0000
  C   C681      1.0  0.01587  0.45538  0.24945  1.0000
  C   C682      1.0  0.08233  0.47384  0.31732  1.0000
  C   C683      1.0  0.02276  0.37756  0.25832  1.0000
  C   C684      1.0  0.00412  0.27814  0.47898  1.0000
  H   H1208     1.0  0.99856  0.38737  0.25868  1.0000
  C   C685      1.0  0.12259  0.47972  0.24258  1.0000
  C   C686      1.0  0.07118  0.31315  0.48608  1.0000
  H   H1209     1.0  0.01994  0.38454  0.25097  1.0000
  C   C687      1.0  0.00057  0.43587  0.28309  1.0000
  H   H1210     1.0  0.01069  0.47311  0.33523  1.0000
  C   C688      1.0  0.99887  0.27265  0.43056  1.0000
  H   H1211     1.0  0.08776  0.30040  0.48310  1.0000
  H   H1212     1.0  0.02032  0.32590  0.41877  1.0000
  H   H1213     1.0  0.04339  0.28661  0.45854  1.0000
  H   H1214     1.0  0.02676  0.40292  0.24755  1.0000
  S   S150      1.0  0.03896  0.43440  0.34213  1.0000
  H   H1215     1.0  0.05401  0.39496  0.37856  1.0000
  S   S151      1.0  0.00049  0.36491  0.45155  1.0000
  C   C689      1.0  0.04949  0.41776  0.32912  1.0000
  H   H1216     1.0  0.07512  0.32050  0.48031  1.0000
  C   C690      1.0  0.04379  0.37740  0.25083  1.0000
  H   H1217     1.0  0.01332  0.45183  0.24331  1.0000
  C   C691      1.0  0.01119  0.46682  0.31992  1.0000
  C   C692      1.0  0.99956  0.26426  0.45431  1.0000
  C   C693      1.0  0.04470  0.39852  0.37791  1.0000
  H   H1218     1.0  0.05728  0.35659  0.39972  1.0000
  C   C694      1.0  0.04190  0.48955  0.33240  1.0000
  S   S152      1.0  0.99846  0.41510  0.38738  1.0000
  H   H1219     1.0  0.03688  0.39350  0.39693  1.0000
  H   H1220     1.0  0.04020  0.39350  0.26222  1.0000
  Fe  Fe77      1.0  0.06443  0.25732  0.43130  1.0000
  H   H1221     1.0  0.04812  0.44316  0.31826  1.0000
  H   H1222     1.0  0.04830  0.35185  0.28680  1.0000
  H   H1223     1.0  0.06553  0.34172  0.47359  1.0000
  C   C695      1.0  0.07099  0.47389  0.32685  1.0000
  C   C696      1.0  0.04323  0.45644  0.30296  1.0000
  H   H1224     1.0  0.00356  0.47665  0.28294  1.0000
  C   C697      1.0  0.04824  0.32063  0.43526  1.0000
  H   H1225     1.0  0.05736  0.40558  0.31767  1.0000
  H   H1226     1.0  0.08401  0.46652  0.31284  1.0000
  H   H1227     1.0  0.00073  0.46406  0.39712  1.0000
  C   C698      1.0  0.04443  0.32598  0.42480  1.0000
  H   H1228     1.0  0.05540  0.29212  0.43274  1.0000
  H   H1229     1.0  0.06353  0.39033  0.34016  1.0000
  H   H1230     1.0  0.03730  0.47646  0.32652  1.0000
  C   C699      1.0  0.01245  0.30549  0.39741  1.0000
  H   H1231     1.0  0.04152  0.33542  0.42248  1.0000
  H   H1232     1.0  0.03267  0.48871  0.39912  1.0000
  H   H1233     1.0  0.05799  0.24785  0.45463  1.0000
  H   H1234     1.0  0.00959  0.40596  0.36101  1.0000
  H   H1235     1.0  0.04556  0.35538  0.39411  1.0000
  H   H1236     1.0  0.04249  0.36449  0.40463  1.0000
  H   H1237     1.0  0.02888  0.37102  0.27948  1.0000
  H   H1238     1.0  0.00876  0.45859  0.32560  1.0000
  H   H1239     1.0  0.03571  0.43794  0.30862  1.0000
  C   C700      1.0  0.03779  0.40153  0.38995  1.0000
  H   H1240     1.0  0.06210  0.39720  0.35815  1.0000
  H   H1241     1.0  0.06687  0.37522  0.34813  1.0000
  H   H1242     1.0  0.01004  0.29846  0.45327  1.0000
  N   N38       1.0  0.05834  0.48408  0.34394  1.0000
  H   H1243     1.0  0.01456  0.34142  0.39552  1.0000
  H   H1244     1.0  0.04313  0.45636  0.26850  1.0000
  H   H1245     1.0  0.06523  0.38223  0.36614  1.0000
  H   H1246     1.0  0.07619  0.48506  0.33465  1.0000
  H   H1247     1.0  0.02185  0.39728  0.38104  1.0000
  H   H1248     1.0  0.02217  0.36209  0.47931  1.0000
  C   C701      1.0  0.00888  0.41314  0.40541  1.0000
  Fe  Fe78      1.0  0.01088  0.35275  0.46461  1.0000
  C   C702      1.0  0.00584  0.32336  0.41304  1.0000
  H   H1249     1.0  0.07680  0.38465  0.34565  1.0000
  S   S153      1.0  0.02245  0.35446  0.43093  1.0000
  H   H1250     1.0  0.04767  0.37810  0.27629  1.0000
  H   H1251     1.0  0.02630  0.48213  0.33839  1.0000
  H   H1252     1.0  0.01977  0.41469  0.29755  1.0000
  H   H1253     1.0  0.00052  0.29351  0.44014  1.0000
  H   H1254     1.0  0.02885  0.32827  0.47856  1.0000
  C   C703      1.0  0.00513  0.39527  0.40367  1.0000
  H   H1255     1.0  0.02751  0.40538  0.36695  1.0000
  H   H1256     1.0  0.01111  0.45181  0.25829  1.0000
  C   C704      1.0  0.02636  0.26173  0.48811  1.0000
  H   H1257     1.0  0.04429  0.39557  0.35469  1.0000
  H   H1258     1.0  0.06745  0.33112  0.46491  1.0000
  S   S154      1.0  0.03568  0.49185  0.29707  1.0000
  H   H1259     1.0  0.02515  0.28147  0.47104  1.0000
  H   H1260     1.0  0.02255  0.28830  0.39397  1.0000
  C   C705      1.0  0.00960  0.39671  0.36575  1.0000
  C   C706      1.0  0.01683  0.33981  0.40415  1.0000
  H   H1261     1.0  0.05682  0.42203  0.32614  1.0000
  H   H1262     1.0  0.09218  0.44074  0.25379  1.0000
  S   S155      1.0  0.05777  0.24758  0.39648  1.0000
  S   S156      1.0  0.02300  0.25425  0.44975  1.0000
  C   C707      1.0  0.04832  0.36086  0.28722  1.0000
  H   H1263     1.0  0.00368  0.39662  0.37460  1.0000
  S   S157      1.0  0.06976  0.48426  0.29125  1.0000
  C   C708      1.0  0.07609  0.25448  0.47267  1.0000
  S   S158      1.0  0.02440  0.43133  0.37473  1.0000
  H   H1264     1.0  0.05269  0.40335  0.39538  1.0000
  H   H1265     1.0  0.04571  0.36816  0.24978  1.0000
  H   H1266     1.0  0.05584  0.30435  0.44581  1.0000
  H   H1267     1.0  0.04761  0.45800  0.31878  1.0000
  H   H1268     1.0  0.99681  0.40566  0.43992  1.0000
  H   H1269     1.0  0.08159  0.48222  0.31066  1.0000
  C   C709      1.0  0.01379  0.40681  0.41513  1.0000
  C   C710      1.0  0.03072  0.45578  0.28531  1.0000
  H   H1270     1.0  0.02471  0.32150  0.40479  1.0000
  C   C711      1.0  0.05252  0.30845  0.43793  1.0000
  C   C712      1.0  0.02232  0.29777  0.39002  1.0000
  C   C713      1.0  0.02942  0.47435  0.39438  1.0000
  C   C714      1.0  0.02639  0.47064  0.38597  1.0000
  H   H1271     1.0  0.03099  0.29951  0.38941  1.0000
  C   C715      1.0  0.09524  0.41762  0.25269  1.0000
  H   H1272     1.0  0.09529  0.25320  0.41181  1.0000
  H   H1273     1.0  0.02542  0.34212  0.40265  1.0000
  C   C716      1.0  0.01771  0.32691  0.41044  1.0000
  C   C717      1.0  0.02204  0.38986  0.36688  1.0000
  H   H1274     1.0  0.09144  0.38884  0.26423  1.0000
  H   H1275     1.0  0.04486  0.46536  0.29844  1.0000
  Fe  Fe79      1.0  0.01791  0.36880  0.44081  1.0000
  H   H1276     1.0  0.01058  0.37957  0.41641  1.0000
  N   N39       1.0  0.04025  0.39033  0.37376  1.0000
  H   H1277     1.0  0.01670  0.26269  0.42713  1.0000
  H   H1278     1.0  0.04074  0.48100  0.35052  1.0000
  H   H1279     1.0  0.06573  0.49262  0.32613  1.0000
  H   H1280     1.0  0.00832  0.46212  0.27083  1.0000
  C   C718      1.0  0.06745  0.39467  0.24784  1.0000
  C   C719      1.0  0.01447  0.43053  0.31851  1.0000
  S   S159      1.0  0.02576  0.45581  0.38879  1.0000
  H   H1281     1.0  0.01962  0.30768  0.42749  1.0000
  C   C720      1.0  0.03982  0.37879  0.38254  1.0000
  C   C721      1.0  0.06332  0.44974  0.30806  1.0000
  C   C722      1.0  0.03953  0.28172  0.47772  1.0000
  C   C723      1.0  0.99928  0.25312  0.40826  1.0000
  S   S160      1.0  0.06602  0.26658  0.41241  1.0000
  S   S161      1.0  0.99896  0.44901  0.38208  1.0000
  Fe  Fe80      1.0  0.01795  0.44979  0.37748  1.0000
  S   S162      1.0  0.01851  0.45814  0.35855  1.0000
  C   C724      1.0  0.07752  0.43238  0.24860  1.0000
  H   H1282     1.0  0.04560  0.46434  0.27767  1.0000
  H   H1283     1.0  0.00090  0.26171  0.40811  1.0000
  C   C725      1.0  0.00916  0.26536  0.43380  1.0000
  H   H1284     1.0  0.02940  0.26154  0.47858  1.0000
  H   H1285     1.0  0.01027  0.38399  0.27357  1.0000
  H   H1286     1.0  0.00650  0.42898  0.31703  1.0000
  C   C726      1.0  0.01183  0.37704  0.26866  1.0000
  H   H1287     1.0  0.00376  0.48357  0.26177  1.0000
  H   H1288     1.0  0.02499  0.36927  0.25513  1.0000
  H   H1289     1.0  0.09321  0.41934  0.26169  1.0000
  C   C727      1.0  0.04779  0.48104  0.34234  1.0000
  H   H1290     1.0  0.09488  0.40309  0.24553  1.0000
  H   H1291     1.0  0.03113  0.46818  0.40240  1.0000
  H   H1292     1.0  0.01581  0.46340  0.29742  1.0000
  H   H1293     1.0  0.01822  0.44110  0.30128  1.0000
  H   H1294     1.0  0.02440  0.29271  0.44476  1.0000
  C   C728      1.0  0.01133  0.42919  0.28562  1.0000
  N   N40       1.0  0.02073  0.27415  0.48978  1.0000
  Fe  Fe81      1.0  0.00542  0.43131  0.37745  1.0000
  H   H1295     1.0  0.02222  0.47575  0.36893  1.0000
  H   H1296     1.0  0.05534  0.34623  0.45194  1.0000
  H   H1297     1.0  0.02195  0.42306  0.31657  1.0000
  C   C729      1.0  0.03032  0.48597  0.39250  1.0000
  H   H1298     1.0  0.07875  0.30242  0.47287  1.0000
  C   C730      1.0  0.06129  0.33872  0.46837  1.0000
  C   C731      1.0  0.02620  0.28269  0.47941  1.0000
  H   H1299     1.0  0.00270  0.32648  0.40475  1.0000
  S   S163      1.0  0.02785  0.35797  0.45480  1.0000
  C   C732      1.0  0.02430  0.47867  0.37555  1.0000
  H   H1300     1.0  0.01709  0.41134  0.41959  1.0000
  C   C733      1.0  0.99701  0.47161  0.28355  1.0000
  H   H1301     1.0  0.01726  0.42066  0.25553  1.0000
  S   S164      1.0  0.04740  0.32910  0.44515  1.0000
  H   H1302     1.0  0.10408  0.39445  0.26288  1.0000
  C   C734      1.0  0.06467  0.25284  0.47790  1.0000
  S   S165      1.0  0.08007  0.25100  0.43950  1.0000
  H   H1303     1.0  0.04466  0.40699  0.37126  1.0000
  H   H1304     1.0  0.05798  0.36849  0.37961  1.0000
  H   H1305     1.0  0.02720  0.38878  0.35797  1.0000
  C   C735      1.0  0.02307  0.41323  0.26037  1.0000
  C   C736      1.0  0.01698  0.44201  0.31041  1.0000
  H   H1306     1.0  0.04673  0.38014  0.36018  1.0000
  S   S166      1.0  0.02438  0.43291  0.27658  1.0000
  H   H1307     1.0  0.00012  0.30766  0.47398  1.0000
  H   H1308     1.0  0.02132  0.38103  0.37241  1.0000
  H   H1309     1.0  0.05330  0.35675  0.46075  1.0000
  C   C737      1.0  0.01435  0.39472  0.41919  1.0000
  C   C738      1.0  0.02528  0.49039  0.37361  1.0000
  C   C739      1.0  0.05224  0.30152  0.43054  1.0000
  H   H1310     1.0  0.04496  0.41686  0.38729  1.0000
  H   H1311     1.0  0.06791  0.44687  0.31542  1.0000
  N   N41       1.0  0.03016  0.45688  0.30652  1.0000
  H   H1312     1.0  0.01882  0.47227  0.24954  1.0000
  H   H1313     1.0  0.06639  0.44275  0.30291  1.0000
  C   C740      1.0  0.11194  0.24567  0.47303  1.0000
  H   H1314     1.0  0.03557  0.44664  0.28821  1.0000
  S   S167      1.0  0.04861  0.27053  0.43809  1.0000
  C   C741      1.0  0.09438  0.39680  0.26391  1.0000
  H   H1315     1.0  0.04948  0.24888  0.47547  1.0000
  C   C742      1.0  0.04805  0.30683  0.42027  1.0000
  S   S168      1.0  0.05408  0.24513  0.43054  1.0000
  Fe  Fe82      1.0  0.03832  0.25920  0.43550  1.0000
  H   H1316     1.0  0.04769  0.45076  0.29648  1.0000
  C   C743      1.0  0.04895  0.36149  0.39692  1.0000
  C   C744      1.0  0.00973  0.29459  0.43691  1.0000
  H   H1317     1.0  0.03259  0.38010  0.39043  1.0000
  H   H1318     1.0  0.03852  0.41099  0.40235  1.0000
  H   H1319     1.0  0.04836  0.49136  0.32399  1.0000
  H   H1320     1.0  0.02649  0.47169  0.29231  1.0000
  H   H1321     1.0  0.05188  0.37843  0.25260  1.0000
  C   C745      1.0  0.06739  0.38435  0.34756  1.0000
  H   H1322     1.0  0.03196  0.41511  0.25798  1.0000
  C   C746      1.0  0.00092  0.41715  0.30262  1.0000
  H   H1323     1.0  0.01253  0.31476  0.39292  1.0000
  H   H1324     1.0  0.10498  0.41487  0.25012  1.0000
  C   C747      1.0  0.06092  0.38821  0.35911  1.0000
  C   C748      1.0  0.02472  0.46468  0.31530  1.0000
  H   H1325     1.0  0.05477  0.37758  0.39017  1.0000
  C   C749      1.0  0.02543  0.46246  0.29554  1.0000
  H   H1326     1.0  0.00516  0.31352  0.43513  1.0000
  C   C750      1.0  0.01423  0.30274  0.41007  1.0000
  H   H1327     1.0  0.04683  0.33152  0.46972  1.0000
  C   C751      1.0  0.02813  0.44464  0.31205  1.0000
  H   H1328     1.0  0.00321  0.41269  0.33513  1.0000
  H   H1329     1.0  0.01227  0.25369  0.48820  1.0000
  H   H1330     1.0  0.02702  0.47337  0.31153  1.0000
  C   C752      1.0  0.06322  0.47472  0.35358  1.0000
  H   H1331     1.0  0.04281  0.34344  0.47691  1.0000
  H   H1332     1.0  0.07182  0.47587  0.35405  1.0000
  H   H1333     1.0  0.00109  0.40992  0.31021  1.0000
  C   C753      1.0  0.03285  0.48445  0.33014  1.0000
  H   H1334     1.0  0.04128  0.28464  0.48482  1.0000
  C   C754      1.0  0.05510  0.47376  0.36606  1.0000
  C   C755      1.0  0.06141  0.46488  0.37522  1.0000
  H   H1335     1.0  0.01000  0.27129  0.47422  1.0000
  H   H1336     1.0  0.12006  0.48704  0.24723  1.0000
  H   H1337     1.0  0.01944  0.41267  0.26994  1.0000
  H   H1338     1.0  0.00614  0.39256  0.36078  1.0000
  H   H1339     1.0  0.05006  0.47191  0.34094  1.0000
  H   H1340     1.0  0.06522  0.46588  0.35158  1.0000
  H   H1341     1.0  0.00407  0.30351  0.39753  1.0000
  H   H1342     1.0  0.02158  0.29193  0.47998  1.0000
  H   H1343     1.0  0.06778  0.35099  0.45267  1.0000
  H   H1344     1.0  0.01316  0.36836  0.27487  1.0000
  C   C756      1.0  0.07441  0.25139  0.45436  1.0000
  H   H1345     1.0  0.00643  0.47002  0.31271  1.0000
  H   H1346     1.0  0.07225  0.46535  0.33322  1.0000
  H   H1347     1.0  0.03685  0.36100  0.27015  1.0000
  H   H1348     1.0  0.05549  0.36622  0.26886  1.0000
  H   H1349     1.0  0.07300  0.42607  0.24768  1.0000
  Fe  Fe83      1.0  0.07672  0.48602  0.27179  1.0000
  H   H1350     1.0  0.13606  0.47049  0.25248  1.0000
  H   H1351     1.0  0.04734  0.47059  0.36630  1.0000
  H   H1352     1.0  0.06914  0.46773  0.37570  1.0000
  H   H1353     1.0  0.05527  0.46420  0.38400  1.0000
  H   H1354     1.0  0.06433  0.45604  0.37308  1.0000
  H   H1355     1.0  0.01488  0.28779  0.43184  1.0000
  C   C757      1.0  0.01152  0.41978  0.29538  1.0000
  H   H1356     1.0  0.06572  0.45798  0.30234  1.0000
  H   H1357     1.0  0.05462  0.44470  0.25468  1.0000
  C   C758      1.0  0.01502  0.29210  0.44759  1.0000
  H   H1358     1.0  0.07530  0.43218  0.25821  1.0000
  H   H1359     1.0  0.02758  0.39089  0.27333  1.0000
  C   C759      1.0  0.04440  0.28944  0.46607  1.0000
  C   C760      1.0  0.07859  0.30184  0.48220  1.0000
  H   H1360     1.0  0.01364  0.29342  0.41375  1.0000
  H   H1361     1.0  0.00470  0.28686  0.47310  1.0000
  C   C761      1.0  0.02356  0.40179  0.25715  1.0000
  C   C762      1.0  0.05824  0.25029  0.47142  1.0000
  H   H1362     1.0  0.00851  0.42247  0.40236  1.0000
  C   C763      1.0  0.03617  0.36985  0.27163  1.0000
  C   C764      1.0  0.00967  0.26161  0.44566  1.0000
  Fe  Fe84      1.0  0.00577  0.34976  0.44264  1.0000
  H   H1363     1.0  0.05210  0.48228  0.36884  1.0000
  C   C765      1.0  0.03872  0.46213  0.27486  1.0000
  Fe  Fe85      1.0  0.05419  0.25554  0.41212  1.0000
  C   C766      1.0  0.04465  0.31910  0.41717  1.0000
  C   C767      1.0  0.04391  0.40861  0.39393  1.0000
  H   H1364     1.0  0.00195  0.39079  0.39911  1.0000
  H   H1365     1.0  0.03751  0.37259  0.37881  1.0000
  H   H1366     1.0  0.01463  0.28304  0.45272  1.0000
  H   H1367     1.0  0.05406  0.40973  0.25223  1.0000
  H   H1368     1.0  0.02892  0.40696  0.38924  1.0000
  H   H1369     1.0  0.03342  0.47027  0.27033  1.0000
  H   H1370     1.0  0.04450  0.27256  0.47766  1.0000
  C   C768      1.0  0.06306  0.24966  0.45965  1.0000
  H   H1371     1.0  0.04086  0.36387  0.29427  1.0000
  S   S169      1.0  0.00396  0.34904  0.48426  1.0000
  C   C769      1.0  0.05926  0.34879  0.45780  1.0000
  Fe  Fe86      1.0  0.02332  0.43962  0.35610  1.0000
  C   C770      1.0  0.00450  0.40738  0.39969  1.0000
  S   S170      1.0  0.03764  0.26885  0.41692  1.0000
  Fe  Fe87      1.0  0.04942  0.27897  0.41903  1.0000
  C   C771      1.0  0.01024  0.30716  0.42940  1.0000
  N   N42       1.0  0.03343  0.37932  0.26104  1.0000
  H   H1372     1.0  0.05393  0.28861  0.46519  1.0000
  H   H1373     1.0  0.02815  0.49101  0.32362  1.0000
  C   C772      1.0  0.03156  0.39119  0.26381  1.0000
  H   H1374     1.0  0.01006  0.34555  0.40965  1.0000
  N   N43       1.0  0.00593  0.31049  0.41814  1.0000
  N   N44       1.0  0.05003  0.32675  0.48734  1.0000
  S   S171      1.0  0.01455  0.33724  0.45656  1.0000
  S   S172      1.0  0.00473  0.43832  0.35836  1.0000
  C   C773      1.0  0.01010  0.38892  0.41337  1.0000
  H   H1375     1.0  0.02349  0.30276  0.40951  1.0000
  H   H1376     1.0  0.00903  0.44902  0.31221  1.0000
  H   H1377     1.0  0.05664  0.36057  0.28950  1.0000
  H   H1378     1.0  0.02839  0.46092  0.32331  1.0000
  C   C774      1.0  0.02897  0.45037  0.24898  1.0000
  S   S173      1.0  0.02008  0.38727  0.43176  1.0000
  H   H1379     1.0  0.08107  0.25652  0.47761  1.0000
  H   H1380     1.0  0.08994  0.47264  0.32121  1.0000
  H   H1381     1.0  0.08918  0.25356  0.39978  1.0000
  H   H1382     1.0  0.00039  0.44280  0.27535  1.0000
  H   H1383     1.0  0.99866  0.27591  0.42136  1.0000
  H   H1384     1.0  0.05790  0.31314  0.47733  1.0000
  H   H1385     1.0  0.00904  0.48458  0.32216  1.0000
  H   H1386     1.0  0.08114  0.40834  0.25512  1.0000
  H   H1387     1.0  0.99984  0.26112  0.46350  1.0000
  C   C775      1.0  0.09082  0.40656  0.25365  1.0000
  H   H1388     1.0  0.03982  0.29883  0.46569  1.0000
  H   H1389     1.0  0.03691  0.48658  0.27519  1.0000
  H   H1390     1.0  0.01284  0.43098  0.32786  1.0000
  H   H1391     1.0  0.06384  0.47434  0.32262  1.0000
  H   H1392     1.0  0.03793  0.31364  0.48141  1.0000
  H   H1393     1.0  0.10506  0.25153  0.46835  1.0000
  H   H1394     1.0  0.01681  0.31355  0.48753  1.0000
  H   H1395     1.0  0.03102  0.44069  0.24984  1.0000
  C   C776      1.0  0.04961  0.33523  0.47562  1.0000
  H   H1396     1.0  0.03142  0.45224  0.25628  1.0000
  H   H1397     1.0  0.12020  0.24886  0.46916  1.0000
  H   H1398     1.0  0.11219  0.42954  0.25125  1.0000
  H   H1399     1.0  0.00128  0.32150  0.47593  1.0000
  C   C777      1.0  0.00678  0.47611  0.32738  1.0000
  C   C778      1.0  0.06793  0.48447  0.33284  1.0000
  C   C779      1.0  0.01305  0.46905  0.24605  1.0000
  H   H1400     1.0  0.99943  0.32870  0.41920  1.0000
  C   C780      1.0  0.08098  0.25372  0.46087  1.0000
  C   C781      1.0  0.05810  0.31498  0.48576  1.0000
  C   C782      1.0  0.99925  0.46755  0.27212  1.0000
  H   H1401     1.0  0.00646  0.49009  0.36166  1.0000
  Fe  Fe88      1.0  0.99995  0.45608  0.36277  1.0000
  C   C783      1.0  0.09592  0.43828  0.24508  1.0000
  H   H1402     1.0  0.00020  0.48240  0.37997  1.0000
  H   H1403     1.0  0.07341  0.45157  0.24610  1.0000
  H   H1404     1.0  0.10950  0.45154  0.24785  1.0000
  C   C784      1.0  0.03178  0.32079  0.48558  1.0000
  C   C785      1.0  0.05974  0.40556  0.24525  1.0000
  C   C786      1.0  0.05836  0.44649  0.24506  1.0000
  C   C787      1.0  0.00767  0.27735  0.49051  1.0000
  C   C788      1.0  0.00078  0.37846  0.26429  1.0000
  N   N45       1.0  0.00039  0.47537  0.24964  1.0000
  H   H1405     1.0  0.00072  0.39417  0.29188  1.0000
  H   H1406     1.0  0.00214  0.37177  0.25911  1.0000
  C   C789      1.0  0.09495  0.24793  0.40581  1.0000
  H   H1407     1.0  0.07501  0.29414  0.48781  1.0000
  N   N46       1.0  0.09066  0.42871  0.24435  1.0000
  H   H1408     1.0  0.99946  0.49129  0.34454  1.0000
  H   H1409     1.0  0.99727  0.36422  0.41344  1.0000
  H   H1410     1.0  0.99706  0.47764  0.33043  1.0000
  C   C790      1.0  0.02884  0.49300  0.27724  1.0000
  H   H1411     1.0  0.99774  0.46382  0.29094  1.0000
  C   C791      1.0  0.99794  0.47809  0.26161  1.0000
  C   C792      1.0  0.10950  0.43544  0.24318  1.0000
  H   H1412     1.0  0.99647  0.24733  0.42689  1.0000
  H   H1413     1.0  0.00791  0.24676  0.40690  1.0000
  H   H1414     1.0  0.03450  0.25837  0.49157  1.0000
  H   H1415     1.0  0.10915  0.24620  0.48244  1.0000
  H   H1416     1.0  0.10398  0.24522  0.40058  1.0000
  C   C793      1.0  0.13534  0.47356  0.24314  1.0000
  C   C794      1.0  0.07167  0.44487  0.24258  1.0000
  S   S174      1.0  0.04008  0.34360  0.54808  1.0000
  H   H1417     1.0  0.01367  0.25286  0.50264  1.0000
  Fe  Fe89      1.0  0.03924  0.32458  0.55295  1.0000
  S   S175      1.0  0.05572  0.31062  0.55507  1.0000
  Fe  Fe90      1.0  0.04319  0.39595  0.60353  1.0000
  S   S176      1.0  0.02717  0.41037  0.60702  1.0000
  S   S177      1.0  0.04819  0.38433  0.59010  1.0000
  Fe  Fe91      1.0  0.05349  0.40005  0.62223  1.0000
  S   S178      1.0  0.03811  0.41446  0.62745  1.0000
  S   S179      1.0  0.06870  0.39195  0.63121  1.0000
  Fe  Fe92      1.0  0.02729  0.40288  0.62616  1.0000
  S   S180      1.0  0.01008  0.39960  0.63801  1.0000
  Fe  Fe93      1.0  0.03939  0.42080  0.60797  1.0000
  S   S181      1.0  0.03811  0.43984  0.59819  1.0000
  S   S182      1.0  0.04251  0.38782  0.62266  1.0000
  S   S183      1.0  0.05555  0.40701  0.60281  1.0000
  Fe  Fe94      1.0  0.10158  0.42165  0.65455  1.0000
  S   S184      1.0  0.08308  0.42487  0.66494  1.0000
  S   S185      1.0  0.10641  0.41447  0.63818  1.0000
  Fe  Fe95      1.0  0.08633  0.44173  0.66595  1.0000
  S   S186      1.0  0.07246  0.45841  0.66411  1.0000
  S   S187      1.0  0.10428  0.43927  0.65415  1.0000
  Fe  Fe96      1.0  0.09266  0.24453  0.51115  1.0000
  C   C795      1.0  0.09336  0.46660  0.70688  1.0000
  H   H1418     1.0  0.00787  0.35633  0.61510  1.0000
  H   H1419     1.0  0.02768  0.35677  0.66145  1.0000
  S   S188      1.0  0.03742  0.48020  0.62212  1.0000
  H   H1420     1.0  0.04543  0.48502  0.65691  1.0000
  H   H1421     1.0  0.01810  0.40399  0.52069  1.0000
  H   H1422     1.0  0.05456  0.31650  0.50933  1.0000
  H   H1423     1.0  0.05397  0.34290  0.60925  1.0000
  H   H1424     1.0  0.09411  0.47057  0.69739  1.0000
  Fe  Fe97      1.0  0.99700  0.24716  0.54618  1.0000
  C   C796      1.0  0.12008  0.46461  0.68727  1.0000
  H   H1425     1.0  0.12914  0.45853  0.67116  1.0000
  H   H1426     1.0  0.00373  0.28603  0.49299  1.0000
  C   C797      1.0  0.00424  0.30120  0.56843  1.0000
  C   C798      1.0  0.02740  0.41698  0.51919  1.0000
  S   S189      1.0  0.99704  0.38988  0.69361  1.0000
  H   H1427     1.0  0.08625  0.47257  0.71186  1.0000
  H   H1428     1.0  0.03464  0.45186  0.69192  1.0000
  H   H1429     1.0  0.01448  0.40422  0.57201  1.0000
  H   H1430     1.0  0.00861  0.37582  0.60852  1.0000
  H   H1431     1.0  0.03335  0.36471  0.49228  1.0000
  H   H1432     1.0  0.06842  0.47978  0.70382  1.0000
  C   C799      1.0  0.03530  0.25594  0.57636  1.0000
  C   C800      1.0  0.02964  0.43572  0.72818  1.0000
  H   H1433     1.0  0.02011  0.28540  0.50107  1.0000
  H   H1434     1.0  0.01641  0.47399  0.72086  1.0000
  H   H1435     1.0  0.05870  0.44510  0.62559  1.0000
  H   H1436     1.0  0.00109  0.47153  0.65147  1.0000
  Fe  Fe98      1.0  0.02883  0.34537  0.53562  1.0000
  S   S190      1.0  0.01771  0.35919  0.57388  1.0000
  S   S191      1.0  0.02316  0.32685  0.56765  1.0000
  Fe  Fe99      1.0  0.06984  0.25549  0.50292  1.0000
  C   C801      1.0  0.10500  0.46500  0.71061  1.0000
  C   C802      1.0  0.05875  0.33009  0.51458  1.0000
  H   H1437     1.0  0.01564  0.28090  0.52349  1.0000
  H   H1438     1.0  0.09580  0.43547  0.62056  1.0000
  H   H1439     1.0  0.07007  0.47925  0.57969  1.0000
  C   C803      1.0  0.07846  0.44027  0.60845  1.0000
  H   H1440     1.0  0.01022  0.39474  0.54749  1.0000
  H   H1441     1.0  0.01988  0.49133  0.73325  1.0000
  H   H1442     1.0  0.05325  0.45665  0.65263  1.0000
  S   S192      1.0  0.00079  0.41804  0.70078  1.0000
  C   C804      1.0  0.00970  0.38277  0.53347  1.0000
  H   H1443     1.0  0.02335  0.30855  0.50016  1.0000
  S   S193      1.0  0.08727  0.26056  0.49754  1.0000
  H   H1444     1.0  0.02972  0.27035  0.52171  1.0000
  S   S194      1.0  0.03274  0.35595  0.51700  1.0000
  C   C805      1.0  0.01610  0.34748  0.51259  1.0000
  C   C806      1.0  0.07614  0.46839  0.66961  1.0000
  C   C807      1.0  0.06774  0.47843  0.67214  1.0000
  H   H1445     1.0  0.07571  0.26370  0.56565  1.0000
  C   C808      1.0  0.08230  0.48528  0.67699  1.0000
  C   C809      1.0  0.09071  0.47524  0.67438  1.0000
  C   C810      1.0  0.08761  0.46672  0.67085  1.0000
  H   H1446     1.0  0.05895  0.47978  0.67096  1.0000
  H   H1447     1.0  0.00651  0.49223  0.72904  1.0000
  H   H1448     1.0  0.09968  0.47409  0.67495  1.0000
  H   H1449     1.0  0.09423  0.45907  0.66871  1.0000
  C   C811      1.0  0.07537  0.26633  0.55621  1.0000
  C   C812      1.0  0.03895  0.35312  0.61955  1.0000
  C   C813      1.0  0.99920  0.44189  0.71940  1.0000
  C   C814      1.0  0.03679  0.45114  0.60530  1.0000
  C   C815      1.0  0.03652  0.44886  0.61731  1.0000
  C   C816      1.0  0.03616  0.45798  0.62250  1.0000
  C   C817      1.0  0.03613  0.46942  0.61573  1.0000
  C   C818      1.0  0.03601  0.47181  0.60382  1.0000
  C   C819      1.0  0.03637  0.46268  0.59863  1.0000
  H   H1450     1.0  0.03677  0.44004  0.62254  1.0000
  H   H1451     1.0  0.03617  0.45612  0.63174  1.0000
  H   H1452     1.0  0.03600  0.48059  0.59853  1.0000
  H   H1453     1.0  0.03655  0.46450  0.58935  1.0000
  H   H1454     1.0  0.01436  0.34339  0.52185  1.0000
  C   C820      1.0  0.07895  0.39973  0.63112  1.0000
  C   C821      1.0  0.07540  0.41021  0.63516  1.0000
  C   C822      1.0  0.08374  0.41463  0.63771  1.0000
  C   C823      1.0  0.09570  0.40908  0.63538  1.0000
  C   C824      1.0  0.09927  0.39906  0.63063  1.0000
  C   C825      1.0  0.09091  0.39422  0.62884  1.0000
  H   H1455     1.0  0.06617  0.41447  0.63700  1.0000
  H   H1456     1.0  0.08098  0.42215  0.64168  1.0000
  H   H1457     1.0  0.10849  0.39472  0.62880  1.0000
  H   H1458     1.0  0.09372  0.38605  0.62585  1.0000
  C   C826      1.0  0.07986  0.37651  0.71901  1.0000
  C   C827      1.0  0.11840  0.43230  0.69742  1.0000
  C   C828      1.0  0.05176  0.32616  0.50828  1.0000
  C   C829      1.0  0.01147  0.40061  0.56622  1.0000
  C   C830      1.0  0.06304  0.30436  0.54277  1.0000
  H   H1459     1.0  0.10039  0.47419  0.73696  1.0000
  H   H1460     1.0  0.05642  0.46900  0.73921  1.0000
  H   H1461     1.0  0.05681  0.33983  0.51300  1.0000
  H   H1462     1.0  0.99862  0.47345  0.63130  1.0000
  H   H1463     1.0  0.04413  0.49065  0.68338  1.0000
  C   C831      1.0  0.10506  0.40509  0.72328  1.0000
  H   H1464     1.0  0.06139  0.43563  0.61143  1.0000
  H   H1465     1.0  0.04165  0.29858  0.57820  1.0000
  H   H1466     1.0  0.01971  0.29528  0.53086  1.0000
  C   C832      1.0  0.02646  0.36594  0.57831  1.0000
  C   C833      1.0  0.03875  0.36342  0.57493  1.0000
  C   C834      1.0  0.04524  0.36922  0.57851  1.0000
  C   C835      1.0  0.03955  0.37753  0.58558  1.0000
  C   C836      1.0  0.02727  0.38012  0.58887  1.0000
  C   C837      1.0  0.02079  0.37429  0.58531  1.0000
  H   H1467     1.0  0.04326  0.35695  0.56962  1.0000
  H   H1468     1.0  0.05474  0.36715  0.57591  1.0000
  H   H1469     1.0  0.02279  0.38663  0.59412  1.0000
  C   C838      1.0  0.02462  0.35420  0.50794  1.0000
  H   H1470     1.0  0.06247  0.44236  0.65146  1.0000
  H   H1471     1.0  0.02602  0.29934  0.58133  1.0000
  H   H1472     1.0  0.02794  0.37228  0.63613  1.0000
  H   H1473     1.0  0.01033  0.42171  0.66264  1.0000
  H   H1474     1.0  0.01455  0.45721  0.73569  1.0000
  H   H1475     1.0  0.07083  0.45758  0.63621  1.0000
  H   H1476     1.0  0.05056  0.35833  0.60266  1.0000
  H   H1477     1.0  0.03462  0.45134  0.72760  1.0000
  H   H1478     1.0  0.00927  0.30533  0.57146  1.0000
  H   H1479     1.0  0.02330  0.40020  0.65469  1.0000
  Fe  Fe100     1.0  0.01967  0.41474  0.70114  1.0000
  C   C839      1.0  0.09298  0.44386  0.62355  1.0000
  C   C840      1.0  0.11980  0.43166  0.70872  1.0000
  S   S195      1.0  0.03050  0.42737  0.68961  1.0000
  C   C841      1.0  0.03619  0.43412  0.71585  1.0000
  C   C842      1.0  0.07384  0.46596  0.59515  1.0000
  C   C843      1.0  0.07499  0.29349  0.52372  1.0000
  H   H1480     1.0  0.02065  0.44097  0.72768  1.0000
  H   H1481     1.0  0.05721  0.46353  0.63139  1.0000
  H   H1482     1.0  0.06033  0.48224  0.59333  1.0000
  Fe  Fe101     1.0  0.08009  0.26958  0.51280  1.0000
  C   C844      1.0  0.00381  0.46176  0.65309  1.0000
  H   H1483     1.0  0.08295  0.46177  0.61882  1.0000
  H   H1484     1.0  0.03157  0.29989  0.53297  1.0000
  H   H1485     1.0  0.07609  0.41888  0.60490  1.0000
  H   H1486     1.0  0.06197  0.28193  0.55822  1.0000
  H   H1487     1.0  0.03766  0.25900  0.58296  1.0000
  C   C845      1.0  0.04667  0.35068  0.60775  1.0000
  H   H1488     1.0  0.00660  0.39240  0.53108  1.0000
  H   H1489     1.0  0.02526  0.36349  0.61029  1.0000
  S   S196      1.0  0.03038  0.37946  0.73223  1.0000
  H   H1490     1.0  0.01681  0.47856  0.65266  1.0000
  C   C846      1.0  0.06692  0.44665  0.62655  1.0000
  H   H1491     1.0  0.01519  0.40955  0.53387  1.0000
  C   C847      1.0  0.00716  0.39709  0.65343  1.0000
  H   H1492     1.0  0.07939  0.43429  0.71185  1.0000
  H   H1493     1.0  0.10997  0.43229  0.69618  1.0000
  C   C848      1.0  0.01215  0.35485  0.63221  1.0000
  C   C849      1.0  0.13080  0.46232  0.71055  1.0000
  C   C850      1.0  0.05283  0.42858  0.68840  1.0000
  H   H1494     1.0  0.04567  0.27687  0.58094  1.0000
  S   S197      1.0  0.05801  0.25429  0.49238  1.0000
  H   H1495     1.0  0.06099  0.39655  0.70600  1.0000
  H   H1496     1.0  0.01659  0.42015  0.67500  1.0000
  C   C851      1.0  0.12085  0.47351  0.71122  1.0000
  C   C852      1.0  0.01502  0.39791  0.65953  1.0000
  H   H1497     1.0  0.02180  0.28778  0.55119  1.0000
  C   C853      1.0  0.00109  0.46371  0.63264  1.0000
  S   S198      1.0  0.99958  0.39506  0.72293  1.0000
  H   H1498     1.0  0.02559  0.37264  0.65721  1.0000
  H   H1499     1.0  0.03429  0.41452  0.51148  1.0000
  C   C854      1.0  0.10227  0.48626  0.70721  1.0000
  C   C855      1.0  0.11592  0.47615  0.69195  1.0000
  H   H1500     1.0  0.02596  0.41945  0.66067  1.0000
  C   C856      1.0  0.06273  0.29731  0.52601  1.0000
  S   S199      1.0  0.01682  0.41240  0.72057  1.0000
  H   H1501     1.0  0.04884  0.44720  0.64640  1.0000
  H   H1502     1.0  0.07196  0.31238  0.49517  1.0000
  H   H1503     1.0  0.09635  0.44886  0.70436  1.0000
  S   S200      1.0  0.01192  0.34938  0.54878  1.0000
  H   H1504     1.0  0.08016  0.30125  0.54635  1.0000
  C   C857      1.0  0.04073  0.27840  0.54731  1.0000
  H   H1505     1.0  0.00645  0.33364  0.63408  1.0000
  C   C858      1.0  0.00975  0.34606  0.50526  1.0000
  C   C859      1.0  0.99763  0.45799  0.64566  1.0000
  Fe  Fe102     1.0  0.01334  0.32984  0.55355  1.0000
  S   S201      1.0  0.08262  0.28757  0.51130  1.0000
  H   H1506     1.0  0.04066  0.40528  0.70351  1.0000
  H   H1507     1.0  0.04462  0.35500  0.62422  1.0000
  H   H1508     1.0  0.03594  0.34503  0.62479  1.0000
  H   H1509     1.0  0.08811  0.44221  0.63287  1.0000
  H   H1510     1.0  0.09344  0.38236  0.73041  1.0000
  C   C860      1.0  0.04960  0.48524  0.71060  1.0000
  C   C861      1.0  0.00679  0.37755  0.52484  1.0000
  C   C862      1.0  0.04719  0.41047  0.69976  1.0000
  H   H1511     1.0  0.08377  0.38022  0.70973  1.0000
  H   H1512     1.0  0.01347  0.45982  0.64933  1.0000
  H   H1513     1.0  0.02004  0.34466  0.61831  1.0000
  H   H1514     1.0  0.03763  0.31834  0.50148  1.0000
  C   C863      1.0  0.08452  0.48366  0.63908  1.0000
  C   C864      1.0  0.09781  0.48244  0.63349  1.0000
  H   H1515     1.0  0.02099  0.25933  0.51303  1.0000
  C   C865      1.0  0.05861  0.48482  0.64041  1.0000
  H   H1516     1.0  0.00639  0.47519  0.67939  1.0000
  Fe  Fe103     1.0  0.99796  0.41445  0.72035  1.0000
  C   C866      1.0  0.10516  0.47234  0.64093  1.0000
  C   C867      1.0  0.02301  0.27592  0.50069  1.0000
  H   H1517     1.0  0.04231  0.32839  0.51271  1.0000
  H   H1518     1.0  0.00310  0.27115  0.49766  1.0000
  H   H1519     1.0  0.08121  0.45665  0.70679  1.0000
  N   N47       1.0  0.08455  0.40017  0.73254  1.0000
  H   H1520     1.0  0.00882  0.36782  0.52740  1.0000
  Fe  Fe104     1.0  0.06946  0.24955  0.52875  1.0000
  H   H1521     1.0  0.99717  0.44023  0.66621  1.0000
  H   H1522     1.0  0.08322  0.48245  0.64871  1.0000
  H   H1523     1.0  0.08227  0.47583  0.63800  1.0000
  H   H1524     1.0  0.00760  0.27065  0.51400  1.0000
  H   H1525     1.0  0.06948  0.44148  0.72325  1.0000
  H   H1526     1.0  0.12321  0.40684  0.71807  1.0000
  H   H1527     1.0  0.01187  0.47987  0.73983  1.0000
  H   H1528     1.0  0.06358  0.47598  0.64398  1.0000
  H   H1529     1.0  0.08231  0.27132  0.55135  1.0000
  Fe  Fe105     1.0  0.09114  0.41732  0.68072  1.0000
  S   S202      1.0  0.13326  0.42994  0.72440  1.0000
  H   H1530     1.0  0.04562  0.43844  0.73070  1.0000
  H   H1531     1.0  0.01506  0.38373  0.62313  1.0000
  H   H1532     1.0  0.05563  0.25944  0.55725  1.0000
  H   H1533     1.0  0.10455  0.47451  0.64942  1.0000
  H   H1534     1.0  0.10207  0.46414  0.64276  1.0000
  H   H1535     1.0  0.11455  0.47080  0.63621  1.0000
  H   H1536     1.0  0.00329  0.34073  0.50895  1.0000
  H   H1537     1.0  0.02868  0.42698  0.73368  1.0000
  H   H1538     1.0  0.08594  0.44160  0.60079  1.0000
  H   H1539     1.0  0.07077  0.41036  0.72334  1.0000
  S   S203      1.0  0.02359  0.39549  0.70162  1.0000
  H   H1540     1.0  0.01739  0.25664  0.58676  1.0000
  N   N48       1.0  0.06073  0.38669  0.67092  1.0000
  C   C868      1.0  0.07192  0.38681  0.67395  1.0000
  C   C869      1.0  0.05181  0.38388  0.68219  1.0000
  C   C870      1.0  0.06361  0.37757  0.66365  1.0000
  C   C871      1.0  0.05567  0.39843  0.66384  1.0000
  C   C872      1.0  0.05258  0.40900  0.66976  1.0000
  C   C873      1.0  0.08095  0.39257  0.66378  1.0000
  C   C874      1.0  0.05302  0.37545  0.66041  1.0000
  C   C875      1.0  0.05498  0.37137  0.68987  1.0000
  C   C876      1.0  0.04585  0.36965  0.70144  1.0000
  C   C877      1.0  0.05147  0.42067  0.66076  1.0000
  C   C878      1.0  0.09241  0.39096  0.66747  1.0000
  C   C879      1.0  0.05697  0.36551  0.65377  1.0000
  H   H1541     1.0  0.07662  0.37769  0.67726  1.0000
  H   H1542     1.0  0.06997  0.39129  0.68137  1.0000
  H   H1543     1.0  0.05051  0.39022  0.68778  1.0000
  H   H1544     1.0  0.04298  0.38518  0.68040  1.0000
  H   H1545     1.0  0.06844  0.36898  0.66807  1.0000
  H   H1546     1.0  0.06984  0.38006  0.65519  1.0000
  H   H1547     1.0  0.06165  0.40028  0.65508  1.0000
  H   H1548     1.0  0.04732  0.39832  0.66188  1.0000
  H   H1549     1.0  0.05926  0.40865  0.67450  1.0000
  H   H1550     1.0  0.04402  0.40899  0.67620  1.0000
  H   H1551     1.0  0.08312  0.38870  0.65596  1.0000
  H   H1552     1.0  0.07740  0.40215  0.66117  1.0000
  H   H1553     1.0  0.04892  0.38341  0.65455  1.0000
  H   H1554     1.0  0.04619  0.37304  0.66833  1.0000
  H   H1555     1.0  0.05537  0.36454  0.68524  1.0000
  H   H1556     1.0  0.06361  0.36979  0.69211  1.0000
  H   H1557     1.0  0.04531  0.37607  0.70664  1.0000
  H   H1558     1.0  0.03705  0.37070  0.69975  1.0000
  H   H1559     1.0  0.04839  0.36067  0.70676  1.0000
  H   H1560     1.0  0.04768  0.42806  0.66539  1.0000
  H   H1561     1.0  0.06029  0.42168  0.65533  1.0000
  H   H1562     1.0  0.04571  0.42116  0.65494  1.0000
  H   H1563     1.0  0.09072  0.39498  0.67512  1.0000
  H   H1564     1.0  0.09665  0.38149  0.66977  1.0000
  H   H1565     1.0  0.09859  0.39536  0.66009  1.0000
  H   H1566     1.0  0.06365  0.36764  0.64556  1.0000
  H   H1567     1.0  0.06075  0.35711  0.65934  1.0000
  H   H1568     1.0  0.04931  0.36437  0.65130  1.0000
  S   S204      1.0  0.08202  0.40574  0.69630  1.0000
  H   H1569     1.0  0.06384  0.27679  0.54504  1.0000
  C   C880      1.0  0.03749  0.28464  0.56561  1.0000
  H   H1570     1.0  0.04148  0.34889  0.60251  1.0000
  N   N49       1.0  0.02761  0.38560  0.53952  1.0000
  C   C881      1.0  0.01841  0.38908  0.55004  1.0000
  C   C882      1.0  0.02302  0.37894  0.53357  1.0000
  C   C883      1.0  0.03807  0.37738  0.54405  1.0000
  C   C884      1.0  0.03173  0.39601  0.53085  1.0000
  C   C885      1.0  0.08716  0.39009  0.72650  1.0000
  C   C886      1.0  0.04827  0.37176  0.53482  1.0000
  H   H1571     1.0  0.02040  0.42429  0.51593  1.0000
  C   C887      1.0  0.00127  0.39281  0.67816  1.0000
  C   C888      1.0  0.01009  0.37662  0.62594  1.0000
  C   C889      1.0  0.05868  0.36447  0.54030  1.0000
  C   C890      1.0  0.11671  0.40426  0.72627  1.0000
  C   C891      1.0  0.02207  0.39559  0.55729  1.0000
  H   H1572     1.0  0.02817  0.37913  0.52435  1.0000
  H   H1573     1.0  0.02444  0.36943  0.53796  1.0000
  H   H1574     1.0  0.03518  0.37004  0.55118  1.0000
  H   H1575     1.0  0.04206  0.38199  0.54812  1.0000
  H   H1576     1.0  0.03725  0.39937  0.53450  1.0000
  H   H1577     1.0  0.03765  0.39331  0.52277  1.0000
  H   H1578     1.0  0.02858  0.38945  0.56225  1.0000
  S   S205      1.0  0.08686  0.25392  0.52608  1.0000
  H   H1579     1.0  0.05164  0.37852  0.52739  1.0000
  H   H1580     1.0  0.04532  0.36592  0.53121  1.0000
  H   H1581     1.0  0.07726  0.25834  0.55265  1.0000
  H   H1582     1.0  0.06834  0.32668  0.51151  1.0000
  C   C892      1.0  0.02867  0.29212  0.53268  1.0000
  H   H1583     1.0  0.04285  0.24899  0.57324  1.0000
  H   H1584     1.0  0.02319  0.43870  0.66572  1.0000
  H   H1585     1.0  0.04447  0.42726  0.71614  1.0000
  H   H1586     1.0  0.06260  0.37022  0.54302  1.0000
  H   H1587     1.0  0.05589  0.35771  0.54812  1.0000
  H   H1588     1.0  0.06553  0.35993  0.53378  1.0000
  Fe  Fe106     1.0  0.01885  0.39347  0.72126  1.0000
  H   H1589     1.0  0.05429  0.26391  0.57020  1.0000
  C   C893      1.0  0.01618  0.43708  0.66260  1.0000
  H   H1590     1.0  0.12335  0.48069  0.68893  1.0000
  H   H1591     1.0  0.04569  0.28541  0.54328  1.0000
  H   H1592     1.0  0.00791  0.37382  0.65020  1.0000
  H   H1593     1.0  0.01798  0.39659  0.67668  1.0000
  C   C894      1.0  0.03252  0.26600  0.56571  1.0000
  H   H1594     1.0  0.00524  0.40779  0.56165  1.0000
  H   H1595     1.0  0.09179  0.39256  0.71715  1.0000
  H   H1596     1.0  0.04751  0.46535  0.68797  1.0000
  H   H1597     1.0  0.05786  0.29607  0.52043  1.0000
  S   S206      1.0  0.10952  0.41242  0.67028  1.0000
  C   C895      1.0  0.08534  0.45346  0.61566  1.0000
  H   H1598     1.0  0.10965  0.44039  0.62844  1.0000
  C   C896      1.0  0.00255  0.45255  0.71415  1.0000
  C   C897      1.0  0.12669  0.46678  0.67440  1.0000
  H   H1599     1.0  0.12539  0.48092  0.70748  1.0000
  S   S207      1.0  0.02943  0.32617  0.53935  1.0000
  H   H1600     1.0  0.01569  0.38111  0.55617  1.0000
  H   H1601     1.0  0.11547  0.41025  0.73217  1.0000
  C   C898      1.0  0.08965  0.45500  0.70946  1.0000
  C   C899      1.0  0.13085  0.43129  0.71040  1.0000
  C   C900      1.0  0.07632  0.38578  0.72641  1.0000
  H   H1602     1.0  0.10187  0.41435  0.71891  1.0000
  H   H1603     1.0  0.03033  0.35670  0.64040  1.0000
  H   H1604     1.0  0.05077  0.43734  0.68311  1.0000
  H   H1605     1.0  0.09974  0.48042  0.62468  1.0000
  H   H1606     1.0  0.05628  0.32662  0.52420  1.0000
  H   H1607     1.0  0.02181  0.24739  0.57619  1.0000
  H   H1608     1.0  0.12725  0.45433  0.71354  1.0000
  C   C901      1.0  0.00374  0.28935  0.57334  1.0000
  C   C902      1.0  0.06411  0.42390  0.69051  1.0000
  H   H1609     1.0  0.07131  0.43804  0.63121  1.0000
  H   H1610     1.0  0.01681  0.26577  0.53116  1.0000
  H   H1611     1.0  0.14616  0.45293  0.71769  1.0000
  H   H1612     1.0  0.03000  0.27766  0.58404  1.0000
  H   H1613     1.0  0.00581  0.43417  0.72143  1.0000
  H   H1614     1.0  0.00287  0.43965  0.67824  1.0000
  H   H1615     1.0  0.00448  0.37963  0.54239  1.0000
  H   H1616     1.0  0.13489  0.46959  0.67349  1.0000
  C   C903      1.0  0.06750  0.46110  0.60788  1.0000
  C   C904      1.0  0.02007  0.27170  0.52282  1.0000
  N   N50       1.0  0.11116  0.47504  0.70506  1.0000
  C   C905      1.0  0.02349  0.36485  0.63858  1.0000
  C   C906      1.0  0.01457  0.48615  0.73156  1.0000
  H   H1617     1.0  0.02344  0.27123  0.56828  1.0000
  C   C907      1.0  0.07077  0.48680  0.67597  1.0000
  H   H1618     1.0  0.08631  0.36875  0.72257  1.0000
  H   H1619     1.0  0.02973  0.47382  0.72467  1.0000
  H   H1620     1.0  0.05883  0.47107  0.58699  1.0000
  C   C908      1.0  0.08126  0.29503  0.53100  1.0000
  N   N51       1.0  0.04104  0.27404  0.56017  1.0000
  H   H1621     1.0  0.01462  0.36608  0.66839  1.0000
  C   C909      1.0  0.02481  0.25028  0.58254  1.0000
  H   H1622     1.0  0.14628  0.43350  0.68198  1.0000
  C   C910      1.0  0.00295  0.37840  0.61666  1.0000
  H   H1623     1.0  0.03263  0.27337  0.50044  1.0000
  H   H1624     1.0  0.06722  0.42619  0.59413  1.0000
  C   C911      1.0  0.05867  0.40558  0.70139  1.0000
  H   H1625     1.0  0.09075  0.29213  0.52923  1.0000
  C   C912      1.0  0.06206  0.47964  0.71245  1.0000
  H   H1626     1.0  0.00332  0.37850  0.63388  1.0000
  H   H1627     1.0  0.00324  0.39690  0.60928  1.0000
  C   C913      1.0  0.12795  0.43299  0.68774  1.0000
  H   H1628     1.0  0.00842  0.28436  0.58015  1.0000
  H   H1629     1.0  0.12109  0.47361  0.66885  1.0000
  C   C914      1.0  0.06722  0.41223  0.69645  1.0000
  H   H1630     1.0  0.10693  0.39947  0.71689  1.0000
  H   H1631     1.0  0.03132  0.42015  0.52462  1.0000
  C   C915      1.0  0.06522  0.47521  0.58842  1.0000
  C   C916      1.0  0.01472  0.36555  0.65064  1.0000
  H   H1632     1.0  0.12594  0.45761  0.69233  1.0000
  S   S208      1.0  0.12661  0.43426  0.67336  1.0000
  H   H1633     1.0  0.13614  0.46276  0.70143  1.0000
  H   H1634     1.0  0.01434  0.32330  0.49720  1.0000
  C   C917      1.0  0.05650  0.45001  0.64707  1.0000
  N   N52       1.0  0.07456  0.45039  0.61463  1.0000
  H   H1635     1.0  0.04530  0.46915  0.71040  1.0000
  H   H1636     1.0  0.08188  0.42830  0.59124  1.0000
  S   S209      1.0  0.08037  0.46520  0.73928  1.0000
  C   C918      1.0  0.04440  0.42180  0.69285  1.0000
  H   H1637     1.0  0.11242  0.43116  0.71612  1.0000
  S   S210      1.0  0.06212  0.26605  0.51685  1.0000
  H   H1638     1.0  0.08199  0.43197  0.61435  1.0000
  H   H1639     1.0  0.14890  0.43172  0.70192  1.0000
  S   S211      1.0  0.99887  0.47598  0.70585  1.0000
  H   H1640     1.0  0.03479  0.28800  0.52547  1.0000
  C   C919      1.0  0.06887  0.43764  0.60406  1.0000
  C   C920      1.0  0.13888  0.43295  0.68942  1.0000
  H   H1641     1.0  0.10939  0.44923  0.61393  1.0000
  C   C921      1.0  0.06335  0.27408  0.55463  1.0000
  C   C922      1.0  0.06315  0.45532  0.63492  1.0000
  H   H1642     1.0  0.04324  0.29092  0.56080  1.0000
  H   H1643     1.0  0.04736  0.30588  0.53714  1.0000
  C   C923      1.0  0.07609  0.42274  0.72916  1.0000
  H   H1644     1.0  0.07051  0.42927  0.68713  1.0000
  H   H1645     1.0  0.09523  0.48814  0.70233  1.0000
  H   H1646     1.0  0.05912  0.45933  0.60761  1.0000
  Fe  Fe107     1.0  0.00429  0.39851  0.70316  1.0000
  H   H1647     1.0  0.03212  0.37181  0.61483  1.0000
  C   C924      1.0  0.02678  0.35947  0.49592  1.0000
  Fe  Fe108     1.0  0.02323  0.34622  0.56170  1.0000
  H   H1648     1.0  0.10185  0.45561  0.62665  1.0000
  H   H1649     1.0  0.08073  0.47021  0.59534  1.0000
  C   C925      1.0  0.02110  0.36520  0.65996  1.0000
  H   H1650     1.0  0.11080  0.45652  0.70884  1.0000
  H   H1651     1.0  0.02478  0.27594  0.54410  1.0000
  C   C926      1.0  0.07528  0.30025  0.54064  1.0000
  H   H1652     1.0  0.03427  0.29175  0.59249  1.0000
  N   N53       1.0  0.01843  0.36482  0.62855  1.0000
  H   H1653     1.0  0.07807  0.45895  0.59011  1.0000
  C   C927      1.0  0.14035  0.43196  0.70071  1.0000
  H   H1654     1.0  0.06542  0.44517  0.59738  1.0000
  Fe  Fe109     1.0  0.11056  0.43042  0.67085  1.0000
  H   H1655     1.0  0.00004  0.44833  0.64647  1.0000
  C   C928      1.0  0.03462  0.29369  0.58293  1.0000
  H   H1656     1.0  0.09414  0.40738  0.74039  1.0000
  H   H1657     1.0  0.10919  0.48194  0.68700  1.0000
  C   C929      1.0  0.07209  0.43335  0.71976  1.0000
  C   C930      1.0  0.05344  0.26734  0.56096  1.0000
  H   H1658     1.0  0.08842  0.45093  0.71899  1.0000
  H   H1659     1.0  0.10282  0.46366  0.72037  1.0000
  H   H1660     1.0  0.11243  0.46108  0.68781  1.0000
  H   H1661     1.0  0.03181  0.33319  0.49534  1.0000
  H   H1662     1.0  0.06475  0.46851  0.61247  1.0000
  H   H1663     1.0  0.02597  0.40301  0.55160  1.0000
  H   H1664     1.0  0.01659  0.34730  0.63828  1.0000
  H   H1665     1.0  0.13440  0.46040  0.72768  1.0000
  H   H1666     1.0  0.01188  0.38030  0.51577  1.0000
  H   H1667     1.0  0.11701  0.47370  0.72067  1.0000
  C   C931      1.0  0.02173  0.47958  0.72182  1.0000
  H   H1668     1.0  0.09765  0.48525  0.71665  1.0000
  C   C932      1.0  0.02828  0.28330  0.54448  1.0000
  C   C933      1.0  0.01731  0.26881  0.51258  1.0000
  H   H1669     1.0  0.01128  0.37634  0.58789  1.0000
  C   C934      1.0  0.00874  0.46023  0.67169  1.0000
  C   C935      1.0  0.00669  0.47370  0.67068  1.0000
  H   H1670     1.0  0.06448  0.43234  0.71711  1.0000
  H   H1671     1.0  0.07757  0.48672  0.62010  1.0000
  C   C936      1.0  0.05680  0.30293  0.53541  1.0000
  H   H1672     1.0  0.04885  0.45661  0.73240  1.0000
  C   C937      1.0  0.01652  0.47905  0.66172  1.0000
  H   H1673     1.0  0.03207  0.26135  0.55917  1.0000
  H   H1674     1.0  0.06272  0.47043  0.71754  1.0000
  H   H1675     1.0  0.04533  0.27124  0.54241  1.0000
  C   C938      1.0  0.01193  0.35126  0.49322  1.0000
  H   H1676     1.0  0.04367  0.48590  0.71933  1.0000
  C   C939      1.0  0.02843  0.36378  0.61788  1.0000
  C   C940      1.0  0.13918  0.46109  0.71834  1.0000
  H   H1677     1.0  0.03881  0.47628  0.67847  1.0000
  H   H1678     1.0  0.00764  0.45586  0.68120  1.0000
  H   H1679     1.0  0.01821  0.45684  0.66802  1.0000
  H   H1680     1.0  0.00308  0.35767  0.63742  1.0000
  H   H1681     1.0  0.06881  0.42258  0.73712  1.0000
  C   C941      1.0  0.01126  0.34956  0.62229  1.0000
  C   C942      1.0  0.01872  0.25240  0.49358  1.0000
  H   H1682     1.0  0.03831  0.44247  0.71018  1.0000
  H   H1683     1.0  0.01175  0.45282  0.71181  1.0000
  C   C943      1.0  0.04589  0.48592  0.64745  1.0000
  H   H1684     1.0  0.10029  0.39262  0.73933  1.0000
  C   C944      1.0  0.07911  0.41121  0.72473  1.0000
  H   H1685     1.0  0.09124  0.45528  0.60682  1.0000
  H   H1686     1.0  0.06964  0.39311  0.72273  1.0000
  C   C945      1.0  0.09588  0.40121  0.73451  1.0000
  H   H1687     1.0  0.01489  0.48841  0.66200  1.0000
  H   H1688     1.0  0.02520  0.47451  0.66386  1.0000
  C   C946      1.0  0.01201  0.39588  0.67194  1.0000
  H   H1689     1.0  0.01072  0.46089  0.62924  1.0000
  C   C947      1.0  0.02211  0.40649  0.52650  1.0000
  Fe  Fe110     1.0  0.11764  0.43396  0.73898  1.0000
  H   H1690     1.0  0.04823  0.34161  0.49477  1.0000
  H   H1691     1.0  0.08491  0.41254  0.71577  1.0000
  N   N54       1.0  0.03420  0.48351  0.70049  1.0000
  C   C948      1.0  0.04562  0.47791  0.70444  1.0000
  C   C949      1.0  0.03028  0.47438  0.69726  1.0000
  H   H1692     1.0  0.07206  0.38175  0.73543  1.0000
  C   C950      1.0  0.02465  0.48838  0.71003  1.0000
  H   H1693     1.0  0.01788  0.44005  0.65290  1.0000
  C   C951      1.0  0.03598  0.44219  0.73297  1.0000
  H   H1694     1.0  0.01026  0.35809  0.65380  1.0000
  C   C952      1.0  0.03844  0.46931  0.68662  1.0000
  C   C953      1.0  0.03384  0.45972  0.68466  1.0000
  C   C954      1.0  0.00378  0.44331  0.66862  1.0000
  H   H1695     1.0  0.04230  0.47886  0.64655  1.0000
  H   H1696     1.0  0.03052  0.43134  0.71194  1.0000
  H   H1697     1.0  0.05292  0.47605  0.69677  1.0000
  C   C955      1.0  0.10412  0.44757  0.62309  1.0000
  H   H1698     1.0  0.02927  0.46682  0.70486  1.0000
  H   H1699     1.0  0.02140  0.47801  0.69532  1.0000
  C   C956      1.0  0.05347  0.33239  0.49511  1.0000
  H   H1700     1.0  0.00679  0.39365  0.57179  1.0000
  H   H1701     1.0  0.02445  0.46287  0.68429  1.0000
  C   C957      1.0  0.09271  0.47961  0.74141  1.0000
  S   S212      1.0  0.09279  0.43453  0.68263  1.0000
  C   C958      1.0  0.03717  0.28221  0.57887  1.0000
  H   H1702     1.0  0.03899  0.45711  0.67628  1.0000
  H   H1703     1.0  0.02858  0.28977  0.56460  1.0000
  C   C959      1.0  0.01731  0.42380  0.66543  1.0000
  C   C960      1.0  0.07388  0.42708  0.59826  1.0000
  H   H1704     1.0  0.12039  0.39512  0.73058  1.0000
  H   H1705     1.0  0.14340  0.46871  0.71548  1.0000
  H   H1706     1.0  0.06448  0.48471  0.71739  1.0000
  N   N55       1.0  0.00115  0.45657  0.66610  1.0000
  H   H1707     1.0  0.05193  0.24553  0.52361  1.0000
  H   H1708     1.0  0.08809  0.49101  0.59936  1.0000
  H   H1709     1.0  0.07195  0.37358  0.71916  1.0000
  C   C961      1.0  0.00317  0.34092  0.62710  1.0000
  H   H1710     1.0  0.10085  0.49045  0.63265  1.0000
  H   H1711     1.0  0.05855  0.48533  0.63117  1.0000
  H   H1712     1.0  0.01619  0.49211  0.70713  1.0000
  H   H1713     1.0  0.99944  0.44529  0.74104  1.0000
  S   S213      1.0  0.99794  0.32278  0.55380  1.0000
  H   H1714     1.0  0.08379  0.42411  0.73129  1.0000
  H   H1715     1.0  0.00291  0.33711  0.61989  1.0000
  S   S214      1.0  0.09921  0.43405  0.73910  1.0000
  C   C962      1.0  0.99792  0.30780  0.55986  1.0000
  H   H1716     1.0  0.99726  0.38062  0.52488  1.0000
  C   C963      1.0  0.99722  0.28394  0.56942  1.0000
  H   H1717     1.0  0.99818  0.47878  0.66850  1.0000
  S   S215      1.0  0.99717  0.26890  0.57525  1.0000
  C   C964      1.0  0.03771  0.32493  0.49300  1.0000
  C   C965      1.0  0.02090  0.31626  0.49313  1.0000
  C   C966      1.0  0.99670  0.39130  0.61333  1.0000
  H   H1718     1.0  0.99610  0.37315  0.62027  1.0000
  C   C967      1.0  0.99651  0.39404  0.65972  1.0000
  H   H1719     1.0  0.99647  0.46101  0.62750  1.0000
  H   H1720     1.0  0.05490  0.30769  0.49273  1.0000
  H   H1721     1.0  0.99716  0.49291  0.64150  1.0000
  C   C968      1.0  0.04475  0.24318  0.53063  1.0000
  H   H1722     1.0  0.06273  0.33323  0.49191  1.0000
  S   S216      1.0  0.03603  0.43470  0.78434  1.0000
  H   H1723     1.0  0.03546  0.43164  0.76256  1.0000
  C   C969      1.0  0.00933  0.49181  0.83495  1.0000
  H   H1724     1.0  0.49420  0.24412  0.92683  1.0000
  H   H1725     1.0  0.99979  0.36031  0.75915  1.0000
  H   H1726     1.0  0.09224  0.48092  0.81254  1.0000
  H   H1727     1.0  0.12990  0.48191  0.75706  1.0000
  H   H1728     1.0  0.32041  0.48056  0.99018  1.0000
  H   H1729     1.0  0.03820  0.40265  0.84883  1.0000
  H   H1730     1.0  0.04828  0.43199  0.75115  1.0000
  S   S217      1.0  0.47832  0.28697  0.96853  1.0000
  C   C970      1.0  0.19875  0.42858  0.95760  1.0000
  H   H1731     1.0  0.21862  0.47258  0.88523  1.0000
  S   S218      1.0  0.47206  0.26161  0.96085  1.0000
  H   H1732     1.0  0.28435  0.48492  0.97939  1.0000
  H   H1733     1.0  0.30205  0.48327  0.92762  1.0000
  H   H1734     1.0  0.10492  0.47945  0.77064  1.0000
  C   C971      1.0  0.25545  0.47719  0.91842  1.0000
  H   H1735     1.0  0.13708  0.41545  0.81958  1.0000
  H   H1736     1.0  0.12338  0.47140  0.92499  1.0000
  H   H1737     1.0  0.10755  0.49257  0.80560  1.0000
  Fe  Fe111     1.0  0.09440  0.45043  0.74591  1.0000
  Fe  Fe112     1.0  0.09821  0.42505  0.75794  1.0000
  S   S219      1.0  0.11716  0.42339  0.75741  1.0000
  S   S220      1.0  0.08875  0.41043  0.76542  1.0000
  Fe  Fe113     1.0  0.11087  0.44078  0.76288  1.0000
  S   S221      1.0  0.11881  0.44508  0.77558  1.0000
  H   H1738     1.0  0.48244  0.31262  0.97585  1.0000
  H   H1739     1.0  0.03934  0.36286  0.75103  1.0000
  S   S222      1.0  0.09181  0.44148  0.76500  1.0000
  H   H1740     1.0  0.13711  0.46896  0.83883  1.0000
  H   H1741     1.0  0.23803  0.45929  0.90263  1.0000
  S   S223      1.0  0.00725  0.42632  0.80425  1.0000
  N   N56       1.0  0.03435  0.42091  0.83961  1.0000
  H   H1742     1.0  0.29104  0.44551  0.95726  1.0000
  N   N57       1.0  0.03207  0.44226  0.74590  1.0000
  Fe  Fe114     1.0  0.10751  0.46193  0.85746  1.0000
  C   C972      1.0  0.35624  0.45632  0.89773  1.0000
  H   H1743     1.0  0.29308  0.37783  0.94449  1.0000
  Fe  Fe115     1.0  0.09644  0.45857  0.83897  1.0000
  S   S224      1.0  0.08396  0.47618  0.83855  1.0000
  S   S225      1.0  0.09312  0.44758  0.82837  1.0000
  C   C973      1.0  0.29684  0.48516  0.92086  1.0000
  C   C974      1.0  0.01909  0.44267  0.75058  1.0000
  Fe  Fe116     1.0  0.08119  0.47133  0.85814  1.0000
  S   S226      1.0  0.06272  0.47541  0.86914  1.0000
  S   S227      1.0  0.11214  0.46551  0.83763  1.0000
  S   S228      1.0  0.09289  0.45324  0.85876  1.0000
  H   H1744     1.0  0.16766  0.43676  0.97591  1.0000
  C   C975      1.0  0.11974  0.46448  0.93204  1.0000
  H   H1745     1.0  0.10793  0.47207  0.88034  1.0000
  H   H1746     1.0  0.25226  0.40085  0.98521  1.0000
  H   H1747     1.0  0.11044  0.46836  0.93584  1.0000
  H   H1748     1.0  0.25408  0.47041  0.90436  1.0000
  N   N58       1.0  0.12330  0.40822  0.79549  1.0000
  C   C976      1.0  0.12164  0.41768  0.81274  1.0000
  H   H1749     1.0  0.10619  0.40902  0.78177  1.0000
  C   C977      1.0  0.18576  0.45309  0.95472  1.0000
  H   H1750     1.0  0.04812  0.46525  0.75395  1.0000
  H   H1751     1.0  0.14294  0.46798  0.85121  1.0000
  C   C978      1.0  0.36682  0.47978  0.91916  1.0000
  H   H1752     1.0  0.17825  0.46070  0.95310  1.0000
  H   H1753     1.0  0.44481  0.36272  0.93446  1.0000
  H   H1754     1.0  0.43035  0.41739  0.95214  1.0000
  H   H1755     1.0  0.00136  0.42645  0.91336  1.0000
  H   H1756     1.0  0.07469  0.40541  0.74880  1.0000
  H   H1757     1.0  0.23174  0.48309  0.95308  1.0000
  H   H1758     1.0  0.30038  0.37623  0.97991  1.0000
  C   C979      1.0  0.22539  0.48767  0.97482  1.0000
  C   C980      1.0  0.41063  0.49043  0.97762  1.0000
  C   C981      1.0  0.12175  0.43001  0.89575  1.0000
  H   H1759     1.0  0.21993  0.43707  0.99103  1.0000
  S   S229      1.0  0.00290  0.40067  0.80399  1.0000
  H   H1760     1.0  0.06760  0.42407  0.84135  1.0000
  C   C982      1.0  0.35304  0.47156  0.98793  1.0000
  C   C983      1.0  0.04806  0.46664  0.74457  1.0000
  C   C984      1.0  0.31951  0.44726  0.97932  1.0000
  H   H1761     1.0  0.18904  0.45322  0.97606  1.0000
  N   N59       1.0  0.21719  0.47988  0.97615  1.0000
  H   H1762     1.0  0.99998  0.48549  0.82607  1.0000
  H   H1763     1.0  0.37255  0.45662  0.94305  1.0000
  H   H1764     1.0  0.04987  0.45571  0.84652  1.0000
  H   H1765     1.0  0.05890  0.48383  0.83639  1.0000
  H   H1766     1.0  0.12549  0.46812  0.76411  1.0000
  C   C985      1.0  0.27873  0.48309  0.98841  1.0000
  C   C986      1.0  0.35513  0.45665  0.95313  1.0000
  H   H1767     1.0  0.02217  0.41868  0.88074  1.0000
  C   C987      1.0  0.44374  0.31086  0.98326  1.0000
  H   H1768     1.0  0.21078  0.41265  0.95321  1.0000
  C   C988      1.0  0.19896  0.49202  0.89203  1.0000
  H   H1769     1.0  0.14970  0.42305  0.91277  1.0000
  H   H1770     1.0  0.02151  0.39922  0.74420  1.0000
  H   H1771     1.0  0.06349  0.43946  0.84130  1.0000
  H   H1772     1.0  0.00621  0.38410  0.74659  1.0000
  C   C989      1.0  0.09398  0.48828  0.74614  1.0000
  C   C990      1.0  0.47936  0.34386  0.96330  1.0000
  C   C991      1.0  0.20582  0.48754  0.97320  1.0000
  C   C992      1.0  0.23762  0.47035  0.88019  1.0000
  H   H1773     1.0  0.11225  0.48173  0.89368  1.0000
  H   H1774     1.0  0.01444  0.47657  0.82698  1.0000
  H   H1775     1.0  0.46370  0.33716  0.96732  1.0000
  H   H1776     1.0  0.05462  0.41073  0.75860  1.0000
  H   H1777     1.0  0.13209  0.43526  0.94345  1.0000
  C   C993      1.0  0.11104  0.44686  0.78988  1.0000
  C   C994      1.0  0.11657  0.44998  0.79689  1.0000
  C   C995      1.0  0.11094  0.45079  0.80857  1.0000
  C   C996      1.0  0.09988  0.44812  0.81340  1.0000
  C   C997      1.0  0.09433  0.44506  0.80638  1.0000
  C   C998      1.0  0.09979  0.44464  0.79460  1.0000
  H   H1778     1.0  0.12534  0.45158  0.79333  1.0000
  H   H1779     1.0  0.11534  0.45301  0.81398  1.0000
  H   H1780     1.0  0.08579  0.44292  0.81012  1.0000
  H   H1781     1.0  0.09546  0.44220  0.78929  1.0000
  C   C999      1.0  0.05050  0.42776  0.77864  1.0000
  C   C1000     1.0  0.05479  0.41579  0.78286  1.0000
  C   C1001     1.0  0.06647  0.41039  0.77855  1.0000
  C   C1002     1.0  0.07387  0.41694  0.76994  1.0000
  C   C1003     1.0  0.06948  0.42884  0.76541  1.0000
  C   C1004     1.0  0.05786  0.43430  0.76991  1.0000
  H   H1782     1.0  0.04928  0.41072  0.78968  1.0000
  H   H1783     1.0  0.06985  0.40121  0.78213  1.0000
  H   H1784     1.0  0.07504  0.43387  0.75847  1.0000
  H   H1785     1.0  0.05458  0.44355  0.76659  1.0000
  C   C1005     1.0  0.03979  0.47419  0.77466  1.0000
  C   C1006     1.0  0.20508  0.42994  0.92704  1.0000
  C   C1007     1.0  0.04059  0.47195  0.87202  1.0000
  C   C1008     1.0  0.05233  0.47011  0.86566  1.0000
  C   C1009     1.0  0.12027  0.45404  0.92709  1.0000
  H   H1786     1.0  0.03003  0.41810  0.75311  1.0000
  H   H1787     1.0  0.13148  0.43035  0.81219  1.0000
  C   C1010     1.0  0.13598  0.39027  0.80749  1.0000
  H   H1788     1.0  0.00330  0.43864  0.78148  1.0000
  C   C1011     1.0  0.06288  0.47088  0.78110  1.0000
  H   H1789     1.0  0.46237  0.31697  0.98487  1.0000
  H   H1790     1.0  0.06276  0.46936  0.77253  1.0000
  H   H1791     1.0  0.17137  0.43347  0.90386  1.0000
  C   C1012     1.0  0.47698  0.25055  0.95273  1.0000
  H   H1792     1.0  0.41881  0.49083  0.97117  1.0000
  C   C1013     1.0  0.19651  0.45821  0.95334  1.0000
  H   H1793     1.0  0.19510  0.44298  0.88843  1.0000
  H   H1794     1.0  0.00938  0.46099  0.74977  1.0000
  C   C1014     1.0  0.48461  0.25204  0.94165  1.0000
  H   H1795     1.0  0.44863  0.30544  0.97662  1.0000
  H   H1796     1.0  0.21841  0.47983  0.92165  1.0000
  C   C1015     1.0  0.12768  0.43832  0.90961  1.0000
  C   C1016     1.0  0.01077  0.45392  0.74506  1.0000
  C   C1017     1.0  0.14782  0.43234  0.91357  1.0000
  H   H1797     1.0  0.27999  0.46850  0.97261  1.0000
  C   C1018     1.0  0.04559  0.40962  0.75979  1.0000
  H   H1798     1.0  0.12430  0.48648  0.77704  1.0000
  C   C1019     1.0  0.13097  0.42782  0.92925  1.0000
  H   H1799     1.0  0.12703  0.41990  0.91166  1.0000
  H   H1800     1.0  0.00061  0.42416  0.74503  1.0000
  C   C1020     1.0  0.04142  0.47549  0.78641  1.0000
  C   C1021     1.0  0.17061  0.44246  0.96726  1.0000
  H   H1801     1.0  0.22001  0.47723  0.90116  1.0000
  Fe  Fe117     1.0  0.40098  0.43876  0.96636  1.0000
  H   H1802     1.0  0.23524  0.44340  0.88302  1.0000
  H   H1803     1.0  0.19168  0.45094  0.89992  1.0000
  C   C1022     1.0  0.11268  0.48606  0.80009  1.0000
  H   H1804     1.0  0.01389  0.36274  0.75027  1.0000
  C   C1023     1.0  0.39555  0.47966  0.98911  1.0000
  C   C1024     1.0  0.12950  0.48386  0.84718  1.0000
  C   C1025     1.0  0.13310  0.44854  0.92133  1.0000
  H   H1805     1.0  0.16382  0.45080  0.96673  1.0000
  H   H1806     1.0  0.17458  0.46050  0.97394  1.0000
  H   H1807     1.0  0.47569  0.34960  0.96938  1.0000
  H   H1808     1.0  0.01924  0.45606  0.81379  1.0000
  H   H1809     1.0  0.44556  0.39955  0.95942  1.0000
  H   H1810     1.0  0.34530  0.48189  0.95099  1.0000
  H   H1811     1.0  0.41756  0.41491  0.94936  1.0000
  H   H1812     1.0  0.29548  0.38616  0.96730  1.0000
  H   H1813     1.0  0.39068  0.47253  0.91642  1.0000
  C   C1026     1.0  0.00423  0.36635  0.75166  1.0000
  H   H1814     1.0  0.24502  0.42184  0.88831  1.0000
  H   H1815     1.0  0.00473  0.37781  0.76202  1.0000
  S   S230      1.0  0.46935  0.31938  0.95398  1.0000
  S   S231      1.0  0.49499  0.36936  0.98325  1.0000
  C   C1027     1.0  0.03890  0.43164  0.75305  1.0000
  H   H1816     1.0  0.20027  0.48211  0.97229  1.0000
  S   S232      1.0  0.39485  0.44076  0.95001  1.0000
  N   N60       1.0  0.22602  0.45533  0.89480  1.0000
  H   H1817     1.0  0.06467  0.46262  0.85159  1.0000
  H   H1818     1.0  0.35645  0.44706  0.95389  1.0000
  S   S233      1.0  0.48407  0.29037  0.93962  1.0000
  H   H1819     1.0  0.12375  0.42433  0.82666  1.0000
  C   C1028     1.0  0.13989  0.47408  0.84342  1.0000
  H   H1820     1.0  0.01671  0.44206  0.76025  1.0000
  C   C1029     1.0  0.08496  0.46875  0.77409  1.0000
  C   C1030     1.0  0.02985  0.42749  0.82863  1.0000
  Fe  Fe118     1.0  0.99996  0.41912  0.79346  1.0000
  H   H1821     1.0  0.47289  0.39390  0.98429  1.0000
  H   H1822     1.0  0.22803  0.45125  0.91269  1.0000
  C   C1031     1.0  0.36084  0.46101  0.93086  1.0000
  H   H1823     1.0  0.24845  0.40966  0.97164  1.0000
  Fe  Fe119     1.0  0.15911  0.48085  0.92699  1.0000
  H   H1824     1.0  0.36295  0.47095  0.94261  1.0000
  H   H1825     1.0  0.30312  0.46184  0.91977  1.0000
  H   H1826     1.0  0.46518  0.38215  0.94599  1.0000
  H   H1827     1.0  0.35930  0.44895  0.91509  1.0000
  Fe  Fe120     1.0  0.17542  0.47805  0.90363  1.0000
  C   C1032     1.0  0.25836  0.47435  0.92938  1.0000
  H   H1828     1.0  0.99697  0.39164  0.77711  1.0000
  C   C1033     1.0  0.14247  0.40423  0.77934  1.0000
  H   H1829     1.0  0.17495  0.42695  0.95972  1.0000
  C   C1034     1.0  0.20158  0.46318  0.94046  1.0000
  C   C1035     1.0  0.14712  0.40715  0.76602  1.0000
  C   C1036     1.0  0.04701  0.45538  0.74209  1.0000
  C   C1037     1.0  0.04692  0.42166  0.83816  1.0000
  H   H1830     1.0  0.34041  0.42187  0.98678  1.0000
  H   H1831     1.0  0.36496  0.48093  0.98990  1.0000
  Fe  Fe121     1.0  0.39967  0.42515  0.99142  1.0000
  H   H1832     1.0  0.02058  0.47732  0.77964  1.0000
  C   C1038     1.0  0.06991  0.38411  0.76359  1.0000
  H   H1833     1.0  0.30666  0.46828  0.96087  1.0000
  C   C1039     1.0  0.32019  0.48581  0.93693  1.0000
  H   H1834     1.0  0.08393  0.47814  0.77396  1.0000
  H   H1835     1.0  0.06294  0.48342  0.74942  1.0000
  S   S234      1.0  0.38771  0.44095  0.98308  1.0000
  H   H1836     1.0  0.11724  0.39448  0.80980  1.0000
  C   C1040     1.0  0.12239  0.47751  0.76001  1.0000
  H   H1837     1.0  0.43141  0.36535  0.99149  1.0000
  H   H1838     1.0  0.13925  0.48519  0.80667  1.0000
  H   H1839     1.0  0.02842  0.46111  0.74457  1.0000
  C   C1041     1.0  0.46658  0.38478  0.96244  1.0000
  Fe  Fe122     1.0  0.09924  0.48269  0.83894  1.0000
  H   H1840     1.0  0.19813  0.43491  0.97260  1.0000
  C   C1042     1.0  0.49097  0.34321  0.95682  1.0000
  H   H1841     1.0  0.06630  0.39152  0.76817  1.0000
  H   H1842     1.0  0.06277  0.38253  0.76059  1.0000
  H   H1843     1.0  0.07309  0.37609  0.76997  1.0000
  H   H1844     1.0  0.15303  0.43212  0.91982  1.0000
  C   C1043     1.0  0.28250  0.45902  0.97662  1.0000
  C   C1044     1.0  0.35274  0.43906  0.98289  1.0000
  H   H1845     1.0  0.36570  0.37110  0.98935  1.0000
  H   H1846     1.0  0.04647  0.43081  0.85163  1.0000
  H   H1847     1.0  0.35061  0.40268  0.98371  1.0000
  H   H1848     1.0  0.24574  0.46333  0.87913  1.0000
  C   C1045     1.0  0.22571  0.47718  0.95476  1.0000
  C   C1046     1.0  0.03415  0.40814  0.84136  1.0000
  H   H1849     1.0  0.23298  0.47702  0.91270  1.0000
  H   H1850     1.0  0.20362  0.45147  0.95703  1.0000
  H   H1851     1.0  0.03253  0.38725  0.83739  1.0000
  S   S235      1.0  0.33769  0.43323  0.95562  1.0000
  H   H1852     1.0  0.30791  0.38780  0.97158  1.0000
  Fe  Fe123     1.0  0.02440  0.42169  0.79170  1.0000
  S   S236      1.0  0.02940  0.40343  0.80227  1.0000
  H   H1853     1.0  0.45533  0.35740  0.95608  1.0000
  H   H1854     1.0  0.46551  0.36962  0.95767  1.0000
  H   H1855     1.0  0.35240  0.46762  0.98097  1.0000
  C   C1047     1.0  0.20004  0.41231  0.92637  1.0000
  S   S237      1.0  0.01669  0.41633  0.77981  1.0000
  C   C1048     1.0  0.15725  0.43603  0.95884  1.0000
  C   C1049     1.0  0.13559  0.42697  0.94021  1.0000
  H   H1856     1.0  0.28404  0.47709  0.91803  1.0000
  H   H1857     1.0  0.00635  0.45845  0.77157  1.0000
  H   H1858     1.0  0.99887  0.45884  0.80245  1.0000
  H   H1859     1.0  0.12480  0.38982  0.79654  1.0000
  C   C1050     1.0  0.42726  0.41184  0.94830  1.0000
  H   H1860     1.0  0.32051  0.44979  0.96991  1.0000
  C   C1051     1.0  0.29587  0.46369  0.92744  1.0000
  H   H1861     1.0  0.33008  0.48834  0.95589  1.0000
  C   C1052     1.0  0.44464  0.37532  0.95065  1.0000
  H   H1862     1.0  0.49227  0.32345  0.94107  1.0000
  H   H1863     1.0  0.34862  0.48389  0.92961  1.0000
  C   C1053     1.0  0.02604  0.42540  0.85008  1.0000
  N   N61       1.0  0.36740  0.46718  0.91930  1.0000
  Fe  Fe124     1.0  0.48251  0.27554  0.95559  1.0000
  H   H1864     1.0  0.24326  0.41443  0.90357  1.0000
  H   H1865     1.0  0.29909  0.41722  0.94189  1.0000
  C   C1054     1.0  0.43031  0.39891  0.95449  1.0000
  H   H1866     1.0  0.43901  0.35489  0.94909  1.0000
  C   C1055     1.0  0.38924  0.46361  0.92106  1.0000
  H   H1867     1.0  0.02490  0.40706  0.84386  1.0000
  H   H1868     1.0  0.28361  0.43333  0.87571  1.0000
  N   N62       1.0  0.05236  0.46777  0.79045  1.0000
  C   C1056     1.0  0.05243  0.47091  0.80159  1.0000
  C   C1057     1.0  0.05225  0.45497  0.79212  1.0000
  C   C1058     1.0  0.05857  0.44595  0.80156  1.0000
  C   C1059     1.0  0.04135  0.46970  0.81166  1.0000
  C   C1060     1.0  0.07513  0.46385  0.78337  1.0000
  C   C1061     1.0  0.06007  0.43333  0.80059  1.0000
  C   C1062     1.0  0.04414  0.46714  0.82373  1.0000
  H   H1869     1.0  0.05323  0.48021  0.79974  1.0000
  H   H1870     1.0  0.06027  0.46566  0.80505  1.0000
  H   H1871     1.0  0.03338  0.47372  0.79311  1.0000
  H   H1872     1.0  0.04305  0.45376  0.79457  1.0000
  H   H1873     1.0  0.05609  0.45213  0.78360  1.0000
  H   H1874     1.0  0.05334  0.44674  0.81051  1.0000
  H   H1875     1.0  0.06738  0.44723  0.80091  1.0000
  H   H1876     1.0  0.03450  0.47799  0.81067  1.0000
  H   H1877     1.0  0.03749  0.46259  0.81141  1.0000
  H   H1878     1.0  0.04082  0.46482  0.77465  1.0000
  H   H1879     1.0  0.07628  0.46409  0.79198  1.0000
  H   H1880     1.0  0.07643  0.45458  0.78289  1.0000
  H   H1881     1.0  0.05138  0.43141  0.80166  1.0000
  H   H1882     1.0  0.06570  0.43188  0.79192  1.0000
  H   H1883     1.0  0.06439  0.42711  0.80755  1.0000
  C   C1063     1.0  0.00916  0.48576  0.82556  1.0000
  H   H1884     1.0  0.04705  0.47460  0.82474  1.0000
  H   H1885     1.0  0.03615  0.46575  0.83066  1.0000
  N   N63       1.0  0.29921  0.41042  0.90354  1.0000
  C   C1064     1.0  0.29552  0.41780  0.91264  1.0000
  C   C1065     1.0  0.29561  0.39883  0.90909  1.0000
  C   C1066     1.0  0.31251  0.40770  0.90006  1.0000
  C   C1067     1.0  0.29427  0.41659  0.89272  1.0000
  C   C1068     1.0  0.28226  0.42566  0.89443  1.0000
  C   C1069     1.0  0.30075  0.42887  0.90914  1.0000
  C   C1070     1.0  0.31830  0.39888  0.89184  1.0000
  C   C1071     1.0  0.28238  0.39940  0.91447  1.0000
  C   C1072     1.0  0.28001  0.38708  0.91965  1.0000
  C   C1073     1.0  0.27728  0.42951  0.88339  1.0000
  C   C1074     1.0  0.29361  0.43786  0.91658  1.0000
  C   C1075     1.0  0.33142  0.39858  0.88711  1.0000
  H   H1886     1.0  0.29835  0.41242  0.92074  1.0000
  H   H1887     1.0  0.28580  0.42050  0.91542  1.0000
  H   H1888     1.0  0.29809  0.39325  0.90252  1.0000
  H   H1889     1.0  0.30043  0.39381  0.91618  1.0000
  H   H1890     1.0  0.31631  0.40414  0.90806  1.0000
  H   H1891     1.0  0.31570  0.41589  0.89548  1.0000
  H   H1892     1.0  0.30051  0.42154  0.88597  1.0000
  H   H1893     1.0  0.29341  0.41000  0.88839  1.0000
  H   H1894     1.0  0.28336  0.43368  0.89627  1.0000
  H   H1895     1.0  0.27553  0.42222  0.90184  1.0000
  H   H1896     1.0  0.30988  0.42628  0.91054  1.0000
  H   H1897     1.0  0.30111  0.43322  0.89976  1.0000
  H   H1898     1.0  0.31408  0.40126  0.88425  1.0000
  H   H1899     1.0  0.31753  0.38983  0.89676  1.0000
  H   H1900     1.0  0.27920  0.40425  0.92167  1.0000
  H   H1901     1.0  0.27719  0.40355  0.90763  1.0000
  H   H1902     1.0  0.27051  0.38777  0.92384  1.0000
  H   H1903     1.0  0.28236  0.38201  0.91267  1.0000
  H   H1904     1.0  0.28511  0.38222  0.92647  1.0000
  C   C1076     1.0  0.35401  0.49102  0.96467  1.0000
  H   H1905     1.0  0.27528  0.42193  0.88153  1.0000
  H   H1906     1.0  0.26899  0.43632  0.88478  1.0000
  H   H1907     1.0  0.00148  0.36680  0.74353  1.0000
  H   H1908     1.0  0.29310  0.43390  0.92608  1.0000
  H   H1909     1.0  0.29789  0.44539  0.91411  1.0000
  H   H1910     1.0  0.33542  0.39195  0.88156  1.0000
  H   H1911     1.0  0.33280  0.40729  0.88165  1.0000
  H   H1912     1.0  0.33598  0.39612  0.89448  1.0000
  H   H1913     1.0  0.15706  0.43107  0.95249  1.0000
  H   H1914     1.0  0.03283  0.45251  0.75762  1.0000
  H   H1915     1.0  0.02639  0.43452  0.84971  1.0000
  H   H1916     1.0  0.02667  0.47982  0.76405  1.0000
  H   H1917     1.0  0.26178  0.42048  0.98958  1.0000
  H   H1918     1.0  0.15275  0.44855  0.90241  1.0000
  H   H1919     1.0  0.37130  0.48030  0.92573  1.0000
  H   H1920     1.0  0.48729  0.26029  0.93775  1.0000
  H   H1921     1.0  0.01133  0.42653  0.87212  1.0000
  H   H1922     1.0  0.30676  0.47914  0.98025  1.0000
  H   H1923     1.0  0.00229  0.42821  0.82827  1.0000
  C   C1077     1.0  0.31309  0.48257  0.94803  1.0000
  H   H1924     1.0  0.13385  0.41888  0.92730  1.0000
  H   H1925     1.0  0.36018  0.48348  0.96106  1.0000
  H   H1926     1.0  0.19940  0.41016  0.96623  1.0000
  H   H1927     1.0  0.19478  0.47017  0.93648  1.0000
  H   H1928     1.0  0.21649  0.44225  0.88564  1.0000
  C   C1078     1.0  0.07811  0.47808  0.80726  1.0000
  H   H1929     1.0  0.11977  0.47310  0.78359  1.0000
  H   H1930     1.0  0.01676  0.42595  0.84992  1.0000
  H   H1931     1.0  0.44850  0.39774  0.94473  1.0000
  C   C1079     1.0  0.00134  0.37859  0.75423  1.0000
  H   H1932     1.0  0.10075  0.47215  0.79467  1.0000
  H   H1933     1.0  0.47386  0.26099  0.98897  1.0000
  H   H1934     1.0  0.13136  0.47786  0.79477  1.0000
  C   C1080     1.0  0.99845  0.42497  0.83735  1.0000
  C   C1081     1.0  0.04144  0.38915  0.83392  1.0000
  H   H1935     1.0  0.23829  0.47499  0.98452  1.0000
  H   H1936     1.0  0.12668  0.48953  0.83919  1.0000
  H   H1937     1.0  0.28459  0.44119  0.91496  1.0000
  H   H1938     1.0  0.44402  0.38101  0.94178  1.0000
  H   H1939     1.0  0.20495  0.45610  0.93541  1.0000
  C   C1082     1.0  0.46152  0.37916  0.95555  1.0000
  C   C1083     1.0  0.02527  0.39151  0.75010  1.0000
  H   H1940     1.0  0.29000  0.45759  0.92930  1.0000
  H   H1941     1.0  0.08152  0.46845  0.80820  1.0000
  C   C1084     1.0  0.09734  0.48183  0.79339  1.0000
  C   C1085     1.0  0.28629  0.40676  0.94531  1.0000
  S   S238      1.0  0.34373  0.41994  0.93377  1.0000
  H   H1942     1.0  0.10561  0.41353  0.80562  1.0000
  H   H1943     1.0  0.19091  0.44541  0.92705  1.0000
  H   H1944     1.0  0.22583  0.46223  0.87641  1.0000
  S   S239      1.0  0.17694  0.46927  0.92211  1.0000
  H   H1945     1.0  0.10512  0.39792  0.79519  1.0000
  C   C1086     1.0  0.16625  0.43400  0.89740  1.0000
  H   H1946     1.0  0.13758  0.41208  0.80017  1.0000
  H   H1947     1.0  0.03868  0.36379  0.77129  1.0000
  Fe  Fe125     1.0  0.23595  0.42776  0.95179  1.0000
  H   H1948     1.0  0.18737  0.42680  0.97511  1.0000
  H   H1949     1.0  0.04627  0.47798  0.76715  1.0000
  S   S240      1.0  0.15823  0.49059  0.90844  1.0000
  C   C1087     1.0  0.48869  0.32909  0.94731  1.0000
  H   H1950     1.0  0.21165  0.46826  0.91313  1.0000
  H   H1951     1.0  0.18190  0.41391  0.92655  1.0000
  H   H1952     1.0  0.14278  0.40334  0.76152  1.0000
  H   H1953     1.0  0.12201  0.41867  0.95292  1.0000
  C   C1088     1.0  0.11031  0.41355  0.79632  1.0000
  C   C1089     1.0  0.13071  0.47337  0.89094  1.0000
  H   H1954     1.0  0.48362  0.37248  0.96133  1.0000
  C   C1090     1.0  0.12946  0.42739  0.90455  1.0000
  C   C1091     1.0  0.29776  0.40859  0.94269  1.0000
  H   H1955     1.0  0.03565  0.40611  0.82353  1.0000
  H   H1956     1.0  0.05115  0.45903  0.82499  1.0000
  C   C1092     1.0  0.20973  0.44922  0.88956  1.0000
  C   C1093     1.0  0.15209  0.48412  0.97624  1.0000
  C   C1094     1.0  0.47252  0.33694  0.96199  1.0000
  C   C1095     1.0  0.28873  0.47632  0.92491  1.0000
  C   C1096     1.0  0.06193  0.43258  0.83791  1.0000
  C   C1097     1.0  0.21381  0.45302  0.89865  1.0000
  H   H1957     1.0  0.12780  0.42458  0.79427  1.0000
  C   C1098     1.0  0.32305  0.45372  0.98516  1.0000
  H   H1958     1.0  0.07184  0.47964  0.81559  1.0000
  H   H1959     1.0  0.34779  0.44347  0.99026  1.0000
  C   C1099     1.0  0.11927  0.47569  0.88915  1.0000
  C   C1100     1.0  0.22646  0.46521  0.88404  1.0000
  H   H1960     1.0  0.12658  0.47991  0.81610  1.0000
  H   H1961     1.0  0.23787  0.47498  0.88677  1.0000
  H   H1962     1.0  0.38328  0.48462  0.97043  1.0000
  S   S241      1.0  0.25537  0.42662  0.94528  1.0000
  C   C1101     1.0  0.44187  0.45256  0.99074  1.0000
  C   C1102     1.0  0.44117  0.36279  0.98989  1.0000
  H   H1963     1.0  0.20050  0.43606  0.90165  1.0000
  H   H1964     1.0  0.13910  0.44799  0.92697  1.0000
  H   H1965     1.0  0.09363  0.46381  0.77603  1.0000
  H   H1966     1.0  0.36504  0.47307  0.90137  1.0000
  H   H1967     1.0  0.26514  0.46049  0.94281  1.0000
  H   H1968     1.0  0.11478  0.45729  0.92043  1.0000
  S   S242      1.0  0.14910  0.46800  0.92691  1.0000
  S   S243      1.0  0.00860  0.40244  0.83353  1.0000
  C   C1103     1.0  0.14938  0.47375  0.95952  1.0000
  Fe  Fe126     1.0  0.02043  0.39836  0.79123  1.0000
  C   C1104     1.0  0.22873  0.45845  0.90477  1.0000
  H   H1969     1.0  0.24570  0.48301  0.86608  1.0000
  C   C1105     1.0  0.29080  0.39361  0.98282  1.0000
  C   C1106     1.0  0.19857  0.44453  0.89527  1.0000
  C   C1107     1.0  0.35625  0.42582  0.98743  1.0000
  H   H1970     1.0  0.11229  0.43268  0.89996  1.0000
  H   H1971     1.0  0.38642  0.46347  0.93055  1.0000
  C   C1108     1.0  0.22235  0.47148  0.96798  1.0000
  H   H1972     1.0  0.03452  0.44450  0.82463  1.0000
  H   H1973     1.0  0.13564  0.45515  0.91324  1.0000
  H   H1974     1.0  0.36233  0.45150  0.93112  1.0000
  H   H1975     1.0  0.25688  0.44976  0.96914  1.0000
  H   H1976     1.0  0.32683  0.46117  0.98020  1.0000
  H   H1977     1.0  0.24417  0.44581  0.89092  1.0000
  C   C1109     1.0  0.17530  0.44560  0.98863  1.0000
  H   H1978     1.0  0.46706  0.30211  0.98391  1.0000
  H   H1979     1.0  0.02373  0.43257  0.87091  1.0000
  H   H1980     1.0  0.34718  0.44107  0.97642  1.0000
  H   H1981     1.0  0.05176  0.41357  0.84334  1.0000
  H   H1982     1.0  0.42981  0.40958  0.98853  1.0000
  H   H1983     1.0  0.04679  0.38481  0.84064  1.0000
  C   C1110     1.0  0.23229  0.43938  0.97437  1.0000
  H   H1984     1.0  0.01993  0.44435  0.83378  1.0000
  H   H1985     1.0  0.22652  0.46138  0.94902  1.0000
  C   C1111     1.0  0.11241  0.48365  0.76871  1.0000
  H   H1986     1.0  0.06462  0.43476  0.82817  1.0000
  H   H1987     1.0  0.45027  0.45429  0.99099  1.0000
  C   C1112     1.0  0.31433  0.43781  0.98577  1.0000
  H   H1988     1.0  0.44314  0.44924  0.98272  1.0000
  C   C1113     1.0  0.04726  0.46019  0.85365  1.0000
  H   H1989     1.0  0.36939  0.47486  0.97721  1.0000
  H   H1990     1.0  0.04963  0.40392  0.82714  1.0000
  C   C1114     1.0  0.18835  0.41843  0.92663  1.0000
  H   H1991     1.0  0.35119  0.46435  0.93169  1.0000
  H   H1992     1.0  0.36662  0.42542  0.94029  1.0000
  H   H1993     1.0  0.35193  0.47106  0.91212  1.0000
  C   C1115     1.0  0.12901  0.40905  0.78260  1.0000
  H   H1994     1.0  0.14552  0.41683  0.76261  1.0000
  H   H1995     1.0  0.23024  0.46510  0.97053  1.0000
  H   H1996     1.0  0.04612  0.40096  0.75806  1.0000
  H   H1997     1.0  0.14534  0.42517  0.93820  1.0000
  H   H1998     1.0  0.24051  0.46323  0.94980  1.0000
  H   H1999     1.0  0.02761  0.44350  0.80758  1.0000
  H   H2000     1.0  0.40744  0.45715  0.92261  1.0000
  H   H2001     1.0  0.19380  0.46550  0.95809  1.0000
  H   H2002     1.0  0.20526  0.43388  0.95219  1.0000
  C   C1116     1.0  0.48001  0.38208  0.95898  1.0000
  H   H2003     1.0  0.42709  0.39384  0.95025  1.0000
  C   C1117     1.0  0.36363  0.46180  0.94225  1.0000
  H   H2004     1.0  0.44379  0.32024  0.97909  1.0000
  H   H2005     1.0  0.45331  0.34884  0.94094  1.0000
  H   H2006     1.0  0.48339  0.38650  0.96376  1.0000
  S   S244      1.0  0.13334  0.48065  0.90043  1.0000
  H   H2007     1.0  0.04384  0.41842  0.74235  1.0000
  C   C1118     1.0  0.11645  0.48262  0.78002  1.0000
  H   H2008     1.0  0.14456  0.39450  0.78221  1.0000
  C   C1119     1.0  0.05564  0.46417  0.85649  1.0000
  H   H2009     1.0  0.18764  0.44866  0.94736  1.0000
  N   N64       1.0  0.44826  0.38151  0.95786  1.0000
  H   H2010     1.0  0.43136  0.41302  0.93875  1.0000
  H   H2011     1.0  0.13891  0.37255  0.80482  1.0000
  H   H2012     1.0  0.13519  0.39416  0.81500  1.0000
  C   C1120     1.0  0.44709  0.35715  0.94281  1.0000
  H   H2013     1.0  0.23369  0.47217  0.93804  1.0000
  C   C1121     1.0  0.26284  0.46266  0.93438  1.0000
  H   H2014     1.0  0.03843  0.48709  0.84766  1.0000
  H   H2015     1.0  0.21163  0.41563  0.96666  1.0000
  Fe  Fe127     1.0  0.00597  0.46145  0.86397  1.0000
  H   H2016     1.0  0.04098  0.40963  0.76907  1.0000
  C   C1122     1.0  0.37971  0.43168  0.94417  1.0000
  C   C1123     1.0  0.29122  0.46330  0.99145  1.0000
  C   C1124     1.0  0.03905  0.41944  0.75139  1.0000
  H   H2017     1.0  0.06255  0.48046  0.77959  1.0000
  H   H2018     1.0  0.29453  0.39193  0.99062  1.0000
  C   C1125     1.0  0.36156  0.46728  0.90980  1.0000
  S   S245      1.0  0.22418  0.43503  0.96722  1.0000
  Fe  Fe128     1.0  0.14979  0.47654  0.90775  1.0000
  H   H2019     1.0  0.35984  0.46202  0.88935  1.0000
  C   C1126     1.0  0.23413  0.43278  0.90070  1.0000
  C   C1127     1.0  0.20554  0.41598  0.96121  1.0000
  H   H2020     1.0  0.25285  0.42456  0.89763  1.0000
  C   C1128     1.0  0.02962  0.38199  0.76938  1.0000
  C   C1129     1.0  0.38667  0.42077  0.96175  1.0000
  C   C1130     1.0  0.13176  0.41710  0.95032  1.0000
  H   H2021     1.0  0.01683  0.43485  0.74957  1.0000
  C   C1131     1.0  0.03452  0.45297  0.74798  1.0000
  H   H2022     1.0  0.03638  0.42518  0.82064  1.0000
  C   C1132     1.0  0.16998  0.43623  0.95804  1.0000
  C   C1133     1.0  0.32565  0.46569  0.93456  1.0000
  H   H2023     1.0  0.20744  0.45899  0.98733  1.0000
  H   H2024     1.0  0.40476  0.45532  0.90941  1.0000
  S   S246      1.0  0.02545  0.45680  0.85592  1.0000
  C   C1134     1.0  0.02757  0.48084  0.77254  1.0000
  C   C1135     1.0  0.24448  0.42283  0.89728  1.0000
  H   H2025     1.0  0.02190  0.42464  0.82876  1.0000
  H   H2026     1.0  0.12524  0.40416  0.77865  1.0000
  H   H2027     1.0  0.29963  0.46206  0.93523  1.0000
  C   C1136     1.0  0.14654  0.46865  0.97158  1.0000
  H   H2028     1.0  0.02497  0.40959  0.86419  1.0000
  H   H2029     1.0  0.11618  0.44767  0.93444  1.0000
  C   C1137     1.0  0.13753  0.37699  0.81210  1.0000
  C   C1138     1.0  0.19342  0.43619  0.92692  1.0000
  Fe  Fe129     1.0  0.39925  0.45125  0.98542  1.0000
  C   C1139     1.0  0.37226  0.42406  0.94623  1.0000
  H   H2030     1.0  0.38078  0.45101  0.91893  1.0000
  C   C1140     1.0  0.38011  0.46066  0.91626  1.0000
  C   C1141     1.0  0.02085  0.42435  0.87209  1.0000
  C   C1142     1.0  0.32633  0.47744  0.93013  1.0000
  C   C1143     1.0  0.03555  0.46197  0.85999  1.0000
  H   H2031     1.0  0.03740  0.41560  0.86261  1.0000
  H   H2032     1.0  0.23402  0.43334  0.90967  1.0000
  C   C1144     1.0  0.12812  0.41570  0.80020  1.0000
  C   C1145     1.0  0.37976  0.41271  0.96344  1.0000
  N   N65       1.0  0.28049  0.41565  0.98246  1.0000
  C   C1146     1.0  0.28958  0.40667  0.97622  1.0000
  C   C1147     1.0  0.28063  0.42803  0.97518  1.0000
  H   H2033     1.0  0.31788  0.45338  0.94913  1.0000
  C   C1148     1.0  0.30289  0.48481  0.98674  1.0000
  C   C1149     1.0  0.26370  0.41283  0.97506  1.0000
  H   H2034     1.0  0.02626  0.49036  0.77213  1.0000
  H   H2035     1.0  0.17343  0.44071  0.94897  1.0000
  C   C1150     1.0  0.28456  0.42955  0.96163  1.0000
  S   S247      1.0  0.22301  0.40996  0.92613  1.0000
  C   C1151     1.0  0.25167  0.40971  0.97931  1.0000
  C   C1152     1.0  0.29917  0.38549  0.97490  1.0000
  S   S248      1.0  0.32163  0.40222  0.93406  1.0000
  H   H2036     1.0  0.29844  0.40870  0.97417  1.0000
  H   H2037     1.0  0.28784  0.40717  0.96762  1.0000
  H   H2038     1.0  0.27186  0.43403  0.97721  1.0000
  H   H2039     1.0  0.28664  0.43191  0.97756  1.0000
  S   S249      1.0  0.02899  0.38201  0.78405  1.0000
  C   C1153     1.0  0.03536  0.37104  0.75392  1.0000
  C   C1154     1.0  0.02133  0.44631  0.81545  1.0000
  C   C1155     1.0  0.22816  0.43953  0.98630  1.0000
  H   H2040     1.0  0.26968  0.40610  0.97024  1.0000
  H   H2041     1.0  0.26258  0.42153  0.96895  1.0000
  H   H2042     1.0  0.00780  0.41554  0.75681  1.0000
  H   H2043     1.0  0.16729  0.42504  0.89611  1.0000
  C   C1156     1.0  0.10354  0.40753  0.79149  1.0000
  C   C1157     1.0  0.19151  0.43374  0.96853  1.0000
  H   H2044     1.0  0.29379  0.42469  0.95917  1.0000
  H   H2045     1.0  0.27890  0.42628  0.95820  1.0000
  H   H2046     1.0  0.24265  0.47623  0.96883  1.0000
  H   H2047     1.0  0.36358  0.40287  0.98731  1.0000
  H   H2048     1.0  0.11944  0.40950  0.81876  1.0000
  C   C1158     1.0  0.28261  0.45702  0.98959  1.0000
  C   C1159     1.0  0.24279  0.44284  0.96824  1.0000
  H   H2049     1.0  0.04120  0.48494  0.78546  1.0000
  H   H2050     1.0  0.28211  0.47772  0.93311  1.0000
  H   H2051     1.0  0.22347  0.46606  0.99009  1.0000
  H   H2052     1.0  0.12211  0.47971  0.85262  1.0000
  N   N66       1.0  0.13488  0.43677  0.91842  1.0000
  H   H2053     1.0  0.12712  0.41842  0.77780  1.0000
  C   C1160     1.0  0.15326  0.43958  0.90160  1.0000
  C   C1161     1.0  0.31217  0.47087  0.95231  1.0000
  C   C1162     1.0  0.13717  0.45989  0.87765  1.0000
  C   C1163     1.0  0.46351  0.39727  0.98512  1.0000
  H   H2054     1.0  0.13871  0.42461  0.89989  1.0000
  H   H2055     1.0  0.28826  0.48851  0.94312  1.0000
  C   C1164     1.0  0.33915  0.48941  0.95445  1.0000
  H   H2056     1.0  0.19318  0.42849  0.95189  1.0000
  N   N67       1.0  0.18230  0.44502  0.96643  1.0000
  H   H2057     1.0  0.08346  0.37893  0.74915  1.0000
  H   H2058     1.0  0.20715  0.46109  0.90057  1.0000
  H   H2059     1.0  0.38351  0.46246  0.90653  1.0000
  Fe  Fe130     1.0  0.16691  0.45722  0.92039  1.0000
  H   H2060     1.0  0.11813  0.44075  0.91364  1.0000
  S   S250      1.0  0.41170  0.45036  0.96784  1.0000
  C   C1165     1.0  0.12573  0.46225  0.87583  1.0000
  C   C1166     1.0  0.02797  0.41789  0.86228  1.0000
  H   H2061     1.0  0.34671  0.46009  0.90070  1.0000
  C   C1167     1.0  0.20842  0.41800  0.92666  1.0000
  H   H2062     1.0  0.10902  0.42289  0.79154  1.0000
  H   H2063     1.0  0.02085  0.40005  0.76472  1.0000
  Fe  Fe131     1.0  0.48122  0.30151  0.95270  1.0000
  H   H2064     1.0  0.14871  0.44018  0.89467  1.0000
  H   H2065     1.0  0.33938  0.48174  0.97254  1.0000
  C   C1168     1.0  0.04893  0.43201  0.84192  1.0000
  H   H2066     1.0  0.46356  0.39448  0.96068  1.0000
  C   C1169     1.0  0.23520  0.44460  0.89178  1.0000
  C   C1170     1.0  0.24515  0.44635  0.98602  1.0000
  H   H2067     1.0  0.29750  0.46540  0.98294  1.0000
  C   C1171     1.0  0.30573  0.38847  0.94056  1.0000
  C   C1172     1.0  0.44376  0.39461  0.95392  1.0000
  H   H2068     1.0  0.43304  0.37979  0.97216  1.0000
  H   H2069     1.0  0.21289  0.44643  0.90709  1.0000
  C   C1173     1.0  0.08006  0.38670  0.75318  1.0000
  H   H2070     1.0  0.44432  0.38359  0.97580  1.0000
  H   H2071     1.0  0.46111  0.36511  0.94166  1.0000
  H   H2072     1.0  0.43562  0.37377  0.95484  1.0000
  H   H2073     1.0  0.46404  0.38114  0.97200  1.0000
  C   C1174     1.0  0.44278  0.37802  0.97075  1.0000
  H   H2074     1.0  0.99770  0.42896  0.89937  1.0000
  H   H2075     1.0  0.34582  0.46097  0.95275  1.0000
  C   C1175     1.0  0.45286  0.36348  0.94808  1.0000
  H   H2076     1.0  0.42534  0.39813  0.96378  1.0000
  H   H2077     1.0  0.35751  0.38262  0.97979  1.0000
  H   H2078     1.0  0.27549  0.44804  0.95789  1.0000
  Fe  Fe132     1.0  0.33328  0.43731  0.93802  1.0000
  H   H2079     1.0  0.27603  0.45460  0.97582  1.0000
  Fe  Fe133     1.0  0.25629  0.40851  0.94366  1.0000
  S   S251      1.0  0.27039  0.39303  0.94929  1.0000
  H   H2080     1.0  0.11329  0.42438  0.81234  1.0000
  H   H2081     1.0  0.39199  0.41958  0.96791  1.0000
  C   C1176     1.0  0.40621  0.48018  0.98087  1.0000
  S   S252      1.0  0.33394  0.45512  0.92632  1.0000
  S   S253      1.0  0.25375  0.41399  0.92517  1.0000
  H   H2082     1.0  0.21610  0.46600  0.96883  1.0000
  H   H2083     1.0  0.13542  0.40847  0.94774  1.0000
  C   C1177     1.0  0.23818  0.48119  0.97589  1.0000
  S   S254      1.0  0.11300  0.45126  0.74425  1.0000
  C   C1178     1.0  0.12899  0.42222  0.81808  1.0000
  H   H2084     1.0  0.15196  0.44512  0.95658  1.0000
  H   H2085     1.0  0.12474  0.46163  0.93908  1.0000
  H   H2086     1.0  0.14729  0.40803  0.78329  1.0000
  H   H2087     1.0  0.02623  0.48237  0.83849  1.0000
  H   H2088     1.0  0.20773  0.45691  0.88235  1.0000
  S   S255      1.0  0.09543  0.47954  0.85856  1.0000
  C   C1179     1.0  0.09029  0.41263  0.79461  1.0000
  H   H2089     1.0  0.43514  0.46097  0.99020  1.0000
  C   C1180     1.0  0.43920  0.40618  0.98744  1.0000
  H   H2090     1.0  0.09230  0.48434  0.78638  1.0000
  S   S256      1.0  0.44154  0.42801  0.97397  1.0000
  Fe  Fe134     1.0  0.42171  0.43351  0.97745  1.0000
  H   H2091     1.0  0.33167  0.48006  0.92150  1.0000
  H   H2092     1.0  0.35684  0.45799  0.96110  1.0000
  S   S257      1.0  0.23716  0.40905  0.95168  1.0000
  H   H2093     1.0  0.40023  0.44582  0.92347  1.0000
  C   C1181     1.0  0.22528  0.47311  0.91741  1.0000
  H   H2094     1.0  0.46516  0.41416  0.97368  1.0000
  C   C1182     1.0  0.44669  0.36498  0.97673  1.0000
  C   C1183     1.0  0.12595  0.48612  0.79753  1.0000
  H   H2095     1.0  0.44367  0.35930  0.97303  1.0000
  H   H2096     1.0  0.35719  0.44750  0.89612  1.0000
  C   C1184     1.0  0.99997  0.41283  0.84194  1.0000
  S   S258      1.0  0.12293  0.45481  0.86660  1.0000
  C   C1185     1.0  0.45912  0.40872  0.97913  1.0000
  H   H2097     1.0  0.16578  0.44613  0.98978  1.0000
  C   C1186     1.0  0.28457  0.39566  0.94598  1.0000
  H   H2098     1.0  0.22596  0.43021  0.90106  1.0000
  Fe  Fe135     1.0  0.34630  0.41523  0.95224  1.0000
  C   C1187     1.0  0.21531  0.47272  0.98859  1.0000
  H   H2099     1.0  0.15320  0.43167  0.96782  1.0000
  H   H2100     1.0  0.13510  0.41677  0.95805  1.0000
  H   H2101     1.0  0.20899  0.46705  0.93990  1.0000
  H   H2102     1.0  0.47865  0.32411  0.98381  1.0000
  S   S259      1.0  0.25567  0.48520  0.93729  1.0000
  C   C1188     1.0  0.25660  0.46824  0.91269  1.0000
  H   H2103     1.0  0.04367  0.44060  0.83828  1.0000
  C   C1189     1.0  0.04059  0.40241  0.83064  1.0000
  H   H2104     1.0  0.12930  0.44588  0.90214  1.0000
  H   H2105     1.0  0.13345  0.48428  0.86297  1.0000
  H   H2106     1.0  0.14415  0.45376  0.87321  1.0000
  H   H2107     1.0  0.36078  0.44255  0.97853  1.0000
  H   H2108     1.0  0.43448  0.30989  0.98603  1.0000
  C   C1190     1.0  0.44695  0.41325  0.98042  1.0000
  C   C1191     1.0  0.07608  0.39816  0.74429  1.0000
  H   H2109     1.0  0.28220  0.39107  0.98564  1.0000
  S   S260      1.0  0.41197  0.42192  0.97448  1.0000
  H   H2110     1.0  0.12120  0.42941  0.93185  1.0000
  C   C1192     1.0  0.47734  0.32922  0.95431  1.0000
  H   H2111     1.0  0.31321  0.38144  0.93843  1.0000
  C   C1193     1.0  0.07158  0.48489  0.74836  1.0000
  C   C1194     1.0  0.26018  0.45648  0.91816  1.0000
  C   C1195     1.0  0.03222  0.46782  0.86925  1.0000
  C   C1196     1.0  0.13271  0.49068  0.85448  1.0000
  C   C1197     1.0  0.29434  0.38646  0.94388  1.0000
  H   H2112     1.0  0.10984  0.49300  0.76431  1.0000
  H   H2113     1.0  0.37997  0.43876  0.93657  1.0000
  C   C1198     1.0  0.26830  0.41340  0.98548  1.0000
  H   H2114     1.0  0.45637  0.36226  0.97569  1.0000
  H   H2115     1.0  0.12304  0.42206  0.89233  1.0000
  Fe  Fe136     1.0  0.01150  0.40765  0.81386  1.0000
  H   H2116     1.0  0.08560  0.40800  0.79136  1.0000
  H   H2117     1.0  0.24521  0.41634  0.98400  1.0000
  H   H2118     1.0  0.14823  0.46976  0.95312  1.0000
  H   H2119     1.0  0.27167  0.47964  0.98728  1.0000
  H   H2120     1.0  0.00878  0.49022  0.87921  1.0000
  C   C1199     1.0  0.26362  0.45372  0.92884  1.0000
  H   H2121     1.0  0.08487  0.46781  0.76532  1.0000
  H   H2122     1.0  0.20257  0.40309  0.92607  1.0000
  Fe  Fe137     1.0  0.25140  0.43221  0.92734  1.0000
  C   C1200     1.0  0.31853  0.46242  0.94564  1.0000
  C   C1201     1.0  0.36167  0.47991  0.98262  1.0000
  H   H2123     1.0  0.04568  0.38539  0.82598  1.0000
  S   S261      1.0  0.16701  0.46483  0.90131  1.0000
  H   H2124     1.0  0.05179  0.42182  0.82887  1.0000
  C   C1202     1.0  0.02487  0.39201  0.76168  1.0000
  H   H2125     1.0  0.15675  0.40345  0.76382  1.0000
  H   H2126     1.0  0.08717  0.38765  0.75670  1.0000
  C   C1203     1.0  0.03039  0.38094  0.74627  1.0000
  H   H2127     1.0  0.08823  0.42212  0.79039  1.0000
  H   H2128     1.0  0.16992  0.43948  0.88890  1.0000
  H   H2129     1.0  0.29135  0.45522  0.97170  1.0000
  H   H2130     1.0  0.27879  0.41390  0.94680  1.0000
  C   C1204     1.0  0.15343  0.48415  0.95580  1.0000
  H   H2131     1.0  0.24581  0.44316  0.95895  1.0000
  C   C1205     1.0  0.30747  0.39953  0.93995  1.0000
  H   H2132     1.0  0.41100  0.47272  0.97695  1.0000
  C   C1206     1.0  0.38662  0.43031  0.95210  1.0000
  H   H2133     1.0  0.25464  0.48497  0.97561  1.0000
  C   C1207     1.0  0.40113  0.45493  0.91896  1.0000
  H   H2134     1.0  0.14860  0.46396  0.88603  1.0000
  Fe  Fe138     1.0  0.23447  0.41643  0.93332  1.0000
  H   H2135     1.0  0.37177  0.38359  0.98073  1.0000
  Fe  Fe139     1.0  0.32668  0.41414  0.94209  1.0000
  S   S262      1.0  0.17028  0.43770  0.92704  1.0000
  C   C1208     1.0  0.18503  0.43039  0.92679  1.0000
  C   C1209     1.0  0.11680  0.47025  0.88157  1.0000
  C   C1210     1.0  0.13970  0.46556  0.88502  1.0000
  C   C1211     1.0  0.22062  0.46969  0.90872  1.0000
  H   H2136     1.0  0.14322  0.46071  0.97445  1.0000
  C   C1212     1.0  0.37227  0.41457  0.95589  1.0000
  S   S263      1.0  0.33006  0.40813  0.96027  1.0000
  H   H2137     1.0  0.48314  0.38532  0.94939  1.0000
  C   C1213     1.0  0.28425  0.44233  0.95531  1.0000
  C   C1214     1.0  0.12487  0.39558  0.80222  1.0000
  C   C1215     1.0  0.02658  0.44109  0.82633  1.0000
  H   H2138     1.0  0.26684  0.44469  0.93288  1.0000
  H   H2139     1.0  0.37222  0.45104  0.90381  1.0000
  S   S264      1.0  0.23183  0.43520  0.93404  1.0000
  H   H2140     1.0  0.14534  0.37347  0.81609  1.0000
  H   H2141     1.0  0.08697  0.41148  0.80428  1.0000
  H   H2142     1.0  0.02323  0.46911  0.87429  1.0000
  C   C1216     1.0  0.14801  0.47374  0.97996  1.0000
  H   H2143     1.0  0.14414  0.39189  0.80104  1.0000
  C   C1217     1.0  0.18052  0.45163  0.97589  1.0000
  C   C1218     1.0  0.24909  0.44656  0.97401  1.0000
  H   H2144     1.0  0.03800  0.47649  0.87917  1.0000
  H   H2145     1.0  0.01306  0.44346  0.81678  1.0000
  C   C1219     1.0  0.03495  0.37156  0.76541  1.0000
  H   H2146     1.0  0.22785  0.46533  0.92432  1.0000
  H   H2147     1.0  0.12419  0.43716  0.88821  1.0000
  S   S265      1.0  0.30908  0.42999  0.97899  1.0000
  H   H2148     1.0  0.37992  0.40528  0.97082  1.0000
  S   S266      1.0  0.36264  0.40529  0.95882  1.0000
  Fe  Fe140     1.0  0.32120  0.42658  0.96207  1.0000
  H   H2149     1.0  0.21773  0.48232  0.95149  1.0000
  S   S267      1.0  0.31599  0.43194  0.94472  1.0000
  H   H2150     1.0  0.37181  0.48392  0.91051  1.0000
  S   S268      1.0  0.25924  0.44527  0.91226  1.0000
  H   H2151     1.0  0.21151  0.43438  0.92724  1.0000
  H   H2152     1.0  0.28619  0.44294  0.94571  1.0000
  H   H2153     1.0  0.12967  0.37492  0.81894  1.0000
  C   C1220     1.0  0.23193  0.46786  0.94750  1.0000
  C   C1221     1.0  0.08817  0.48421  0.80481  1.0000
  C   C1222     1.0  0.36287  0.45511  0.90713  1.0000
  C   C1223     1.0  0.99868  0.45204  0.74588  1.0000
  C   C1224     1.0  0.48410  0.31524  0.98319  1.0000
  C   C1225     1.0  0.99942  0.42117  0.75473  1.0000
  H   H2154     1.0  0.00108  0.39804  0.75814  1.0000
  H   H2155     1.0  0.11200  0.47727  0.80592  1.0000
  C   C1226     1.0  0.36351  0.38073  0.98582  1.0000
  H   H2156     1.0  0.23815  0.47497  0.86137  1.0000
  H   H2157     1.0  0.07332  0.48159  0.80003  1.0000
  H   H2158     1.0  0.17987  0.43622  0.99078  1.0000
  H   H2159     1.0  0.14728  0.47785  0.83733  1.0000
  H   H2160     1.0  0.14175  0.49213  0.85030  1.0000
  H   H2161     1.0  0.11925  0.47780  0.75219  1.0000
  H   H2162     1.0  0.37765  0.48965  0.95722  1.0000
  H   H2163     1.0  0.48462  0.26735  0.99106  1.0000
  C   C1227     1.0  0.49541  0.33623  0.94842  1.0000
  H   H2164     1.0  0.05406  0.44815  0.74531  1.0000
  H   H2165     1.0  0.06726  0.39844  0.74309  1.0000
  H   H2166     1.0  0.01775  0.48656  0.85782  1.0000
  H   H2167     1.0  0.00512  0.48689  0.84355  1.0000
  H   H2168     1.0  0.36115  0.42196  0.97970  1.0000
  C   C1228     1.0  0.35431  0.48780  0.92142  1.0000
  H   H2169     1.0  0.04074  0.47414  0.74230  1.0000
  C   C1229     1.0  0.23781  0.47925  0.86846  1.0000
  H   H2170     1.0  0.19675  0.47180  0.99102  1.0000
  N   N68       1.0  0.35718  0.49192  0.97550  1.0000
  H   H2171     1.0  0.30337  0.48278  0.91292  1.0000
  H   H2172     1.0  0.15320  0.48813  0.98265  1.0000
  S   S269      1.0  0.47918  0.34922  0.99080  1.0000
  C   C1230     1.0  0.46234  0.30792  0.99019  1.0000
  C   C1231     1.0  0.08156  0.47772  0.74276  1.0000
  C   C1232     1.0  0.31300  0.48828  0.98909  1.0000
  S   S270      1.0  0.19073  0.48341  0.88969  1.0000
  N   N69       1.0  0.10740  0.48803  0.78960  1.0000
  C   C1233     1.0  0.12952  0.48670  0.80839  1.0000
  H   H2173     1.0  0.20080  0.48749  0.94390  1.0000
  C   C1234     1.0  0.02207  0.49169  0.83506  1.0000
  C   C1235     1.0  0.24556  0.48986  0.97482  1.0000
  C   C1236     1.0  0.35488  0.40056  0.99127  1.0000
  H   H2174     1.0  0.25203  0.48623  0.91448  1.0000
  H   H2175     1.0  0.01271  0.49067  0.81668  1.0000
  H   H2176     1.0  0.10263  0.48958  0.74526  1.0000
  H   H2177     1.0  0.18540  0.48828  0.95060  1.0000
  H   H2178     1.0  0.22988  0.48656  0.86912  1.0000
  H   H2179     1.0  0.35008  0.48930  0.91399  1.0000
  H   H2180     1.0  0.19303  0.48912  0.91089  1.0000
  C   C1237     1.0  0.15473  0.48934  0.96420  1.0000
  C   C1238     1.0  0.34129  0.48977  0.96609  1.0000
  S   S271      1.0  0.15674  0.49100  0.94079  1.0000
  H   H2181     1.0  0.19700  0.49075  0.99110  1.0000
  H   H2182     1.0  0.99719  0.42888  0.75877  1.0000
  C   C1239     1.0  0.99758  0.45683  0.77413  1.0000
  C   C1240     1.0  0.37889  0.49244  0.96465  1.0000
  H   H2183     1.0  0.45271  0.49290  0.97978  1.0000
  H   H2184     1.0  0.14231  0.49293  0.87169  1.0000
  S   S272      1.0  0.30527  0.49292  0.95671  1.0000
  H   H2185     1.0  0.29315  0.41550  0.99188  1.0000
  H   H2186     1.0  0.29730  0.49301  0.98267  1.0000
  H   H2187     1.0  0.48416  0.69190  0.00458  1.0000
  S   S273      1.0  0.45294  0.67109  0.03023  1.0000
  H   H2188     1.0  0.43356  0.67085  0.08320  1.0000
  C   C1241     1.0  0.35206  0.53775  0.02012  1.0000
  C   C1242     1.0  0.01632  0.51259  0.08171  1.0000
  C   C1243     1.0  0.16596  0.52370  0.02502  1.0000
  H   H2189     1.0  0.00750  0.52353  0.20850  1.0000
  H   H2190     1.0  0.44539  0.66299  0.10421  1.0000
  Fe  Fe141     1.0  0.30292  0.53461  0.03266  1.0000
  H   H2191     1.0  0.40675  0.62911  0.00681  1.0000
  S   S274      1.0  0.31256  0.54857  0.02188  1.0000
  H   H2192     1.0  0.02626  0.55966  0.16754  1.0000
  H   H2193     1.0  0.14410  0.56648  0.99469  1.0000
  H   H2194     1.0  0.45902  0.69506  0.08677  1.0000
  H   H2195     1.0  0.00551  0.50204  0.10305  1.0000
  S   S275      1.0  0.28692  0.53359  0.02772  1.0000
  H   H2196     1.0  0.00368  0.56952  0.21191  1.0000
  Fe  Fe142     1.0  0.46271  0.67278  0.04254  1.0000
  S   S276      1.0  0.44932  0.66777  0.05882  1.0000
  S   S277      1.0  0.48139  0.66265  0.04152  1.0000
  S   S278      1.0  0.31197  0.51570  0.03332  1.0000
  S   S279      1.0  0.42950  0.68656  0.04540  1.0000
  H   H2197     1.0  0.44986  0.68123  0.09238  1.0000
  Fe  Fe143     1.0  0.44143  0.68719  0.05622  1.0000
  H   H2198     1.0  0.47697  0.65272  0.12044  1.0000
  Fe  Fe144     1.0  0.43890  0.66762  0.04631  1.0000
  S   S280      1.0  0.42905  0.65345  0.04973  1.0000
  S   S281      1.0  0.45566  0.69225  0.04092  1.0000
  C   C1244     1.0  0.10790  0.50873  0.23407  1.0000
  Fe  Fe145     1.0  0.22021  0.54866  0.01401  1.0000
  H   H2199     1.0  0.24247  0.57499  0.01019  1.0000
  S   S282      1.0  0.22518  0.55990  0.02275  1.0000
  Fe  Fe146     1.0  0.20157  0.53583  0.01576  1.0000
  H   H2200     1.0  0.10768  0.50250  0.19197  1.0000
  S   S283      1.0  0.18395  0.53226  0.02646  1.0000
  H   H2201     1.0  0.17285  0.49868  0.03481  1.0000
  H   H2202     1.0  0.43734  0.63746  0.08743  1.0000
  H   H2203     1.0  0.48888  0.69399  0.05454  1.0000
  H   H2204     1.0  0.04140  0.51227  0.22072  1.0000
  S   S284      1.0  0.21774  0.53052  0.02319  1.0000
  S   S285      1.0  0.20316  0.55448  0.00814  1.0000
  C   C1245     1.0  0.44131  0.70696  0.07261  1.0000
  H   H2205     1.0  0.26187  0.57979  0.99764  1.0000
  H   H2206     1.0  0.06829  0.51132  0.10031  1.0000
  C   C1246     1.0  0.46828  0.69069  0.08708  1.0000
  H   H2207     1.0  0.00970  0.52679  0.09061  1.0000
  H   H2208     1.0  0.05145  0.50994  0.22966  1.0000
  Fe  Fe147     1.0  0.07953  0.50786  0.19344  1.0000
  S   S286      1.0  0.08626  0.51997  0.19964  1.0000
  H   H2209     1.0  0.44955  0.65629  0.09162  1.0000
  C   C1247     1.0  0.41662  0.56223  0.99698  1.0000
  H   H2210     1.0  0.02002  0.54366  0.22046  1.0000
  H   H2211     1.0  0.00175  0.53543  0.22577  1.0000
  S   S287      1.0  0.47159  0.58648  0.99374  1.0000
  C   C1248     1.0  0.38880  0.63893  0.00990  1.0000
  C   C1249     1.0  0.46538  0.69669  0.00842  1.0000
  H   H2212     1.0  0.25787  0.49619  0.07969  1.0000
  C   C1250     1.0  0.47696  0.63675  0.00055  1.0000
  H   H2213     1.0  0.46232  0.67105  0.10601  1.0000
  C   C1251     1.0  0.30194  0.53437  0.99211  1.0000
  S   S288      1.0  0.04160  0.51789  0.18112  1.0000
  H   H2214     1.0  0.47598  0.60686  0.05403  1.0000
  C   C1252     1.0  0.17860  0.56287  0.99658  1.0000
  C   C1253     1.0  0.04795  0.54724  0.17093  1.0000
  H   H2215     1.0  0.46911  0.68831  0.09636  1.0000
  C   C1254     1.0  0.45388  0.67364  0.08807  1.0000
  S   S289      1.0  0.10953  0.49671  0.03714  1.0000
  C   C1255     1.0  0.47249  0.67978  0.08143  1.0000
  H   H2216     1.0  0.31312  0.52961  0.07162  1.0000
  C   C1256     1.0  0.14619  0.54813  0.00310  1.0000
  H   H2217     1.0  0.35320  0.55199  0.00492  1.0000
  H   H2218     1.0  0.39315  0.57962  0.00241  1.0000
  C   C1257     1.0  0.07525  0.53374  0.22860  1.0000
  S   S290      1.0  0.21118  0.52948  0.99921  1.0000
  Fe  Fe148     1.0  0.44445  0.69006  0.03022  1.0000
  H   H2219     1.0  0.08420  0.53868  0.21052  1.0000
  H   H2220     1.0  0.47480  0.59705  0.08156  1.0000
  H   H2221     1.0  0.28698  0.57756  0.03463  1.0000
  H   H2222     1.0  0.03482  0.50157  0.20284  1.0000
  H   H2223     1.0  0.99945  0.53702  0.24054  1.0000
  H   H2224     1.0  0.47209  0.61960  0.03725  1.0000
  C   C1258     1.0  0.02306  0.52603  0.23185  1.0000
  C   C1259     1.0  0.24006  0.58720  0.99412  1.0000
  H   H2225     1.0  0.42041  0.60049  0.99556  1.0000
  H   H2226     1.0  0.33492  0.55859  0.06566  1.0000
  C   C1260     1.0  0.02132  0.51364  0.17989  1.0000
  S   S291      1.0  0.13321  0.49579  0.00699  1.0000
  H   H2227     1.0  0.02686  0.54432  0.17052  1.0000
  H   H2228     1.0  0.01754  0.55782  0.19762  1.0000
  C   C1261     1.0  0.24002  0.49824  0.01378  1.0000
  H   H2229     1.0  0.29785  0.57255  0.05029  1.0000
  H   H2230     1.0  0.19862  0.51378  0.03853  1.0000
  H   H2231     1.0  0.26635  0.53597  0.01564  1.0000
  H   H2232     1.0  0.00255  0.51648  0.12823  1.0000
  H   H2233     1.0  0.26819  0.52023  0.00582  1.0000
  C   C1262     1.0  0.00649  0.51371  0.11974  1.0000
  H   H2234     1.0  0.23346  0.50860  0.02699  1.0000
  C   C1263     1.0  0.17613  0.52786  0.01892  1.0000
  C   C1264     1.0  0.18023  0.52805  0.00693  1.0000
  H   H2235     1.0  0.25115  0.49679  0.04270  1.0000
  H   H2236     1.0  0.04847  0.55549  0.16415  1.0000
  H   H2237     1.0  0.21741  0.51229  0.05038  1.0000
  H   H2238     1.0  0.41211  0.70459  0.06077  1.0000
  H   H2239     1.0  0.46981  0.64076  0.12351  1.0000
  H   H2240     1.0  0.48673  0.63719  0.08082  1.0000
  H   H2241     1.0  0.45261  0.67692  0.07889  1.0000
  C   C1265     1.0  0.26556  0.49981  0.02813  1.0000
  C   C1266     1.0  0.48674  0.72194  0.02254  1.0000
  C   C1267     1.0  0.04521  0.53360  0.21312  1.0000
  C   C1268     1.0  0.06854  0.49488  0.13266  1.0000
  N   N70       1.0  0.01368  0.55356  0.18315  1.0000
  S   S292      1.0  0.44143  0.70240  0.01338  1.0000
  H   H2242     1.0  0.10966  0.50677  0.11359  1.0000
  C   C1269     1.0  0.27864  0.55886  0.99765  1.0000
  C   C1270     1.0  0.07040  0.51467  0.23438  1.0000
  C   C1271     1.0  0.40572  0.71123  0.05594  1.0000
  C   C1272     1.0  0.25065  0.54213  0.04707  1.0000
  C   C1273     1.0  0.24223  0.55243  0.04882  1.0000
  C   C1274     1.0  0.23430  0.55765  0.04145  1.0000
  C   C1275     1.0  0.23434  0.55231  0.03263  1.0000
  C   C1276     1.0  0.24233  0.54163  0.03125  1.0000
  C   C1277     1.0  0.25067  0.53665  0.03833  1.0000
  H   H2243     1.0  0.24211  0.55663  0.05564  1.0000
  H   H2244     1.0  0.22814  0.56588  0.04257  1.0000
  H   H2245     1.0  0.24233  0.53742  0.02450  1.0000
  H   H2246     1.0  0.25705  0.52857  0.03709  1.0000
  C   C1278     1.0  0.30211  0.56882  0.04237  1.0000
  H   H2247     1.0  0.26747  0.55142  0.02067  1.0000
  H   H2248     1.0  0.48182  0.71534  0.04135  1.0000
  Fe  Fe149     1.0  0.08282  0.49532  0.17373  1.0000
  C   C1279     1.0  0.48454  0.72090  0.01094  1.0000
  C   C1280     1.0  0.42120  0.63431  0.03197  1.0000
  C   C1281     1.0  0.42071  0.64090  0.03995  1.0000
  C   C1282     1.0  0.42998  0.64609  0.03876  1.0000
  C   C1283     1.0  0.43992  0.64451  0.02952  1.0000
  H   H2249     1.0  0.32741  0.56616  0.08383  1.0000
  H   H2250     1.0  0.41384  0.63055  0.03290  1.0000
  H   H2251     1.0  0.41303  0.64203  0.04706  1.0000
  H   H2252     1.0  0.44711  0.64852  0.02851  1.0000
  H   H2253     1.0  0.35926  0.49616  0.00681  1.0000
  C   C1284     1.0  0.01660  0.53919  0.22961  1.0000
  H   H2254     1.0  0.43562  0.53341  0.00382  1.0000
  C   C1285     1.0  0.33536  0.55016  0.01214  1.0000
  C   C1286     1.0  0.32781  0.54381  0.02084  1.0000
  C   C1287     1.0  0.33243  0.53424  0.02906  1.0000
  C   C1288     1.0  0.34453  0.53132  0.02880  1.0000
  S   S293      1.0  0.44321  0.57200  0.00330  1.0000
  C   C1289     1.0  0.02824  0.50366  0.19773  1.0000
  H   H2255     1.0  0.32665  0.52936  0.03587  1.0000
  H   H2256     1.0  0.34806  0.52412  0.03533  1.0000
  H   H2257     1.0  0.05239  0.52607  0.21069  1.0000
  C   C1290     1.0  0.47651  0.69561  0.00092  1.0000
  C   C1291     1.0  0.43764  0.71090  0.08313  1.0000
  H   H2258     1.0  0.24171  0.56860  0.99874  1.0000
  C   C1292     1.0  0.45049  0.73224  0.01810  1.0000
  H   H2259     1.0  0.42803  0.66309  0.09780  1.0000
  C   C1293     1.0  0.07484  0.51323  0.22272  1.0000
  C   C1294     1.0  0.42101  0.52523  0.01142  1.0000
  C   C1295     1.0  0.02562  0.55173  0.17480  1.0000
  C   C1296     1.0  0.47985  0.71464  0.03323  1.0000
  H   H2260     1.0  0.38753  0.61463  0.01682  1.0000
  H   H2261     1.0  0.05559  0.54480  0.17510  1.0000
  C   C1297     1.0  0.44608  0.66468  0.09460  1.0000
  H   H2262     1.0  0.31860  0.52450  0.05801  1.0000
  H   H2263     1.0  0.47986  0.58859  0.07021  1.0000
  H   H2264     1.0  0.39421  0.59374  0.01656  1.0000
  C   C1298     1.0  0.48536  0.68024  0.04892  1.0000
  H   H2265     1.0  0.12314  0.50160  0.08936  1.0000
  H   H2266     1.0  0.45187  0.65672  0.00082  1.0000
  C   C1299     1.0  0.48986  0.64448  0.07388  1.0000
  H   H2267     1.0  0.26402  0.49351  0.99892  1.0000
  H   H2268     1.0  0.47664  0.68502  0.04800  1.0000
  H   H2269     1.0  0.46962  0.66317  0.07212  1.0000
  H   H2270     1.0  0.47766  0.66696  0.10028  1.0000
  H   H2271     1.0  0.46469  0.69350  0.01770  1.0000
  C   C1300     1.0  0.20826  0.51357  0.05576  1.0000
  H   H2272     1.0  0.33474  0.49884  0.06765  1.0000
  H   H2273     1.0  0.09879  0.50426  0.08323  1.0000
  C   C1301     1.0  0.26323  0.56017  0.01611  1.0000
  C   C1302     1.0  0.02983  0.51093  0.18650  1.0000
  S   S294      1.0  0.43461  0.69642  0.07133  1.0000
  C   C1303     1.0  0.43254  0.65529  0.99474  1.0000
  C   C1304     1.0  0.18263  0.50024  0.04680  1.0000
  C   C1305     1.0  0.01324  0.56234  0.19008  1.0000
  C   C1306     1.0  0.26337  0.56860  0.03293  1.0000
  H   H2274     1.0  0.30037  0.57346  0.02414  1.0000
  H   H2275     1.0  0.41972  0.72348  0.03771  1.0000
  S   S295      1.0  0.24138  0.51025  0.00197  1.0000
  C   C1307     1.0  0.20232  0.50415  0.05547  1.0000
  H   H2276     1.0  0.05651  0.50678  0.14323  1.0000
  H   H2277     1.0  0.38849  0.64155  0.00045  1.0000
  C   C1308     1.0  0.34120  0.49518  0.05017  1.0000
  H   H2278     1.0  0.48310  0.62651  0.04898  1.0000
  H   H2279     1.0  0.25373  0.56097  0.02016  1.0000
  C   C1309     1.0  0.06506  0.50084  0.14186  1.0000
  C   C1310     1.0  0.39808  0.62756  0.01223  1.0000
  C   C1311     1.0  0.45530  0.70180  0.00389  1.0000
  H   H2280     1.0  0.20755  0.49552  0.05924  1.0000
  H   H2281     1.0  0.07446  0.50543  0.22041  1.0000
  H   H2282     1.0  0.26649  0.55962  0.03799  1.0000
  H   H2283     1.0  0.20855  0.51303  0.06495  1.0000
  H   H2284     1.0  0.43415  0.66528  0.01208  1.0000
  C   C1312     1.0  0.48601  0.63440  0.03057  1.0000
  H   H2285     1.0  0.45575  0.61523  0.03435  1.0000
  H   H2286     1.0  0.18124  0.49848  0.05648  1.0000
  H   H2287     1.0  0.47030  0.72217  0.99561  1.0000
  H   H2288     1.0  0.08780  0.50213  0.10489  1.0000
  H   H2289     1.0  0.26689  0.57485  0.03536  1.0000
  H   H2290     1.0  0.42354  0.52151  0.02003  1.0000
  H   H2291     1.0  0.32207  0.49376  0.01566  1.0000
  H   H2292     1.0  0.47024  0.71792  0.03387  1.0000
  H   H2293     1.0  0.01840  0.56897  0.18452  1.0000
  C   C1313     1.0  0.17436  0.52396  0.00106  1.0000
  H   H2294     1.0  0.02786  0.50228  0.24019  1.0000
  C   C1314     1.0  0.48983  0.66909  0.04630  1.0000
  C   C1315     1.0  0.34747  0.54702  0.01168  1.0000
  H   H2295     1.0  0.42654  0.71687  0.04988  1.0000
  S   S296      1.0  0.36710  0.53435  0.02009  1.0000
  H   H2296     1.0  0.42956  0.67795  0.09547  1.0000
  H   H2297     1.0  0.30083  0.56135  0.99755  1.0000
  C   C1316     1.0  0.38735  0.58849  0.00050  1.0000
  H   H2298     1.0  0.99866  0.53374  0.10563  1.0000
  H   H2299     1.0  0.11847  0.50228  0.07313  1.0000
  H   H2300     1.0  0.46195  0.63341  0.03712  1.0000
  H   H2301     1.0  0.40640  0.72515  0.06301  1.0000
  H   H2302     1.0  0.49017  0.65633  0.00707  1.0000
  H   H2303     1.0  0.48889  0.62066  0.99709  1.0000
  C   C1317     1.0  0.43120  0.63237  0.02298  1.0000
  H   H2304     1.0  0.05060  0.53059  0.22929  1.0000
  H   H2305     1.0  0.33957  0.57399  0.04388  1.0000
  C   C1318     1.0  0.39503  0.61709  0.00962  1.0000
  C   C1319     1.0  0.26772  0.53818  0.00595  1.0000
  C   C1320     1.0  0.47208  0.66003  0.08084  1.0000
  N   N71       1.0  0.19546  0.49655  0.04106  1.0000
  C   C1321     1.0  0.04964  0.54478  0.20669  1.0000
  H   H2306     1.0  0.10666  0.51497  0.22564  1.0000
  H   H2307     1.0  0.41454  0.53372  0.01194  1.0000
  H   H2308     1.0  0.11491  0.50271  0.21295  1.0000
  S   S297      1.0  0.48372  0.59023  0.01990  1.0000
  H   H2309     1.0  0.05258  0.54495  0.19713  1.0000
  H   H2310     1.0  0.35851  0.55950  0.03869  1.0000
  H   H2311     1.0  0.01616  0.49461  0.21150  1.0000
  C   C1322     1.0  0.32688  0.53782  0.05899  1.0000
  H   H2312     1.0  0.30956  0.56865  0.06219  1.0000
  H   H2313     1.0  0.32737  0.51985  0.06885  1.0000
  H   H2314     1.0  0.32149  0.55412  0.07437  1.0000
  H   H2315     1.0  0.99781  0.57667  0.18747  1.0000
  C   C1323     1.0  0.05665  0.49656  0.06242  1.0000
  H   H2316     1.0  0.47225  0.70771  0.08433  1.0000
  H   H2317     1.0  0.09332  0.50219  0.23439  1.0000
  H   H2318     1.0  0.43716  0.64651  0.07293  1.0000
  C   C1324     1.0  0.48926  0.62870  0.99941  1.0000
  C   C1325     1.0  0.01099  0.50949  0.18468  1.0000
  H   H2319     1.0  0.01771  0.54403  0.23555  1.0000
  H   H2320     1.0  0.47062  0.63216  0.00751  1.0000
  H   H2321     1.0  0.03679  0.54070  0.18717  1.0000
  C   C1326     1.0  0.24543  0.57502  0.00068  1.0000
  C   C1327     1.0  0.44063  0.63743  0.02176  1.0000
  H   H2322     1.0  0.17951  0.50996  0.04411  1.0000
  C   C1328     1.0  0.20891  0.49711  0.02009  1.0000
  H   H2323     1.0  0.40239  0.60187  0.02747  1.0000
  H   H2324     1.0  0.49133  0.62604  0.00820  1.0000
  C   C1329     1.0  0.26759  0.56913  0.01973  1.0000
  H   H2325     1.0  0.43094  0.58127  0.03264  1.0000
  Fe  Fe150     1.0  0.05848  0.50678  0.18582  1.0000
  H   H2326     1.0  0.35736  0.57313  0.02784  1.0000
  H   H2327     1.0  0.13605  0.55909  0.01569  1.0000
  C   C1330     1.0  0.00207  0.51170  0.10161  1.0000
  H   H2328     1.0  0.26492  0.50077  0.05076  1.0000
  H   H2329     1.0  0.03751  0.53369  0.20989  1.0000
  H   H2330     1.0  0.44225  0.72694  0.04211  1.0000
  H   H2331     1.0  0.47384  0.64087  0.04510  1.0000
  H   H2332     1.0  0.20343  0.50582  0.00362  1.0000
  C   C1331     1.0  0.00904  0.50285  0.19617  1.0000
  H   H2333     1.0  0.47362  0.61450  0.06522  1.0000
  S   S298      1.0  0.45122  0.59311  0.01641  1.0000
  H   H2334     1.0  0.40765  0.58844  0.00699  1.0000
  C   C1332     1.0  0.42546  0.56295  0.00199  1.0000
  H   H2335     1.0  0.01235  0.54907  0.16120  1.0000
  C   C1333     1.0  0.47774  0.63221  0.04262  1.0000
  C   C1334     1.0  0.07993  0.52183  0.21412  1.0000
  C   C1335     1.0  0.32528  0.56161  0.06862  1.0000
  S   S299      1.0  0.23101  0.54405  0.99694  1.0000
  C   C1336     1.0  0.41951  0.59149  0.02078  1.0000
  H   H2336     1.0  0.31364  0.57365  0.07963  1.0000
  H   H2337     1.0  0.00898  0.51224  0.22841  1.0000
  C   C1337     1.0  0.11496  0.50229  0.09635  1.0000
  H   H2338     1.0  0.49039  0.62595  0.02783  1.0000
  C   C1338     1.0  0.26335  0.52927  0.00251  1.0000
  C   C1339     1.0  0.16434  0.51957  0.00716  1.0000
  H   H2339     1.0  0.99741  0.52498  0.19946  1.0000
  H   H2340     1.0  0.48657  0.64553  0.06591  1.0000
  S   S300      1.0  0.15679  0.51511  0.99941  1.0000
  S   S301      1.0  0.07449  0.51379  0.17595  1.0000
  N   N72       1.0  0.46688  0.66947  0.08790  1.0000
  H   H2341     1.0  0.33029  0.53956  0.06568  1.0000
  C   C1340     1.0  0.47199  0.59264  0.07628  1.0000
  H   H2342     1.0  0.40675  0.70906  0.04735  1.0000
  H   H2343     1.0  0.01929  0.50286  0.08358  1.0000
  C   C1341     1.0  0.00343  0.54044  0.23122  1.0000
  H   H2344     1.0  0.46105  0.65539  0.12405  1.0000
  C   C1342     1.0  0.32109  0.52736  0.06471  1.0000
  S   S302      1.0  0.30989  0.50065  0.06680  1.0000
  H   H2345     1.0  0.07523  0.54179  0.23077  1.0000
  S   S303      1.0  0.43092  0.62433  0.01306  1.0000
  Fe  Fe151     1.0  0.27946  0.52915  0.04703  1.0000
  H   H2346     1.0  0.31629  0.54596  0.04641  1.0000
  H   H2347     1.0  0.48498  0.69626  0.08058  1.0000
  C   C1343     1.0  0.33516  0.55789  0.04313  1.0000
  H   H2348     1.0  0.44104  0.64879  0.99494  1.0000
  C   C1344     1.0  0.43356  0.66946  0.09263  1.0000
  C   C1345     1.0  0.01238  0.54184  0.19119  1.0000
  Fe  Fe152     1.0  0.44690  0.61138  0.00573  1.0000
  H   H2349     1.0  0.01431  0.53503  0.18601  1.0000
  H   H2350     1.0  0.46096  0.72427  0.05781  1.0000
  H   H2351     1.0  0.35973  0.50062  0.02622  1.0000
  C   C1346     1.0  0.40971  0.60289  0.01954  1.0000
  H   H2352     1.0  0.47686  0.64486  0.00309  1.0000
  H   H2353     1.0  0.00828  0.58145  0.20021  1.0000
  C   C1347     1.0  0.49276  0.66245  0.01062  1.0000
  H   H2354     1.0  0.45002  0.64332  0.07897  1.0000
  H   H2355     1.0  0.31925  0.56394  0.03117  1.0000
  H   H2356     1.0  0.46837  0.65216  0.08512  1.0000
  C   C1348     1.0  0.45272  0.66516  0.99443  1.0000
  C   C1349     1.0  0.35365  0.56519  0.03189  1.0000
  C   C1350     1.0  0.42172  0.68178  0.00793  1.0000
  H   H2357     1.0  0.06258  0.50203  0.05601  1.0000
  H   H2358     1.0  0.29983  0.56020  0.04398  1.0000
  H   H2359     1.0  0.34414  0.50359  0.04698  1.0000
  C   C1351     1.0  0.01233  0.51708  0.09310  1.0000
  H   H2360     1.0  0.40697  0.68685  0.02194  1.0000
  H   H2361     1.0  0.13611  0.54367  0.02089  1.0000
  H   H2362     1.0  0.06661  0.50795  0.24104  1.0000
  H   H2363     1.0  0.10799  0.50955  0.09306  1.0000
  H   H2364     1.0  0.42705  0.59684  0.03224  1.0000
  H   H2365     1.0  0.26027  0.50079  0.02168  1.0000
  Fe  Fe153     1.0  0.14893  0.49968  0.01006  1.0000
  H   H2366     1.0  0.41607  0.67868  0.00427  1.0000
  H   H2367     1.0  0.28118  0.57587  0.99894  1.0000
  H   H2368     1.0  0.31714  0.57665  0.03659  1.0000
  H   H2369     1.0  0.02382  0.51636  0.07586  1.0000
  C   C1352     1.0  0.16011  0.51949  0.01916  1.0000
  C   C1353     1.0  0.31914  0.56714  0.05819  1.0000
  H   H2370     1.0  0.30968  0.54993  0.06018  1.0000
  H   H2371     1.0  0.26538  0.50872  0.02901  1.0000
  H   H2372     1.0  0.47113  0.68279  0.07226  1.0000
  H   H2373     1.0  0.24276  0.59412  0.99641  1.0000
  H   H2374     1.0  0.42118  0.68484  0.02491  1.0000
  H   H2375     1.0  0.33185  0.55752  0.00573  1.0000
  C   C1354     1.0  0.13575  0.55112  0.01313  1.0000
  S   S304      1.0  0.29465  0.53225  0.05192  1.0000
  C   C1355     1.0  0.26109  0.55098  0.00154  1.0000
  C   C1356     1.0  0.41607  0.68135  0.02095  1.0000
  H   H2376     1.0  0.34748  0.52159  0.00900  1.0000
  C   C1357     1.0  0.08537  0.49918  0.09822  1.0000
  H   H2377     1.0  0.48240  0.70523  0.03273  1.0000
  S   S305      1.0  0.26100  0.53647  0.05597  1.0000
  H   H2378     1.0  0.00586  0.56694  0.16989  1.0000
  H   H2379     1.0  0.48821  0.72164  0.07095  1.0000
  H   H2380     1.0  0.43837  0.51852  0.00218  1.0000
  S   S306      1.0  0.06287  0.50212  0.20352  1.0000
  H   H2381     1.0  0.00442  0.51167  0.17960  1.0000
  C   C1358     1.0  0.41997  0.72464  0.04638  1.0000
  H   H2382     1.0  0.27103  0.50539  0.08421  1.0000
  N   N73       1.0  0.40503  0.60644  0.00847  1.0000
  H   H2383     1.0  0.12055  0.51407  0.10311  1.0000
  H   H2384     1.0  0.39670  0.71076  0.06121  1.0000
  C   C1359     1.0  0.46889  0.61134  0.06052  1.0000
  C   C1360     1.0  0.04192  0.51166  0.22988  1.0000
  H   H2385     1.0  0.04860  0.54007  0.16660  1.0000
  C   C1361     1.0  0.43438  0.67414  0.00634  1.0000
  H   H2386     1.0  0.33151  0.49384  0.03084  1.0000
  C   C1362     1.0  0.41493  0.60889  0.99796  1.0000
  H   H2387     1.0  0.39109  0.64609  0.01222  1.0000
  H   H2388     1.0  0.26431  0.57826  0.01517  1.0000
  C   C1363     1.0  0.35228  0.50253  0.01139  1.0000
  N   N74       1.0  0.26556  0.56073  0.00311  1.0000
  H   H2389     1.0  0.19140  0.50753  0.02467  1.0000
  C   C1364     1.0  0.29661  0.57696  0.03228  1.0000
  Fe  Fe154     1.0  0.30223  0.51313  0.05214  1.0000
  S   S307      1.0  0.46561  0.61296  0.99980  1.0000
  H   H2390     1.0  0.49288  0.63851  0.03105  1.0000
  H   H2391     1.0  0.30561  0.52579  0.00914  1.0000
  H   H2392     1.0  0.47464  0.70261  0.07109  1.0000
  H   H2393     1.0  0.01731  0.49685  0.11514  1.0000
  C   C1365     1.0  0.31817  0.54873  0.05356  1.0000
  C   C1366     1.0  0.10232  0.49817  0.23587  1.0000
  H   H2394     1.0  0.33691  0.55283  0.03623  1.0000
  C   C1367     1.0  0.32321  0.57045  0.07622  1.0000
  N   N75       1.0  0.32217  0.56021  0.04877  1.0000
  N   N76       1.0  0.46082  0.62164  0.05430  1.0000
  C   C1368     1.0  0.45064  0.61827  0.05230  1.0000
  C   C1369     1.0  0.45606  0.63139  0.06102  1.0000
  H   H2395     1.0  0.46781  0.58553  0.08237  1.0000
  H   H2396     1.0  0.43106  0.70730  0.09021  1.0000
  C   C1370     1.0  0.46322  0.60142  0.06938  1.0000
  C   C1371     1.0  0.45394  0.61007  0.04355  1.0000
  H   H2397     1.0  0.43931  0.67794  0.01024  1.0000
  C   C1372     1.0  0.44786  0.62868  0.07329  1.0000
  H   H2398     1.0  0.41634  0.58363  0.02128  1.0000
  C   C1373     1.0  0.34052  0.56883  0.03731  1.0000
  C   C1374     1.0  0.44387  0.60426  0.04495  1.0000
  H   H2399     1.0  0.42899  0.72849  0.06169  1.0000
  H   H2400     1.0  0.44430  0.62627  0.04894  1.0000
  H   H2401     1.0  0.44542  0.61409  0.06068  1.0000
  H   H2402     1.0  0.46336  0.63413  0.06261  1.0000
  H   H2403     1.0  0.45125  0.63934  0.05564  1.0000
  C   C1375     1.0  0.40764  0.72356  0.05416  1.0000
  H   H2404     1.0  0.05728  0.54498  0.20987  1.0000
  H   H2405     1.0  0.00791  0.49554  0.12971  1.0000
  C   C1376     1.0  0.20867  0.49727  0.00758  1.0000
  H   H2406     1.0  0.46044  0.59642  0.06467  1.0000
  H   H2407     1.0  0.45537  0.60485  0.07577  1.0000
  C   C1377     1.0  0.11765  0.50563  0.10639  1.0000
  C   C1378     1.0  0.00451  0.55836  0.17580  1.0000
  H   H2408     1.0  0.48041  0.74295  0.00312  1.0000
  C   C1379     1.0  0.46786  0.62659  0.04240  1.0000
  H   H2409     1.0  0.44028  0.62554  0.07295  1.0000
  H   H2410     1.0  0.42733  0.65514  0.00388  1.0000
  H   H2411     1.0  0.47740  0.64658  0.10232  1.0000
  H   H2412     1.0  0.42729  0.55666  0.00989  1.0000
  H   H2413     1.0  0.39845  0.62570  0.02162  1.0000
  C   C1380     1.0  0.43192  0.52709  0.00172  1.0000
  C   C1381     1.0  0.45067  0.72450  0.07544  1.0000
  H   H2414     1.0  0.03642  0.55609  0.18425  1.0000
  H   H2415     1.0  0.43597  0.61101  0.04285  1.0000
  H   H2416     1.0  0.44660  0.59820  0.03886  1.0000
  H   H2417     1.0  0.44162  0.59904  0.05403  1.0000
  H   H2418     1.0  0.47120  0.73728  0.99214  1.0000
  H   H2419     1.0  0.46177  0.64939  0.10576  1.0000
  H   H2420     1.0  0.47508  0.72492  0.01133  1.0000
  H   H2421     1.0  0.33628  0.57457  0.03009  1.0000
  H   H2422     1.0  0.16265  0.52365  0.03428  1.0000
  C   C1382     1.0  0.30203  0.52527  0.00217  1.0000
  H   H2423     1.0  0.37999  0.63780  0.01532  1.0000
  C   C1383     1.0  0.47553  0.69985  0.08036  1.0000
  C   C1384     1.0  0.43191  0.57176  0.99687  1.0000
  H   H2424     1.0  0.48563  0.71142  0.01116  1.0000
  H   H2425     1.0  0.48470  0.66896  0.01363  1.0000
  Fe  Fe155     1.0  0.47013  0.59413  0.00907  1.0000
  H   H2426     1.0  0.33127  0.51619  0.99439  1.0000
  C   C1385     1.0  0.45441  0.72061  0.06484  1.0000
  C   C1386     1.0  0.44244  0.71944  0.08460  1.0000
  H   H2427     1.0  0.17858  0.55479  0.00369  1.0000
  H   H2428     1.0  0.04740  0.50108  0.06197  1.0000
  H   H2429     1.0  0.23030  0.58873  0.99671  1.0000
  Fe  Fe156     1.0  0.22748  0.52619  0.00567  1.0000
  H   H2430     1.0  0.44831  0.63609  0.01470  1.0000
  C   C1387     1.0  0.48900  0.72291  0.06136  1.0000
  H   H2431     1.0  0.41356  0.60989  0.02020  1.0000
  H   H2432     1.0  0.48106  0.64040  0.02398  1.0000
  H   H2433     1.0  0.03749  0.54114  0.22861  1.0000
  H   H2434     1.0  0.01278  0.51945  0.11485  1.0000
  C   C1388     1.0  0.08027  0.53200  0.21714  1.0000
  C   C1389     1.0  0.00089  0.50839  0.15685  1.0000
  H   H2435     1.0  0.33224  0.49673  0.04867  1.0000
  C   C1390     1.0  0.49226  0.68528  0.05271  1.0000
  H   H2436     1.0  0.15432  0.54653  0.00628  1.0000
  S   S308      1.0  0.05894  0.49734  0.12335  1.0000
  H   H2437     1.0  0.45280  0.70871  0.05536  1.0000
  H   H2438     1.0  0.11744  0.50593  0.23388  1.0000
  H   H2439     1.0  0.45612  0.72397  0.02199  1.0000
  H   H2440     1.0  0.19334  0.50576  0.06111  1.0000
  C   C1391     1.0  0.46928  0.65023  0.11938  1.0000
  C   C1392     1.0  0.07255  0.49904  0.14942  1.0000
  H   H2441     1.0  0.42810  0.74204  0.07622  1.0000
  H   H2442     1.0  0.01746  0.52117  0.23946  1.0000
  H   H2443     1.0  0.45291  0.62205  0.07945  1.0000
  H   H2444     1.0  0.42464  0.64217  0.99286  1.0000
  H   H2445     1.0  0.48377  0.73123  0.02347  1.0000
  H   H2446     1.0  0.27744  0.49729  0.99716  1.0000
  H   H2447     1.0  0.25173  0.55145  0.00629  1.0000
  H   H2448     1.0  0.43957  0.72233  0.09283  1.0000
  H   H2449     1.0  0.00973  0.50906  0.15713  1.0000
  H   H2450     1.0  0.99959  0.54603  0.20697  1.0000
  C   C1393     1.0  0.46931  0.65237  0.10637  1.0000
  H   H2451     1.0  0.25382  0.52985  0.00640  1.0000
  H   H2452     1.0  0.25361  0.57110  0.03538  1.0000
  H   H2453     1.0  0.34360  0.50304  0.00980  1.0000
  H   H2454     1.0  0.02092  0.50535  0.13522  1.0000
  H   H2455     1.0  0.02005  0.51459  0.09716  1.0000
  C   C1394     1.0  0.09622  0.49593  0.08835  1.0000
  C   C1395     1.0  0.04214  0.53240  0.22664  1.0000
  C   C1396     1.0  0.10931  0.49621  0.21535  1.0000
  H   H2456     1.0  0.17864  0.57017  0.00037  1.0000
  H   H2457     1.0  0.26570  0.50421  0.06661  1.0000
  H   H2458     1.0  0.48410  0.71722  0.05996  1.0000
  H   H2459     1.0  0.28373  0.55254  0.00403  1.0000
  C   C1397     1.0  0.42370  0.58928  0.03210  1.0000
  C   C1398     1.0  0.00195  0.50729  0.23183  1.0000
  H   H2460     1.0  0.42716  0.59220  0.01323  1.0000
  C   C1399     1.0  0.19633  0.49855  0.02802  1.0000
  H   H2461     1.0  0.41570  0.67218  0.02579  1.0000
  N   N77       1.0  0.03542  0.52308  0.23370  1.0000
  H   H2462     1.0  0.15822  0.50605  0.05188  1.0000
  H   H2463     1.0  0.32714  0.57806  0.07106  1.0000
  H   H2464     1.0  0.02295  0.52290  0.22410  1.0000
  C   C1400     1.0  0.46903  0.66549  0.10021  1.0000
  C   C1401     1.0  0.25906  0.57223  0.99678  1.0000
  C   C1402     1.0  0.44986  0.71171  0.06349  1.0000
  H   H2465     1.0  0.12732  0.55256  0.01051  1.0000
  H   H2466     1.0  0.37977  0.58945  0.00811  1.0000
  H   H2467     1.0  0.29815  0.58593  0.03055  1.0000
  C   C1403     1.0  0.40037  0.59633  0.00804  1.0000
  H   H2468     1.0  0.04254  0.55269  0.20807  1.0000
  C   C1404     1.0  0.03649  0.54890  0.18027  1.0000
  H   H2469     1.0  0.00904  0.51522  0.07703  1.0000
  S   S309      1.0  0.14270  0.49594  0.02959  1.0000
  H   H2470     1.0  0.05784  0.49574  0.07136  1.0000
  H   H2471     1.0  0.46194  0.60307  0.04478  1.0000
  C   C1405     1.0  0.00156  0.57605  0.20391  1.0000
  H   H2472     1.0  0.33456  0.53503  0.05205  1.0000
  H   H2473     1.0  0.34051  0.55220  0.04949  1.0000
  H   H2474     1.0  0.02260  0.51918  0.17115  1.0000
  S   S310      1.0  0.45623  0.73533  0.07789  1.0000
  C   C1406     1.0  0.31568  0.56756  0.03927  1.0000
  H   H2475     1.0  0.46400  0.66395  0.00615  1.0000
  S   S311      1.0  0.29600  0.50504  0.01628  1.0000
  H   H2476     1.0  0.35505  0.56034  0.02491  1.0000
  H   H2477     1.0  0.40075  0.72980  0.04975  1.0000
  H   H2478     1.0  0.18780  0.53155  0.00213  1.0000
  H   H2479     1.0  0.15997  0.56735  0.99877  1.0000
  C   C1407     1.0  0.35162  0.49923  0.02475  1.0000
  H   H2480     1.0  0.20324  0.52249  0.05231  1.0000
  C   C1408     1.0  0.26665  0.49618  0.07365  1.0000
  H   H2481     1.0  0.21281  0.50453  0.01950  1.0000
  H   H2482     1.0  0.14562  0.53986  0.00135  1.0000
  Fe  Fe157     1.0  0.29539  0.51439  0.02985  1.0000
  C   C1409     1.0  0.23563  0.49991  0.02529  1.0000
  H   H2483     1.0  0.45111  0.73214  0.00882  1.0000
  H   H2484     1.0  0.21146  0.50240  0.03819  1.0000
  H   H2485     1.0  0.43562  0.72469  0.02497  1.0000
  H   H2486     1.0  0.48490  0.73215  0.05778  1.0000
  H   H2487     1.0  0.27728  0.53686  0.00221  1.0000
  H   H2488     1.0  0.36304  0.51523  0.00810  1.0000
  H   H2489     1.0  0.01908  0.53858  0.19663  1.0000
  C   C1410     1.0  0.07601  0.50915  0.09314  1.0000
  H   H2490     1.0  0.32085  0.57610  0.05426  1.0000
  C   C1411     1.0  0.07038  0.52506  0.23727  1.0000
  C   C1412     1.0  0.35500  0.51465  0.00588  1.0000
  Fe  Fe158     1.0  0.45210  0.58721  0.00013  1.0000
  H   H2491     1.0  0.08796  0.50017  0.05458  1.0000
  H   H2492     1.0  0.34418  0.50603  0.02831  1.0000
  H   H2493     1.0  0.15218  0.51645  0.02387  1.0000
  H   H2494     1.0  0.41641  0.58790  0.03991  1.0000
  H   H2495     1.0  0.48967  0.66264  0.07132  1.0000
  C   C1413     1.0  0.29757  0.51556  0.00311  1.0000
  H   H2496     1.0  0.07953  0.51718  0.08884  1.0000
  H   H2497     1.0  0.48218  0.67716  0.08065  1.0000
  C   C1414     1.0  0.16200  0.49653  0.05221  1.0000
  H   H2498     1.0  0.06974  0.50364  0.15653  1.0000
  C   C1415     1.0  0.01360  0.50095  0.12288  1.0000
  C   C1416     1.0  0.42411  0.73689  0.05705  1.0000
  H   H2499     1.0  0.42186  0.69109  0.00362  1.0000
  C   C1417     1.0  0.20210  0.50452  0.04272  1.0000
  H   H2500     1.0  0.03067  0.50467  0.12095  1.0000
  H   H2501     1.0  0.48924  0.65466  0.08611  1.0000
  S   S312      1.0  0.28646  0.50979  0.04873  1.0000
  H   H2502     1.0  0.99909  0.54985  0.22868  1.0000
  N   N78       1.0  0.99708  0.51564  0.11314  1.0000
  H   H2503     1.0  0.07302  0.50648  0.08665  1.0000
  C   C1418     1.0  0.01777  0.49968  0.20260  1.0000
  C   C1419     1.0  0.48570  0.65592  0.07828  1.0000
  H   H2504     1.0  0.39141  0.62047  0.00162  1.0000
  H   H2505     1.0  0.27736  0.56698  0.01778  1.0000
  C   C1420     1.0  0.44282  0.63969  0.07844  1.0000
  C   C1421     1.0  0.02391  0.50063  0.12791  1.0000
  H   H2506     1.0  0.41683  0.51899  0.00976  1.0000
  N   N79       1.0  0.49194  0.72653  0.99968  1.0000
  H   H2507     1.0  0.35646  0.51633  0.99617  1.0000
  H   H2508     1.0  0.99882  0.50680  0.22427  1.0000
  C   C1422     1.0  0.03760  0.50050  0.23760  1.0000
  C   C1423     1.0  0.17412  0.49462  0.04390  1.0000
  H   H2509     1.0  0.12478  0.49876  0.10996  1.0000
  C   C1424     1.0  0.00677  0.49502  0.23856  1.0000
  C   C1425     1.0  0.11786  0.49439  0.07073  1.0000
  S   S313      1.0  0.39724  0.53731  0.99690  1.0000
  Fe  Fe159     1.0  0.37757  0.53966  0.00172  1.0000
  C   C1426     1.0  0.11599  0.49617  0.19355  1.0000
  C   C1427     1.0  0.27481  0.49731  0.08061  1.0000
  C   C1428     1.0  0.00411  0.55032  0.16806  1.0000
  H   H2510     1.0  0.29041  0.50714  0.99442  1.0000
  H   H2511     1.0  0.41517  0.73822  0.06278  1.0000
  H   H2512     1.0  0.49363  0.58438  0.99708  1.0000
  H   H2513     1.0  0.27476  0.49543  0.02462  1.0000
  H   H2514     1.0  0.43965  0.74240  0.03656  1.0000
  H   H2515     1.0  0.12989  0.49836  0.05396  1.0000
  N   N80       1.0  0.42379  0.73582  0.04507  1.0000
  C   C1429     1.0  0.43778  0.73295  0.02494  1.0000
  C   C1430     1.0  0.43621  0.73451  0.03763  1.0000
  H   H2516     1.0  0.38772  0.60660  0.99670  1.0000
  H   H2517     1.0  0.11033  0.49695  0.06638  1.0000
  H   H2518     1.0  0.10046  0.50157  0.21420  1.0000
  Fe  Fe160     1.0  0.21367  0.54786  0.99198  1.0000
  H   H2519     1.0  0.45758  0.67869  0.00037  1.0000
  N   N81       1.0  0.44074  0.67320  0.99391  1.0000
  H   H2520     1.0  0.99876  0.51383  0.14842  1.0000
  H   H2521     1.0  0.21779  0.49597  0.00215  1.0000
  C   C1431     1.0  0.46144  0.66999  0.99809  1.0000
  H   H2522     1.0  0.41160  0.55553  0.00111  1.0000
  C   C1432     1.0  0.00097  0.56982  0.19483  1.0000
  C   C1433     1.0  0.39413  0.59809  0.99799  1.0000
  C   C1434     1.0  0.48965  0.73963  0.99862  1.0000
  H   H2523     1.0  0.22827  0.49330  0.06461  1.0000
  H   H2524     1.0  0.00282  0.54159  0.17345  1.0000
  H   H2525     1.0  0.43216  0.74044  0.01998  1.0000
  H   H2526     1.0  0.24781  0.49480  0.06518  1.0000
  H   H2527     1.0  0.45370  0.73991  0.01816  1.0000
  C   C1435     1.0  0.00067  0.49563  0.15795  1.0000
  C   C1436     1.0  0.28394  0.56997  0.99271  1.0000
  C   C1437     1.0  0.29366  0.51466  0.99374  1.0000
  C   C1438     1.0  0.99930  0.52891  0.20573  1.0000
  C   C1439     1.0  0.27234  0.49471  0.99253  1.0000
  H   H2528     1.0  0.12282  0.50114  0.19217  1.0000
  H   H2529     1.0  0.28356  0.49805  0.07481  1.0000
  H   H2530     1.0  0.42107  0.61274  0.00024  1.0000
  C   C1440     1.0  0.00039  0.54152  0.19993  1.0000
  H   H2531     1.0  0.38914  0.50688  0.99504  1.0000
  H   H2532     1.0  0.26492  0.53079  0.99279  1.0000
  H   H2533     1.0  0.47408  0.63910  0.99212  1.0000
  H   H2534     1.0  0.38396  0.58918  0.99269  1.0000
  H   H2535     1.0  0.26131  0.55204  0.99206  1.0000
  H   H2536     1.0  0.07156  0.50090  0.34287  1.0000
  H   H2537     1.0  0.10415  0.60008  0.49153  1.0000
  H   H2538     1.0  0.11847  0.67078  0.43298  1.0000
  S   S314      1.0  0.00256  0.62474  0.41704  1.0000
  H   H2539     1.0  0.08851  0.59152  0.39900  1.0000
  H   H2540     1.0  0.04955  0.61859  0.49092  1.0000
  S   S315      1.0  0.11535  0.72271  0.42486  1.0000
  H   H2541     1.0  0.10789  0.69679  0.47198  1.0000
  H   H2542     1.0  0.05115  0.74125  0.44011  1.0000
  C   C1441     1.0  0.00602  0.65773  0.41381  1.0000
  H   H2543     1.0  0.00924  0.66220  0.41834  1.0000
  H   H2544     1.0  0.01508  0.64876  0.45418  1.0000
  S   S316      1.0  0.00908  0.56657  0.36948  1.0000
  S   S317      1.0  0.03276  0.53846  0.36218  1.0000
  Fe  Fe161     1.0  0.04084  0.60072  0.42660  1.0000
  S   S318      1.0  0.05258  0.59530  0.41016  1.0000
  S   S319      1.0  0.04818  0.59656  0.44275  1.0000
  Fe  Fe162     1.0  0.02112  0.61416  0.41443  1.0000
  S   S320      1.0  0.03116  0.61023  0.39682  1.0000
  C   C1442     1.0  0.05452  0.49603  0.34697  1.0000
  Fe  Fe163     1.0  0.03659  0.59187  0.40700  1.0000
  S   S321      1.0  0.03819  0.57496  0.40136  1.0000
  Fe  Fe164     1.0  0.04617  0.61399  0.40139  1.0000
  S   S322      1.0  0.05851  0.62416  0.38769  1.0000
  S   S323      1.0  0.02538  0.59553  0.42447  1.0000
  S   S324      1.0  0.03557  0.61972  0.41798  1.0000
  Fe  Fe165     1.0  0.06492  0.51161  0.26577  1.0000
  C   C1443     1.0  0.02229  0.73805  0.39977  1.0000
  H   H2545     1.0  0.03687  0.67927  0.40581  1.0000
  C   C1444     1.0  0.08871  0.73094  0.39092  1.0000
  H   H2546     1.0  0.02389  0.53508  0.27008  1.0000
  Fe  Fe166     1.0  0.03417  0.53908  0.34330  1.0000
  H   H2547     1.0  0.00538  0.50465  0.39807  1.0000
  H   H2548     1.0  0.01320  0.56073  0.43415  1.0000
  H   H2549     1.0  0.05911  0.73223  0.38020  1.0000
  S   S325      1.0  0.06346  0.52781  0.25133  1.0000
  S   S326      1.0  0.05657  0.51239  0.28460  1.0000
  H   H2550     1.0  0.02385  0.49657  0.36553  1.0000
  C   C1445     1.0  0.07442  0.60708  0.44427  1.0000
  H   H2551     1.0  0.00739  0.73102  0.40202  1.0000
  H   H2552     1.0  0.05190  0.50292  0.33936  1.0000
  S   S327      1.0  0.00930  0.68267  0.42618  1.0000
  C   C1446     1.0  0.04042  0.73389  0.42184  1.0000
  S   S328      1.0  0.00295  0.51303  0.26109  1.0000
  C   C1447     1.0  0.12303  0.60923  0.45667  1.0000
  Fe  Fe167     1.0  0.01096  0.70137  0.42216  1.0000
  S   S329      1.0  0.02816  0.70530  0.42134  1.0000
  H   H2553     1.0  0.02859  0.57557  0.30849  1.0000
  H   H2554     1.0  0.00022  0.55345  0.32609  1.0000
  Fe  Fe168     1.0  0.09279  0.64811  0.41742  1.0000
  S   S330      1.0  0.08917  0.64112  0.43692  1.0000
  S   S331      1.0  0.09729  0.63667  0.40438  1.0000
  Fe  Fe169     1.0  0.09112  0.67297  0.41963  1.0000
  S   S332      1.0  0.08740  0.66814  0.43933  1.0000
  S   S333      1.0  0.09066  0.69169  0.40975  1.0000
  Fe  Fe170     1.0  0.10145  0.65188  0.43676  1.0000
  S   S334      1.0  0.11619  0.64413  0.44621  1.0000
  Fe  Fe171     1.0  0.07550  0.65797  0.43751  1.0000
  S   S335      1.0  0.05707  0.65907  0.44825  1.0000
  S   S336      1.0  0.10625  0.65759  0.41715  1.0000
  S   S337      1.0  0.07804  0.66404  0.41795  1.0000
  C   C1448     1.0  0.03588  0.69335  0.43026  1.0000
  C   C1449     1.0  0.04802  0.69171  0.42866  1.0000
  C   C1450     1.0  0.05448  0.68135  0.43453  1.0000
  C   C1451     1.0  0.04879  0.67263  0.44212  1.0000
  C   C1452     1.0  0.03652  0.67469  0.44447  1.0000
  C   C1453     1.0  0.03008  0.68508  0.43858  1.0000
  H   H2555     1.0  0.05248  0.69830  0.42265  1.0000
  H   H2556     1.0  0.06390  0.68008  0.43304  1.0000
  H   H2557     1.0  0.03201  0.66821  0.45067  1.0000
  H   H2558     1.0  0.02062  0.68671  0.44057  1.0000
  C   C1454     1.0  0.06886  0.62800  0.39265  1.0000
  C   C1455     1.0  0.07958  0.62933  0.38490  1.0000
  C   C1456     1.0  0.08818  0.63208  0.38860  1.0000
  C   C1457     1.0  0.08590  0.63412  0.39988  1.0000
  C   C1458     1.0  0.07494  0.63343  0.40749  1.0000
  C   C1459     1.0  0.06656  0.62994  0.40402  1.0000
  H   H2559     1.0  0.08140  0.62787  0.37610  1.0000
  H   H2560     1.0  0.09663  0.63265  0.38267  1.0000
  H   H2561     1.0  0.07313  0.63512  0.41617  1.0000
  H   H2562     1.0  0.05835  0.62876  0.41010  1.0000
  H   H2563     1.0  0.02754  0.73498  0.45089  1.0000
  C   C1460     1.0  0.05287  0.71627  0.48467  1.0000
  H   H2564     1.0  0.11606  0.61284  0.49093  1.0000
  H   H2565     1.0  0.01220  0.63016  0.45189  1.0000
  C   C1461     1.0  0.02773  0.63434  0.46150  1.0000
  C   C1462     1.0  0.03354  0.59889  0.47668  1.0000
  S   S338      1.0  0.00081  0.67912  0.39865  1.0000
  H   H2566     1.0  0.01180  0.72939  0.36901  1.0000
  H   H2567     1.0  0.07188  0.55301  0.27950  1.0000
  H   H2568     1.0  0.11782  0.60784  0.43124  1.0000
  C   C1463     1.0  0.05933  0.53280  0.32261  1.0000
  C   C1464     1.0  0.07114  0.53297  0.31748  1.0000
  C   C1465     1.0  0.07808  0.52481  0.31068  1.0000
  C   C1466     1.0  0.07314  0.51675  0.30855  1.0000
  C   C1467     1.0  0.06124  0.51667  0.31351  1.0000
  C   C1468     1.0  0.05443  0.52450  0.32081  1.0000
  C   C1469     1.0  0.02930  0.69624  0.38779  1.0000
  H   H2569     1.0  0.08727  0.52487  0.30690  1.0000
  H   H2570     1.0  0.05739  0.51042  0.31193  1.0000
  H   H2571     1.0  0.05841  0.67028  0.47681  1.0000
  C   C1470     1.0  0.01738  0.56888  0.37815  1.0000
  C   C1471     1.0  0.01769  0.58040  0.37804  1.0000
  C   C1472     1.0  0.02417  0.58245  0.38495  1.0000
  C   C1473     1.0  0.03014  0.57298  0.39226  1.0000
  C   C1474     1.0  0.02972  0.56151  0.39243  1.0000
  C   C1475     1.0  0.02342  0.55946  0.38539  1.0000
  H   H2572     1.0  0.10562  0.73504  0.38851  1.0000
  H   H2573     1.0  0.02448  0.59131  0.38471  1.0000
  H   H2574     1.0  0.03416  0.55416  0.39818  1.0000
  H   H2575     1.0  0.02306  0.55057  0.38574  1.0000
  C   C1476     1.0  0.11097  0.65667  0.47966  1.0000
  C   C1477     1.0  0.12229  0.65256  0.47338  1.0000
  C   C1478     1.0  0.12383  0.64860  0.46315  1.0000
  C   C1479     1.0  0.11406  0.64924  0.45892  1.0000
  C   C1480     1.0  0.10273  0.65353  0.46509  1.0000
  C   C1481     1.0  0.10118  0.65698  0.47562  1.0000
  H   H2576     1.0  0.12989  0.65231  0.47648  1.0000
  H   H2577     1.0  0.13260  0.64526  0.45839  1.0000
  H   H2578     1.0  0.09519  0.65411  0.46177  1.0000
  H   H2579     1.0  0.09243  0.66017  0.48042  1.0000
  H   H2580     1.0  0.99862  0.64525  0.44234  1.0000
  H   H2581     1.0  0.12449  0.60877  0.47389  1.0000
  H   H2582     1.0  0.07465  0.72917  0.37653  1.0000
  H   H2583     1.0  0.03426  0.73187  0.48029  1.0000
  H   H2584     1.0  0.08372  0.54454  0.33311  1.0000
  H   H2585     1.0  0.05556  0.51872  0.34644  1.0000
  C   C1482     1.0  0.10662  0.61866  0.47172  1.0000
  H   H2586     1.0  0.04563  0.73913  0.46196  1.0000
  Fe  Fe172     1.0  0.01489  0.55007  0.36194  1.0000
  H   H2587     1.0  0.05876  0.73307  0.41906  1.0000
  H   H2588     1.0  0.01786  0.73021  0.38834  1.0000
  C   C1483     1.0  0.01764  0.60152  0.46725  1.0000
  C   C1484     1.0  0.02575  0.60046  0.45655  1.0000
  C   C1485     1.0  0.03780  0.59837  0.45594  1.0000
  C   C1486     1.0  0.04168  0.59760  0.46602  1.0000
  H   H2589     1.0  0.02648  0.73242  0.35045  1.0000
  H   H2590     1.0  0.10086  0.61837  0.46625  1.0000
  H   H2591     1.0  0.02269  0.60102  0.44883  1.0000
  H   H2592     1.0  0.05099  0.59593  0.46563  1.0000
  H   H2593     1.0  0.03303  0.64042  0.46147  1.0000
  H   H2594     1.0  0.10393  0.50991  0.25240  1.0000
  C   C1487     1.0  0.03330  0.72364  0.47873  1.0000
  C   C1488     1.0  0.07588  0.73391  0.39809  1.0000
  H   H2595     1.0  0.03118  0.51391  0.25188  1.0000
  H   H2596     1.0  0.01001  0.72862  0.49163  1.0000
  C   C1489     1.0  0.00856  0.51037  0.28211  1.0000
  H   H2597     1.0  0.10956  0.62704  0.46763  1.0000
  H   H2598     1.0  0.00786  0.60695  0.40049  1.0000
  H   H2599     1.0  0.08926  0.73320  0.38133  1.0000
  H   H2600     1.0  0.03658  0.59831  0.48441  1.0000
  H   H2601     1.0  0.10284  0.68752  0.43789  1.0000
  C   C1490     1.0  0.10851  0.71410  0.42054  1.0000
  C   C1491     1.0  0.11526  0.70405  0.41633  1.0000
  C   C1492     1.0  0.10983  0.69686  0.41332  1.0000
  C   C1493     1.0  0.09760  0.69964  0.41466  1.0000
  C   C1494     1.0  0.09087  0.70954  0.41906  1.0000
  C   C1495     1.0  0.09632  0.71682  0.42181  1.0000
  H   H2602     1.0  0.12472  0.70189  0.41529  1.0000
  H   H2603     1.0  0.11511  0.68927  0.40980  1.0000
  H   H2604     1.0  0.08142  0.71156  0.42044  1.0000
  H   H2605     1.0  0.09102  0.72437  0.42518  1.0000
  H   H2606     1.0  0.05149  0.51142  0.36166  1.0000
  H   H2607     1.0  0.04644  0.49656  0.35417  1.0000
  H   H2608     1.0  0.03959  0.73117  0.43148  1.0000
  H   H2609     1.0  0.12503  0.68285  0.43139  1.0000
  H   H2610     1.0  0.11438  0.69811  0.44348  1.0000
  H   H2611     1.0  0.09594  0.70912  0.47036  1.0000
  C   C1496     1.0  0.01500  0.64100  0.46161  1.0000
  C   C1497     1.0  0.08006  0.60287  0.42447  1.0000
  H   H2612     1.0  0.00718  0.56769  0.26465  1.0000
  H   H2613     1.0  0.09618  0.58445  0.43500  1.0000
  H   H2614     1.0  0.99714  0.65522  0.45103  1.0000
  H   H2615     1.0  0.03943  0.64300  0.47700  1.0000
  C   C1498     1.0  0.03543  0.52121  0.24652  1.0000
  C   C1499     1.0  0.02761  0.56705  0.31466  1.0000
  H   H2616     1.0  0.05234  0.67588  0.46393  1.0000
  Fe  Fe173     1.0  0.00961  0.53539  0.34788  1.0000
  H   H2617     1.0  0.02137  0.55916  0.25881  1.0000
  H   H2618     1.0  0.09097  0.56594  0.45419  1.0000
  C   C1500     1.0  0.03332  0.73192  0.45733  1.0000
  H   H2619     1.0  0.04519  0.68180  0.47691  1.0000
  H   H2620     1.0  0.01810  0.56722  0.31830  1.0000
  H   H2621     1.0  0.09146  0.53312  0.34311  1.0000
  H   H2622     1.0  0.10609  0.72404  0.46986  1.0000
  C   C1501     1.0  0.11022  0.69152  0.45061  1.0000
  C   C1502     1.0  0.06810  0.62004  0.44011  1.0000
  H   H2623     1.0  0.04827  0.53579  0.28590  1.0000
  H   H2624     1.0  0.03722  0.49807  0.33497  1.0000
  H   H2625     1.0  0.00908  0.72879  0.44654  1.0000
  H   H2626     1.0  0.04537  0.52424  0.32494  1.0000
  H   H2627     1.0  0.04763  0.53982  0.29893  1.0000
  H   H2628     1.0  0.02040  0.69485  0.38874  1.0000
  C   C1503     1.0  0.04548  0.54342  0.29016  1.0000
  N   N82       1.0  0.03246  0.54850  0.29114  1.0000
  H   H2629     1.0  0.02888  0.53233  0.29035  1.0000
  H   H2630     1.0  0.10918  0.59470  0.42570  1.0000
  H   H2631     1.0  0.03940  0.52903  0.26522  1.0000
  H   H2632     1.0  0.01016  0.61017  0.37882  1.0000
  H   H2633     1.0  0.08922  0.60593  0.39965  1.0000
  C   C1504     1.0  0.10836  0.68283  0.44436  1.0000
  S   S339      1.0  0.00597  0.53491  0.36723  1.0000
  C   C1505     1.0  0.03848  0.68469  0.38724  1.0000
  C   C1506     1.0  0.08660  0.59375  0.41664  1.0000
  H   H2634     1.0  0.02804  0.51411  0.30645  1.0000
  S   S340      1.0  0.02733  0.52280  0.34711  1.0000
  H   H2635     1.0  0.01038  0.50003  0.34018  1.0000
  H   H2636     1.0  0.02290  0.65053  0.37940  1.0000
  H   H2637     1.0  0.02930  0.69974  0.39533  1.0000
  H   H2638     1.0  0.01789  0.74298  0.40688  1.0000
  H   H2639     1.0  0.06584  0.54671  0.29456  1.0000
  H   H2640     1.0  0.12075  0.70639  0.45440  1.0000
  C   C1507     1.0  0.10542  0.60426  0.42345  1.0000
  H   H2641     1.0  0.09097  0.61765  0.42868  1.0000
  H   H2642     1.0  0.07525  0.60175  0.40410  1.0000
  C   C1508     1.0  0.00635  0.73131  0.48366  1.0000
  C   C1509     1.0  0.02715  0.53147  0.30882  1.0000
  H   H2643     1.0  0.08022  0.61176  0.41888  1.0000
  H   H2644     1.0  0.01725  0.56216  0.41843  1.0000
  H   H2645     1.0  0.06367  0.62080  0.43301  1.0000
  H   H2646     1.0  0.02846  0.56677  0.29235  1.0000
  H   H2647     1.0  0.01669  0.67462  0.49056  1.0000
  H   H2648     1.0  0.09259  0.72140  0.39349  1.0000
  N   N83       1.0  0.02658  0.72655  0.46922  1.0000
  H   H2649     1.0  0.09256  0.58858  0.44858  1.0000
  S   S341      1.0  0.00185  0.70724  0.40715  1.0000
  C   C1510     1.0  0.02601  0.53862  0.29633  1.0000
  H   H2650     1.0  0.07497  0.53936  0.31882  1.0000
  H   H2651     1.0  0.08318  0.58562  0.42033  1.0000
  H   H2652     1.0  0.02335  0.49416  0.26152  1.0000
  Fe  Fe174     1.0  0.02416  0.52340  0.36600  1.0000
  H   H2653     1.0  0.11167  0.62021  0.42076  1.0000
  H   H2654     1.0  0.02277  0.65540  0.48363  1.0000
  N   N84       1.0  0.06696  0.72959  0.39492  1.0000
  H   H2655     1.0  0.06124  0.70957  0.48389  1.0000
  C   C1511     1.0  0.07009  0.71633  0.39744  1.0000
  C   C1512     1.0  0.10209  0.51548  0.24388  1.0000
  H   H2656     1.0  0.02753  0.72943  0.40354  1.0000
  C   C1513     1.0  0.03880  0.63608  0.48511  1.0000
  H   H2657     1.0  0.03133  0.70286  0.37956  1.0000
  C   C1514     1.0  0.05495  0.73408  0.40207  1.0000
  C   C1515     1.0  0.06083  0.71041  0.39626  1.0000
  C   C1516     1.0  0.06540  0.69712  0.39774  1.0000
  H   H2658     1.0  0.05015  0.56076  0.28500  1.0000
  C   C1517     1.0  0.10346  0.70358  0.46535  1.0000
  H   H2659     1.0  0.03475  0.66783  0.47422  1.0000
  C   C1518     1.0  0.00154  0.73622  0.44484  1.0000
  H   H2660     1.0  0.06977  0.53818  0.28340  1.0000
  H   H2661     1.0  0.07858  0.71314  0.39150  1.0000
  H   H2662     1.0  0.07177  0.71266  0.40640  1.0000
  H   H2663     1.0  0.11200  0.62832  0.48563  1.0000
  S   S342      1.0  0.02955  0.50845  0.38053  1.0000
  H   H2664     1.0  0.00763  0.62368  0.38349  1.0000
  C   C1519     1.0  0.02149  0.60082  0.47732  1.0000
  H   H2665     1.0  0.01098  0.64058  0.42479  1.0000
  H   H2666     1.0  0.08903  0.63610  0.46604  1.0000
  C   C1520     1.0  0.03040  0.52867  0.26520  1.0000
  C   C1521     1.0  0.04882  0.62546  0.48277  1.0000
  H   H2667     1.0  0.12070  0.72381  0.46085  1.0000
  H   H2668     1.0  0.05531  0.71991  0.41821  1.0000
  H   H2669     1.0  0.05259  0.71201  0.40306  1.0000
  H   H2670     1.0  0.05864  0.71378  0.38751  1.0000
  H   H2671     1.0  0.05857  0.69313  0.39697  1.0000
  H   H2672     1.0  0.07347  0.69505  0.39088  1.0000
  H   H2673     1.0  0.06749  0.69310  0.40651  1.0000
  C   C1522     1.0  0.00358  0.61639  0.38394  1.0000
  H   H2674     1.0  0.99925  0.57995  0.43213  1.0000
  H   H2675     1.0  0.09673  0.58530  0.48627  1.0000
  H   H2676     1.0  0.13079  0.60182  0.45545  1.0000
  H   H2677     1.0  0.07712  0.67592  0.48412  1.0000
  H   H2678     1.0  0.05203  0.61911  0.45370  1.0000
  C   C1523     1.0  0.00785  0.63285  0.46041  1.0000
  H   H2679     1.0  0.03162  0.63059  0.45353  1.0000
  H   H2680     1.0  0.00109  0.51742  0.28383  1.0000
  H   H2681     1.0  0.07633  0.73010  0.40742  1.0000
  H   H2682     1.0  0.05731  0.62821  0.47909  1.0000
  H   H2683     1.0  0.11693  0.68646  0.45590  1.0000
  H   H2684     1.0  0.09005  0.68791  0.48523  1.0000
  H   H2685     1.0  0.04443  0.70594  0.47937  1.0000
  S   S343      1.0  0.08226  0.50654  0.30017  1.0000
  C   C1524     1.0  0.03859  0.74227  0.45694  1.0000
  C   C1525     1.0  0.04552  0.71516  0.47688  1.0000
  H   H2686     1.0  0.03031  0.63351  0.48669  1.0000
  Fe  Fe175     1.0  0.07389  0.50182  0.28837  1.0000
  C   C1526     1.0  0.05007  0.67366  0.47368  1.0000
  H   H2687     1.0  0.06730  0.60219  0.44728  1.0000
  H   H2688     1.0  0.02824  0.71945  0.48727  1.0000
  C   C1527     1.0  0.02875  0.53155  0.25261  1.0000
  H   H2689     1.0  0.02815  0.62704  0.46939  1.0000
  H   H2690     1.0  0.00057  0.63108  0.48405  1.0000
  H   H2691     1.0  0.01241  0.56415  0.28376  1.0000
  C   C1528     1.0  0.01569  0.50539  0.29028  1.0000
  C   C1529     1.0  0.01541  0.73561  0.47246  1.0000
  N   N85       1.0  0.09939  0.69761  0.45835  1.0000
  C   C1530     1.0  0.12010  0.67648  0.43782  1.0000
  C   C1531     1.0  0.09303  0.68837  0.46650  1.0000
  H   H2692     1.0  0.01325  0.52259  0.31062  1.0000
  C   C1532     1.0  0.09171  0.70633  0.45054  1.0000
  C   C1533     1.0  0.07957  0.71280  0.45672  1.0000
  S   S344      1.0  0.08268  0.50250  0.26938  1.0000
  C   C1534     1.0  0.08493  0.69126  0.47825  1.0000
  C   C1535     1.0  0.07433  0.68564  0.48209  1.0000
  C   C1536     1.0  0.07296  0.72165  0.44781  1.0000
  C   C1537     1.0  0.05317  0.72964  0.41562  1.0000
  C   C1538     1.0  0.00303  0.58469  0.41278  1.0000
  C   C1539     1.0  0.02771  0.55800  0.29817  1.0000
  H   H2693     1.0  0.08788  0.68585  0.46169  1.0000
  H   H2694     1.0  0.09954  0.68019  0.46921  1.0000
  H   H2695     1.0  0.09644  0.71308  0.44462  1.0000
  H   H2696     1.0  0.08980  0.70190  0.44468  1.0000
  H   H2697     1.0  0.08048  0.71772  0.46273  1.0000
  H   H2698     1.0  0.07396  0.70646  0.46162  1.0000
  C   C1540     1.0  0.06681  0.73403  0.38203  1.0000
  C   C1541     1.0  0.11756  0.60845  0.46979  1.0000
  H   H2699     1.0  0.05058  0.71687  0.46770  1.0000
  H   H2700     1.0  0.08144  0.70073  0.47793  1.0000
  C   C1542     1.0  0.01317  0.73594  0.39465  1.0000
  H   H2701     1.0  0.02167  0.73784  0.36954  1.0000
  H   H2702     1.0  0.06913  0.68846  0.47521  1.0000
  H   H2703     1.0  0.06423  0.72597  0.45243  1.0000
  H   H2704     1.0  0.07786  0.72859  0.44301  1.0000
  H   H2705     1.0  0.07171  0.71730  0.44148  1.0000
  C   C1543     1.0  0.08508  0.56827  0.44799  1.0000
  H   H2706     1.0  0.06817  0.64620  0.46907  1.0000
  N   N86       1.0  0.08441  0.60164  0.43531  1.0000
  C   C1544     1.0  0.05875  0.62453  0.45024  1.0000
  H   H2707     1.0  0.07751  0.60641  0.45229  1.0000
  H   H2708     1.0  0.05434  0.63379  0.44710  1.0000
  H   H2709     1.0  0.10351  0.60668  0.41456  1.0000
  H   H2710     1.0  0.06285  0.62427  0.45741  1.0000
  N   N87       1.0  0.04404  0.66334  0.39910  1.0000
  C   C1545     1.0  0.04353  0.65796  0.38949  1.0000
  C   C1546     1.0  0.05661  0.66361  0.39842  1.0000
  C   C1547     1.0  0.03969  0.65555  0.41070  1.0000
  C   C1548     1.0  0.03127  0.65646  0.38953  1.0000
  C   C1549     1.0  0.04105  0.65837  0.42189  1.0000
  C   C1550     1.0  0.06507  0.66492  0.38608  1.0000
  C   C1551     1.0  0.07686  0.66665  0.38660  1.0000
  C   C1552     1.0  0.03177  0.65164  0.37901  1.0000
  C   C1553     1.0  0.03663  0.64953  0.43279  1.0000
  H   H2711     1.0  0.04956  0.64909  0.39001  1.0000
  H   H2712     1.0  0.04680  0.66311  0.38065  1.0000
  H   H2713     1.0  0.05677  0.67060  0.40263  1.0000
  H   H2714     1.0  0.06103  0.65527  0.40359  1.0000
  H   H2715     1.0  0.04422  0.64621  0.41066  1.0000
  H   H2716     1.0  0.03018  0.65595  0.41205  1.0000
  H   H2717     1.0  0.02806  0.65009  0.39751  1.0000
  H   H2718     1.0  0.02478  0.66499  0.38906  1.0000
  H   H2719     1.0  0.03580  0.66724  0.42301  1.0000
  H   H2720     1.0  0.05035  0.65793  0.42165  1.0000
  H   H2721     1.0  0.06695  0.65679  0.38274  1.0000
  H   H2722     1.0  0.06133  0.67242  0.37961  1.0000
  H   H2723     1.0  0.08283  0.66725  0.37774  1.0000
  H   H2724     1.0  0.07563  0.67484  0.38957  1.0000
  H   H2725     1.0  0.08115  0.65912  0.39272  1.0000
  H   H2726     1.0  0.03800  0.64292  0.37919  1.0000
  H   H2727     1.0  0.10410  0.67593  0.45066  1.0000
  H   H2728     1.0  0.03455  0.65779  0.37064  1.0000
  H   H2729     1.0  0.03788  0.65149  0.44068  1.0000
  H   H2730     1.0  0.02712  0.65011  0.43382  1.0000
  H   H2731     1.0  0.04164  0.64044  0.43215  1.0000
  H   H2732     1.0  0.04719  0.68666  0.38585  1.0000
  H   H2733     1.0  0.00357  0.72375  0.48279  1.0000
  C   C1554     1.0  0.02301  0.71584  0.46856  1.0000
  H   H2734     1.0  0.04798  0.73210  0.39919  1.0000
  H   H2735     1.0  0.04295  0.55714  0.30517  1.0000
  C   C1555     1.0  0.04266  0.66437  0.47805  1.0000
  C   C1556     1.0  0.05884  0.51199  0.35377  1.0000
  H   H2736     1.0  0.11824  0.71194  0.47341  1.0000
  C   C1557     1.0  0.03190  0.70762  0.46070  1.0000
  C   C1558     1.0  0.02780  0.69639  0.46242  1.0000
  C   C1559     1.0  0.00213  0.57550  0.42463  1.0000
  H   H2737     1.0  0.02024  0.57286  0.26274  1.0000
  H   H2738     1.0  0.03469  0.56143  0.27474  1.0000
  H   H2739     1.0  0.03299  0.54854  0.31500  1.0000
  H   H2740     1.0  0.04090  0.72538  0.45367  1.0000
  H   H2741     1.0  0.01811  0.55876  0.30190  1.0000
  H   H2742     1.0  0.01489  0.71856  0.46505  1.0000
  H   H2743     1.0  0.01918  0.53302  0.25322  1.0000
  H   H2744     1.0  0.03181  0.53973  0.24789  1.0000
  H   H2745     1.0  0.06657  0.64155  0.48482  1.0000
  C   C1560     1.0  0.07283  0.64372  0.47635  1.0000
  C   C1561     1.0  0.11212  0.71164  0.45827  1.0000
  C   C1562     1.0  0.99695  0.54923  0.32133  1.0000
  H   H2746     1.0  0.00439  0.66958  0.48007  1.0000
  H   H2747     1.0  0.00183  0.51948  0.38967  1.0000
  H   H2748     1.0  0.04076  0.70506  0.46260  1.0000
  C   C1563     1.0  0.08307  0.63318  0.47452  1.0000
  H   H2749     1.0  0.03267  0.71204  0.45126  1.0000
  H   H2750     1.0  0.09019  0.56577  0.43954  1.0000
  H   H2751     1.0  0.03496  0.69017  0.45782  1.0000
  H   H2752     1.0  0.02556  0.69208  0.47187  1.0000
  H   H2753     1.0  0.02002  0.69834  0.45857  1.0000
  H   H2754     1.0  0.06577  0.51485  0.35583  1.0000
  S   S345      1.0  0.05096  0.54315  0.33111  1.0000
  C   C1564     1.0  0.99706  0.65817  0.39823  1.0000
  C   C1565     1.0  0.03612  0.67546  0.39880  1.0000
  H   H2755     1.0  0.07345  0.58331  0.43988  1.0000
  H   H2756     1.0  0.00233  0.62124  0.44624  1.0000
  H   H2757     1.0  0.03639  0.52848  0.30958  1.0000
  H   H2758     1.0  0.11657  0.60876  0.45203  1.0000
  C   C1566     1.0  0.03353  0.55686  0.30841  1.0000
  H   H2759     1.0  0.12557  0.67082  0.44411  1.0000
  H   H2760     1.0  0.12599  0.61760  0.45266  1.0000
  H   H2761     1.0  0.07390  0.58326  0.45452  1.0000
  H   H2762     1.0  0.02670  0.67501  0.40091  1.0000
  H   H2763     1.0  0.07694  0.53270  0.34249  1.0000
  H   H2764     1.0  0.01078  0.73903  0.46505  1.0000
  H   H2765     1.0  0.09222  0.63707  0.48503  1.0000
  H   H2766     1.0  0.01300  0.58775  0.37248  1.0000
  H   H2767     1.0  0.00799  0.57996  0.40565  1.0000
  C   C1567     1.0  0.01750  0.55821  0.27768  1.0000
  C   C1568     1.0  0.11440  0.71822  0.46615  1.0000
  C   C1569     1.0  0.03052  0.55376  0.27881  1.0000
  H   H2768     1.0  0.03448  0.72983  0.41959  1.0000
  C   C1570     1.0  0.01133  0.50637  0.27171  1.0000
  H   H2769     1.0  0.07419  0.62604  0.43687  1.0000
  C   C1571     1.0  0.01659  0.56489  0.26518  1.0000
  N   N88       1.0  0.05868  0.56080  0.35920  1.0000
  C   C1572     1.0  0.06491  0.55324  0.35030  1.0000
  C   C1573     1.0  0.04608  0.56561  0.35806  1.0000
  C   C1574     1.0  0.06490  0.57062  0.35682  1.0000
  C   C1575     1.0  0.05884  0.55382  0.37158  1.0000
  C   C1576     1.0  0.05400  0.54251  0.37526  1.0000
  C   C1577     1.0  0.07735  0.54575  0.35152  1.0000
  C   C1578     1.0  0.05862  0.58038  0.36395  1.0000
  C   C1579     1.0  0.04429  0.57366  0.34599  1.0000
  C   C1580     1.0  0.03126  0.57809  0.34579  1.0000
  C   C1581     1.0  0.05654  0.53514  0.38708  1.0000
  C   C1582     1.0  0.08266  0.53861  0.34196  1.0000
  C   C1583     1.0  0.06596  0.58953  0.36118  1.0000
  H   H2770     1.0  0.06601  0.55877  0.34123  1.0000
  H   H2771     1.0  0.05943  0.54725  0.35037  1.0000
  H   H2772     1.0  0.04171  0.55831  0.35950  1.0000
  H   H2773     1.0  0.04091  0.57042  0.36511  1.0000
  H   H2774     1.0  0.06651  0.57494  0.34731  1.0000
  H   H2775     1.0  0.07381  0.56700  0.35876  1.0000
  H   H2776     1.0  0.06790  0.55145  0.37316  1.0000
  H   H2777     1.0  0.05346  0.55927  0.37806  1.0000
  H   H2778     1.0  0.05784  0.53681  0.36879  1.0000
  H   H2779     1.0  0.04435  0.54489  0.37625  1.0000
  H   H2780     1.0  0.08336  0.55145  0.35066  1.0000
  H   H2781     1.0  0.07708  0.53944  0.36012  1.0000
  H   H2782     1.0  0.05716  0.57668  0.37355  1.0000
  H   H2783     1.0  0.04997  0.58510  0.36180  1.0000
  H   H2784     1.0  0.04810  0.58147  0.34395  1.0000
  H   H2785     1.0  0.04842  0.56880  0.33882  1.0000
  H   H2786     1.0  0.02659  0.58331  0.35261  1.0000
  H   H2787     1.0  0.03025  0.58377  0.33707  1.0000
  H   H2788     1.0  0.02714  0.57057  0.34733  1.0000
  H   H2789     1.0  0.05293  0.54041  0.39397  1.0000
  H   H2790     1.0  0.05236  0.52749  0.38982  1.0000
  H   H2791     1.0  0.06617  0.53180  0.38636  1.0000
  C   C1584     1.0  0.06603  0.54713  0.28526  1.0000
  H   H2792     1.0  0.08283  0.73784  0.48465  1.0000
  H   H2793     1.0  0.01351  0.50851  0.29831  1.0000
  H   H2794     1.0  0.07461  0.58538  0.36358  1.0000
  H   H2795     1.0  0.06738  0.59385  0.35170  1.0000
  H   H2796     1.0  0.06125  0.59639  0.36638  1.0000
  H   H2797     1.0  0.02065  0.71037  0.47755  1.0000
  C   C1585     1.0  0.09408  0.60820  0.43250  1.0000
  H   H2798     1.0  0.01638  0.54203  0.29706  1.0000
  S   S346      1.0  0.01674  0.55170  0.34259  1.0000
  H   H2799     1.0  0.05443  0.55288  0.27337  1.0000
  C   C1586     1.0  0.00693  0.64553  0.41750  1.0000
  C   C1587     1.0  0.11495  0.61051  0.42279  1.0000
  H   H2800     1.0  0.07810  0.56318  0.45183  1.0000
  C   C1588     1.0  0.03929  0.66141  0.49161  1.0000
  N   N89       1.0  0.10005  0.61879  0.48429  1.0000
  H   H2801     1.0  0.00835  0.60285  0.46775  1.0000
  H   H2802     1.0  0.09662  0.60788  0.44073  1.0000
  C   C1589     1.0  0.02234  0.52040  0.31196  1.0000
  C   C1590     1.0  0.99741  0.64611  0.40229  1.0000
  H   H2803     1.0  0.03811  0.68167  0.37958  1.0000
  H   H2804     1.0  0.01322  0.55074  0.27968  1.0000
  C   C1591     1.0  0.08879  0.58899  0.44107  1.0000
  H   H2805     1.0  0.00922  0.62464  0.46725  1.0000
  C   C1592     1.0  0.08475  0.59854  0.40410  1.0000
  H   H2806     1.0  0.03497  0.54731  0.27308  1.0000
  H   H2807     1.0  0.04816  0.65655  0.47470  1.0000
  H   H2808     1.0  0.09081  0.60535  0.47537  1.0000
  H   H2809     1.0  0.11513  0.59980  0.47341  1.0000
  H   H2810     1.0  0.02899  0.51978  0.26990  1.0000
  Fe  Fe176     1.0  0.10462  0.74052  0.42822  1.0000
  H   H2811     1.0  0.07062  0.60238  0.42683  1.0000
  H   H2812     1.0  0.02219  0.51608  0.32134  1.0000
  C   C1593     1.0  0.07940  0.58141  0.44593  1.0000
  C   C1594     1.0  0.05365  0.55191  0.28293  1.0000
  H   H2813     1.0  0.02202  0.53683  0.31541  1.0000
  H   H2814     1.0  0.09619  0.59118  0.41602  1.0000
  H   H2815     1.0  0.10859  0.71829  0.45107  1.0000
  H   H2816     1.0  0.03184  0.56601  0.32200  1.0000
  H   H2817     1.0  0.12270  0.60815  0.41571  1.0000
  C   C1595     1.0  0.09631  0.60741  0.49052  1.0000
  H   H2818     1.0  0.01139  0.64415  0.46992  1.0000
  H   H2819     1.0  0.04720  0.62150  0.47634  1.0000
  H   H2820     1.0  0.13897  0.73946  0.47086  1.0000
  H   H2821     1.0  0.99993  0.59470  0.39157  1.0000
  C   C1596     1.0  0.06389  0.50004  0.35038  1.0000
  C   C1597     1.0  0.08813  0.60385  0.48506  1.0000
  C   C1598     1.0  0.02127  0.49739  0.26947  1.0000
  H   H2822     1.0  0.02066  0.57205  0.42501  1.0000
  C   C1599     1.0  0.00240  0.63977  0.41189  1.0000
  H   H2823     1.0  0.00888  0.59014  0.41299  1.0000
  C   C1600     1.0  0.01405  0.56712  0.42557  1.0000
  H   H2824     1.0  0.10094  0.49349  0.24529  1.0000
  H   H2825     1.0  0.04465  0.51855  0.24775  1.0000
  H   H2826     1.0  0.05499  0.72508  0.48185  1.0000
  C   C1601     1.0  0.00084  0.49862  0.35840  1.0000
  H   H2827     1.0  0.07606  0.65139  0.47634  1.0000
  H   H2828     1.0  0.08120  0.58876  0.48658  1.0000
  H   H2829     1.0  0.10287  0.73458  0.48800  1.0000
  C   C1602     1.0  0.00120  0.66404  0.40407  1.0000
  C   C1603     1.0  0.08954  0.62914  0.48479  1.0000
  H   H2830     1.0  0.01188  0.73966  0.34824  1.0000
  C   C1604     1.0  0.01427  0.73802  0.36582  1.0000
  H   H2831     1.0  0.07960  0.62605  0.47367  1.0000
  H   H2832     1.0  0.07898  0.60898  0.48755  1.0000
  C   C1605     1.0  0.01883  0.73971  0.35250  1.0000
  Fe  Fe177     1.0  0.99867  0.68899  0.41248  1.0000
  S   S347      1.0  0.01106  0.60269  0.49047  1.0000
  H   H2833     1.0  0.00227  0.50096  0.38033  1.0000
  H   H2834     1.0  0.99609  0.56392  0.30647  1.0000
  H   H2835     1.0  0.11777  0.74232  0.47934  1.0000
  H   H2836     1.0  0.04117  0.49745  0.24569  1.0000
  C   C1606     1.0  0.08804  0.59081  0.48961  1.0000
  C   C1607     1.0  0.09635  0.73774  0.39323  1.0000
  H   H2837     1.0  0.09614  0.73594  0.40275  1.0000
  C   C1608     1.0  0.00144  0.49930  0.34548  1.0000
  H   H2838     1.0  0.00462  0.50580  0.35874  1.0000
  H   H2839     1.0  0.10565  0.52344  0.24193  1.0000
  H   H2840     1.0  0.00031  0.73675  0.43598  1.0000
  H   H2841     1.0  0.00855  0.49605  0.24658  1.0000
  C   C1609     1.0  0.10837  0.62042  0.49058  1.0000
  C   C1610     1.0  0.99993  0.61022  0.39677  1.0000
  H   H2842     1.0  0.00249  0.69352  0.45539  1.0000
  C   C1611     1.0  0.02597  0.49692  0.28769  1.0000
  H   H2843     1.0  0.00048  0.72796  0.38645  1.0000
  S   S348      1.0  0.05949  0.49517  0.26675  1.0000
  Fe  Fe178     1.0  0.05302  0.49494  0.28605  1.0000
  H   H2844     1.0  0.09242  0.51833  0.24466  1.0000
  H   H2845     1.0  0.00032  0.70841  0.46666  1.0000
  H   H2846     1.0  0.09879  0.70785  0.49017  1.0000
  H   H2847     1.0  0.06853  0.68851  0.49010  1.0000
  C   C1612     1.0  0.00165  0.66935  0.48965  1.0000
  C   C1613     1.0  0.99816  0.51254  0.39662  1.0000
  C   C1614     1.0  0.02821  0.49403  0.38219  1.0000
  S   S349      1.0  0.99678  0.53068  0.34063  1.0000
  H   H2848     1.0  0.99607  0.56879  0.40581  1.0000
  H   H2849     1.0  0.06699  0.49375  0.35804  1.0000
  H   H2850     1.0  0.13235  0.68703  0.50577  1.0000
  H   H2851     1.0  0.00882  0.66730  0.50435  1.0000
  N   N90       1.0  0.07638  0.49482  0.63433  1.0000
  H   H2852     1.0  0.07138  0.54941  0.57103  1.0000
  H   H2853     1.0  0.08284  0.62740  0.49313  1.0000
  C   C1615     1.0  0.08566  0.50172  0.61198  1.0000
  S   S350      1.0  0.08702  0.72734  0.52621  1.0000
  C   C1616     1.0  0.06460  0.54547  0.57009  1.0000
  H   H2854     1.0  0.05007  0.55737  0.57848  1.0000
  H   H2855     1.0  0.03909  0.58258  0.57317  1.0000
  H   H2856     1.0  0.05187  0.58983  0.55200  1.0000
  S   S351      1.0  0.05106  0.50659  0.59929  1.0000
  C   C1617     1.0  0.06146  0.54109  0.62618  1.0000
  S   S352      1.0  0.03131  0.51198  0.62313  1.0000
  H   H2857     1.0  0.10308  0.51440  0.72409  1.0000
  Fe  Fe179     1.0  0.04056  0.59564  0.51513  1.0000
  H   H2858     1.0  0.04775  0.65856  0.49450  1.0000
  C   C1618     1.0  0.11157  0.62547  0.50821  1.0000
  Fe  Fe180     1.0  0.01995  0.58542  0.53126  1.0000
  S   S353      1.0  0.00664  0.60097  0.52416  1.0000
  S   S354      1.0  0.01258  0.57265  0.54735  1.0000
  Fe  Fe181     1.0  0.01855  0.59952  0.50641  1.0000
  C   C1619     1.0  0.00296  0.52881  0.69215  1.0000
  Fe  Fe182     1.0  0.01827  0.61178  0.52517  1.0000
  S   S355      1.0  0.01338  0.62786  0.53263  1.0000
  S   S356      1.0  0.03100  0.58302  0.51339  1.0000
  S   S357      1.0  0.03070  0.59652  0.53355  1.0000
  H   H2859     1.0  0.06730  0.59999  0.54939  1.0000
  C   C1620     1.0  0.03378  0.52582  0.74116  1.0000
  H   H2860     1.0  0.07551  0.55464  0.72741  1.0000
  H   H2861     1.0  0.00010  0.65076  0.56781  1.0000
  C   C1621     1.0  0.07847  0.57493  0.70941  1.0000
  H   H2862     1.0  0.04416  0.52121  0.63752  1.0000
  H   H2863     1.0  0.04342  0.53617  0.54547  1.0000
  C   C1622     1.0  0.07925  0.50614  0.64824  1.0000
  C   C1623     1.0  0.05990  0.54532  0.63624  1.0000
  C   C1624     1.0  0.10263  0.55369  0.73145  1.0000
  H   H2864     1.0  0.02434  0.54597  0.65797  1.0000
  H   H2865     1.0  0.05495  0.56141  0.71145  1.0000
  C   C1625     1.0  0.02494  0.68259  0.53175  1.0000
  H   H2866     1.0  0.01332  0.57113  0.66189  1.0000
  C   C1626     1.0  0.05946  0.56341  0.52655  1.0000
  C   C1627     1.0  0.05310  0.56865  0.53735  1.0000
  Fe  Fe183     1.0  0.07881  0.66664  0.52864  1.0000
  S   S358      1.0  0.07428  0.54281  0.70437  1.0000
  H   H2867     1.0  0.08926  0.55351  0.71711  1.0000
  C   C1628     1.0  0.12138  0.69686  0.52767  1.0000
  H   H2868     1.0  0.05823  0.55435  0.52803  1.0000
  S   S359      1.0  0.07991  0.67538  0.54233  1.0000
  N   N91       1.0  0.03201  0.65235  0.49750  1.0000
  H   H2869     1.0  0.08709  0.59984  0.52967  1.0000
  H   H2870     1.0  0.01738  0.58774  0.57908  1.0000
  S   S360      1.0  0.06416  0.65810  0.53013  1.0000
  H   H2871     1.0  0.05446  0.57765  0.53543  1.0000
  C   C1629     1.0  0.01738  0.55384  0.56504  1.0000
  H   H2872     1.0  0.07188  0.52873  0.58065  1.0000
  Fe  Fe184     1.0  0.04832  0.52083  0.69927  1.0000
  C   C1630     1.0  0.04147  0.71363  0.52930  1.0000
  H   H2873     1.0  0.01064  0.50333  0.57634  1.0000
  H   H2874     1.0  0.05357  0.61830  0.51014  1.0000
  H   H2875     1.0  0.00659  0.73538  0.56376  1.0000
  H   H2876     1.0  0.02443  0.53721  0.62958  1.0000
  H   H2877     1.0  0.05486  0.55229  0.54966  1.0000
  H   H2878     1.0  0.00131  0.52435  0.73533  1.0000
  C   C1631     1.0  0.01581  0.51259  0.65119  1.0000
  C   C1632     1.0  0.00531  0.66384  0.55272  1.0000
  C   C1633     1.0  0.06574  0.53486  0.72779  1.0000
  H   H2879     1.0  0.01023  0.55886  0.57053  1.0000
  C   C1634     1.0  0.03306  0.53644  0.56308  1.0000
  H   H2880     1.0  0.03377  0.71497  0.52556  1.0000
  H   H2881     1.0  0.08996  0.57371  0.72046  1.0000
  H   H2882     1.0  0.05699  0.53034  0.57964  1.0000
  S   S361      1.0  0.06026  0.59326  0.51024  1.0000
  C   C1635     1.0  0.03861  0.64769  0.51725  1.0000
  C   C1636     1.0  0.00617  0.55431  0.65568  1.0000
  H   H2883     1.0  0.05896  0.70302  0.51251  1.0000
  S   S362      1.0  0.03271  0.53258  0.59896  1.0000
  C   C1637     1.0  0.04939  0.55600  0.73029  1.0000
  H   H2884     1.0  0.04090  0.69498  0.53489  1.0000
  C   C1638     1.0  0.00168  0.63882  0.52810  1.0000
  C   C1639     1.0  0.06567  0.60218  0.51564  1.0000
  C   C1640     1.0  0.07529  0.59707  0.52093  1.0000
  C   C1641     1.0  0.07987  0.60393  0.52527  1.0000
  C   C1642     1.0  0.07516  0.61602  0.52399  1.0000
  H   H2885     1.0  0.06356  0.49329  0.65095  1.0000
  H   H2886     1.0  0.09238  0.50488  0.59308  1.0000
  H   H2887     1.0  0.12683  0.55191  0.72522  1.0000
  H   H2888     1.0  0.07666  0.58468  0.70699  1.0000
  H   H2889     1.0  0.06547  0.58294  0.54328  1.0000
  H   H2890     1.0  0.03236  0.55576  0.53656  1.0000
  C   C1643     1.0  0.02595  0.49986  0.68395  1.0000
  H   H2891     1.0  0.00164  0.55147  0.66502  1.0000
  H   H2892     1.0  0.03388  0.51510  0.67600  1.0000
  H   H2893     1.0  0.00318  0.64663  0.55398  1.0000
  S   S363      1.0  0.02896  0.61181  0.50686  1.0000
  Fe  Fe185     1.0  0.09206  0.66047  0.50503  1.0000
  H   H2894     1.0  0.11527  0.73743  0.49935  1.0000
  C   C1644     1.0  0.11223  0.65453  0.54278  1.0000
  C   C1645     1.0  0.01988  0.55801  0.70439  1.0000
  H   H2895     1.0  0.99902  0.52411  0.65136  1.0000
  C   C1646     1.0  0.02052  0.55859  0.55297  1.0000
  H   H2896     1.0  0.05834  0.72482  0.56530  1.0000
  C   C1647     1.0  0.11419  0.67465  0.53005  1.0000
  H   H2897     1.0  0.11101  0.71443  0.52941  1.0000
  C   C1648     1.0  0.04738  0.70047  0.53000  1.0000
  H   H2898     1.0  0.01562  0.74213  0.53381  1.0000
  H   H2899     1.0  0.02080  0.70640  0.53987  1.0000
  C   C1649     1.0  0.05605  0.55441  0.71911  1.0000
  C   C1650     1.0  0.01644  0.69262  0.51487  1.0000
  C   C1651     1.0  0.11416  0.69501  0.51990  1.0000
  H   H2900     1.0  0.05536  0.72136  0.53661  1.0000
  C   C1652     1.0  0.05924  0.53653  0.73898  1.0000
  H   H2901     1.0  0.99695  0.73315  0.51497  1.0000
  H   H2902     1.0  0.03480  0.56658  0.55973  1.0000
  S   S364      1.0  0.05442  0.51639  0.68149  1.0000
  H   H2903     1.0  0.05579  0.56887  0.51886  1.0000
  C   C1653     1.0  0.08287  0.71380  0.53167  1.0000
  C   C1654     1.0  0.07864  0.70933  0.52465  1.0000
  C   C1655     1.0  0.07770  0.69755  0.52786  1.0000
  C   C1656     1.0  0.08053  0.69032  0.53830  1.0000
  C   C1657     1.0  0.08434  0.69494  0.54554  1.0000
  C   C1658     1.0  0.08574  0.70657  0.54211  1.0000
  H   H2904     1.0  0.06781  0.50077  0.61960  1.0000
  H   H2905     1.0  0.07486  0.69404  0.52222  1.0000
  H   H2906     1.0  0.08661  0.68939  0.55361  1.0000
  H   H2907     1.0  0.08927  0.70990  0.54745  1.0000
  H   H2908     1.0  0.07307  0.51361  0.63212  1.0000
  H   H2909     1.0  0.12387  0.71420  0.51739  1.0000
  C   C1659     1.0  0.04752  0.53171  0.64745  1.0000
  S   S365      1.0  0.05881  0.52695  0.61383  1.0000
  C   C1660     1.0  0.03562  0.67861  0.52429  1.0000
  H   H2910     1.0  0.04355  0.56934  0.53851  1.0000
  C   C1661     1.0  0.08577  0.50043  0.59979  1.0000
  H   H2911     1.0  0.10467  0.53440  0.72237  1.0000
  C   C1662     1.0  0.03405  0.57698  0.57178  1.0000
  H   H2912     1.0  0.07681  0.58657  0.55526  1.0000
  H   H2913     1.0  0.00537  0.69968  0.55709  1.0000
  H   H2914     1.0  0.07659  0.71480  0.51647  1.0000
  H   H2915     1.0  0.02528  0.51274  0.64899  1.0000
  H   H2916     1.0  0.04842  0.63922  0.49619  1.0000
  C   C1663     1.0  0.05310  0.54053  0.64693  1.0000
  Fe  Fe186     1.0  0.05701  0.53473  0.67504  1.0000
  H   H2917     1.0  0.04968  0.49427  0.70530  1.0000
  C   C1664     1.0  0.02956  0.50956  0.67353  1.0000
  H   H2918     1.0  0.10469  0.69804  0.52395  1.0000
  C   C1665     1.0  0.05956  0.72052  0.55794  1.0000
  H   H2919     1.0  0.09009  0.51588  0.73568  1.0000
  S   S366      1.0  0.07840  0.65193  0.50407  1.0000
  C   C1666     1.0  0.00831  0.52486  0.64779  1.0000
  N   N92       1.0  0.03798  0.71778  0.54064  1.0000
  C   C1667     1.0  0.03139  0.73053  0.53875  1.0000
  H   H2920     1.0  0.09139  0.60782  0.49970  1.0000
  C   C1668     1.0  0.03096  0.71010  0.55044  1.0000
  H   H2921     1.0  0.00814  0.53162  0.66242  1.0000
  C   C1669     1.0  0.02250  0.73483  0.53054  1.0000
  H   H2922     1.0  0.08532  0.49835  0.65227  1.0000
  Fe  Fe187     1.0  0.07832  0.64369  0.52305  1.0000
  H   H2923     1.0  0.04744  0.71894  0.52261  1.0000
  H   H2924     1.0  0.02642  0.73273  0.54739  1.0000
  H   H2925     1.0  0.03764  0.73647  0.53528  1.0000
  H   H2926     1.0  0.13499  0.67550  0.51795  1.0000
  C   C1670     1.0  0.00961  0.55126  0.63538  1.0000
  H   H2927     1.0  0.03651  0.70111  0.55270  1.0000
  H   H2928     1.0  0.02828  0.71351  0.55861  1.0000
  H   H2929     1.0  0.02295  0.55936  0.64671  1.0000
  H   H2930     1.0  0.02759  0.56241  0.66387  1.0000
  H   H2931     1.0  0.01778  0.72818  0.53085  1.0000
  H   H2932     1.0  0.01308  0.70140  0.56692  1.0000
  H   H2933     1.0  0.10156  0.61314  0.50927  1.0000
  C   C1671     1.0  0.10314  0.62168  0.50354  1.0000
  C   C1672     1.0  0.04023  0.57213  0.56050  1.0000
  C   C1673     1.0  0.00051  0.65025  0.52923  1.0000
  H   H2934     1.0  0.03294  0.56971  0.57962  1.0000
  H   H2935     1.0  0.02060  0.53293  0.65092  1.0000
  S   S367      1.0  0.09288  0.65128  0.52354  1.0000
  H   H2936     1.0  0.09028  0.53442  0.72148  1.0000
  H   H2937     1.0  0.02616  0.56276  0.61800  1.0000
  C   C1674     1.0  0.06095  0.61432  0.51428  1.0000
  H   H2938     1.0  0.02413  0.66123  0.51209  1.0000
  H   H2939     1.0  0.06994  0.56720  0.55964  1.0000
  S   S368      1.0  0.02315  0.50911  0.60057  1.0000
  H   H2940     1.0  0.09862  0.68451  0.51691  1.0000
  C   C1675     1.0  0.02994  0.55220  0.54590  1.0000
  H   H2941     1.0  0.01129  0.52152  0.57991  1.0000
  S   S369      1.0  0.06604  0.51454  0.70357  1.0000
  C   C1676     1.0  0.01367  0.53219  0.68715  1.0000
  H   H2942     1.0  0.05398  0.70774  0.54657  1.0000
  H   H2943     1.0  0.06721  0.55866  0.54622  1.0000
  H   H2944     1.0  0.03950  0.57973  0.55298  1.0000
  C   C1677     1.0  0.08326  0.51697  0.64820  1.0000
  H   H2945     1.0  0.04146  0.64567  0.53461  1.0000
  C   C1678     1.0  0.03616  0.54111  0.55096  1.0000
  C   C1679     1.0  0.02284  0.54649  0.63019  1.0000
  H   H2946     1.0  0.00849  0.51304  0.71874  1.0000
  C   C1680     1.0  0.01849  0.56200  0.66420  1.0000
  H   H2947     1.0  0.04432  0.73227  0.55250  1.0000
  C   C1681     1.0  0.02082  0.52141  0.70472  1.0000
  H   H2948     1.0  0.10421  0.51544  0.73823  1.0000
  H   H2949     1.0  0.06594  0.72435  0.55033  1.0000
  H   H2950     1.0  0.00992  0.52741  0.63811  1.0000
  H   H2951     1.0  0.06236  0.63064  0.51717  1.0000
  H   H2952     1.0  0.01292  0.71737  0.54844  1.0000
  H   H2953     1.0  0.08564  0.57142  0.70240  1.0000
  H   H2954     1.0  0.04174  0.71887  0.56267  1.0000
  Fe  Fe188     1.0  0.04509  0.52042  0.60998  1.0000
  H   H2955     1.0  0.11663  0.65569  0.54910  1.0000
  H   H2956     1.0  0.00210  0.50840  0.59729  1.0000
  H   H2957     1.0  0.07039  0.57214  0.70987  1.0000
  H   H2958     1.0  0.02887  0.65706  0.53129  1.0000
  C   C1682     1.0  0.06443  0.54394  0.71790  1.0000
  H   H2959     1.0  0.10493  0.67754  0.53480  1.0000
  C   C1683     1.0  0.05741  0.56074  0.54847  1.0000
  H   H2960     1.0  0.09259  0.50967  0.69649  1.0000
  C   C1684     1.0  0.03677  0.68166  0.51211  1.0000
  S   S370      1.0  0.04934  0.53966  0.69258  1.0000
  H   H2961     1.0  0.05475  0.69752  0.53450  1.0000
  H   H2962     1.0  0.03088  0.53097  0.68933  1.0000
  H   H2963     1.0  0.07208  0.52668  0.72686  1.0000
  C   C1685     1.0  0.06587  0.62128  0.51824  1.0000
  C   C1686     1.0  0.01416  0.69962  0.55815  1.0000
  H   H2964     1.0  0.02410  0.68016  0.54117  1.0000
  H   H2965     1.0  0.11511  0.53644  0.73374  1.0000
  H   H2966     1.0  0.07701  0.50462  0.59765  1.0000
  H   H2967     1.0  0.02823  0.64180  0.53470  1.0000
  S   S371      1.0  0.03232  0.51599  0.71213  1.0000
  H   H2968     1.0  0.04290  0.63842  0.51688  1.0000
  N   N93       1.0  0.00497  0.54670  0.64834  1.0000
  C   C1687     1.0  0.02258  0.52849  0.69341  1.0000
  H   H2969     1.0  0.06410  0.55222  0.63577  1.0000
  Fe  Fe189     1.0  0.01936  0.52273  0.61112  1.0000
  H   H2970     1.0  0.05998  0.53803  0.58888  1.0000
  Fe  Fe190     1.0  0.07243  0.51183  0.68508  1.0000
  H   H2971     1.0  0.01459  0.55789  0.67333  1.0000
  C   C1688     1.0  0.10772  0.68272  0.51142  1.0000
  C   C1689     1.0  0.99864  0.51006  0.63072  1.0000
  Fe  Fe191     1.0  0.03748  0.51817  0.58919  1.0000
  S   S372      1.0  0.05079  0.54667  0.65911  1.0000
  H   H2972     1.0  0.02133  0.55336  0.61195  1.0000
  C   C1690     1.0  0.01878  0.55483  0.65553  1.0000
  H   H2973     1.0  0.12545  0.71101  0.53234  1.0000
  H   H2974     1.0  0.02106  0.53929  0.57940  1.0000
  C   C1691     1.0  0.06324  0.53502  0.58046  1.0000
  C   C1692     1.0  0.08201  0.57054  0.72127  1.0000
  C   C1693     1.0  0.04777  0.72263  0.55470  1.0000
  C   C1694     1.0  0.03396  0.64812  0.53024  1.0000
  H   H2975     1.0  0.10608  0.55445  0.72179  1.0000
  H   H2976     1.0  0.06792  0.54195  0.56197  1.0000
  C   C1695     1.0  0.01532  0.68952  0.52706  1.0000
  C   C1696     1.0  0.01945  0.70892  0.54833  1.0000
  C   C1697     1.0  0.12035  0.70993  0.52659  1.0000
  H   H2977     1.0  0.00321  0.53021  0.56942  1.0000
  C   C1698     1.0  0.02717  0.68871  0.50739  1.0000
  C   C1699     1.0  0.07933  0.50561  0.63560  1.0000
  H   H2978     1.0  0.00911  0.69821  0.51118  1.0000
  H   H2979     1.0  0.99905  0.51004  0.56850  1.0000
  S   S373      1.0  0.10925  0.66185  0.49225  1.0000
  H   H2980     1.0  0.06330  0.59294  0.56460  1.0000
  C   C1700     1.0  0.06082  0.58430  0.55223  1.0000
  H   H2981     1.0  0.00437  0.55571  0.71773  1.0000
  H   H2982     1.0  0.07903  0.58773  0.52192  1.0000
  H   H2983     1.0  0.11311  0.49830  0.69484  1.0000
  C   C1701     1.0  0.09547  0.74047  0.49275  1.0000
  H   H2984     1.0  0.01480  0.66054  0.55281  1.0000
  C   C1702     1.0  0.01987  0.54383  0.72418  1.0000
  C   C1703     1.0  0.09858  0.51860  0.73170  1.0000
  H   H2985     1.0  0.04311  0.56421  0.73124  1.0000
  H   H2986     1.0  0.04807  0.71492  0.49402  1.0000
  H   H2987     1.0  0.11981  0.67516  0.53559  1.0000
  C   C1704     1.0  0.00997  0.51837  0.70992  1.0000
  C   C1705     1.0  0.09721  0.50860  0.70353  1.0000
  H   H2988     1.0  0.01518  0.56644  0.69964  1.0000
  H   H2989     1.0  0.08311  0.51707  0.65735  1.0000
  H   H2990     1.0  0.11795  0.69314  0.53708  1.0000
  H   H2991     1.0  0.12791  0.66258  0.50805  1.0000
  H   H2992     1.0  0.00237  0.72139  0.57009  1.0000
  C   C1706     1.0  0.00103  0.52213  0.70366  1.0000
  H   H2993     1.0  0.01858  0.50538  0.55507  1.0000
  H   H2994     1.0  0.02055  0.53685  0.71962  1.0000
  H   H2995     1.0  0.02911  0.54450  0.72290  1.0000
  H   H2996     1.0  0.01989  0.69073  0.55776  1.0000
  H   H2997     1.0  0.12018  0.61904  0.50766  1.0000
  H   H2998     1.0  0.02803  0.69122  0.49797  1.0000
  H   H2999     1.0  0.06322  0.71096  0.56076  1.0000
  H   H3000     1.0  0.02313  0.49375  0.68060  1.0000
  C   C1707     1.0  0.11657  0.66137  0.53039  1.0000
  H   H3001     1.0  0.02206  0.64667  0.51493  1.0000
  H   H3002     1.0  0.11212  0.65963  0.52451  1.0000
  C   C1708     1.0  0.08422  0.55694  0.72512  1.0000
  C   C1709     1.0  0.03629  0.49355  0.69014  1.0000
  H   H3003     1.0  0.07659  0.74192  0.49884  1.0000
  S   S374      1.0  0.05026  0.67728  0.50259  1.0000
  C   C1710     1.0  0.02852  0.65226  0.51050  1.0000
  H   H3004     1.0  0.05796  0.50314  0.63892  1.0000
  H   H3005     1.0  0.09238  0.51678  0.64291  1.0000
  H   H3006     1.0  0.10218  0.56245  0.73297  1.0000
  H   H3007     1.0  0.03563  0.50575  0.66610  1.0000
  N   N94       1.0  0.05278  0.56521  0.55977  1.0000
  Fe  Fe192     1.0  0.06769  0.53310  0.69536  1.0000
  H   H3008     1.0  0.11421  0.64502  0.54280  1.0000
  Fe  Fe193     1.0  0.06544  0.66708  0.51108  1.0000
  H   H3009     1.0  0.10255  0.65754  0.54572  1.0000
  C   C1711     1.0  0.11235  0.54452  0.73729  1.0000
  H   H3010     1.0  0.14664  0.65973  0.49351  1.0000
  S   S375      1.0  0.07568  0.52998  0.67714  1.0000
  C   C1712     1.0  0.13181  0.67029  0.50358  1.0000
  C   C1713     1.0  0.05578  0.53245  0.62657  1.0000
  H   H3011     1.0  0.05836  0.57371  0.57003  1.0000
  C   C1714     1.0  0.05271  0.55463  0.56993  1.0000
  H   H3012     1.0  0.03614  0.54957  0.61415  1.0000
  C   C1715     1.0  0.05209  0.69805  0.51766  1.0000
  N   N95       1.0  0.09045  0.55122  0.73513  1.0000
  H   H3013     1.0  0.12820  0.67456  0.49561  1.0000
  H   H3014     1.0  0.04295  0.67327  0.52801  1.0000
  H   H3015     1.0  0.06703  0.54462  0.61804  1.0000
  H   H3016     1.0  0.07465  0.57467  0.72774  1.0000
  H   H3017     1.0  0.03588  0.63343  0.50365  1.0000
  H   H3018     1.0  0.01273  0.52105  0.55254  1.0000
  H   H3019     1.0  0.01526  0.53726  0.67826  1.0000
  C   C1716     1.0  0.04866  0.52782  0.63719  1.0000
  S   S376      1.0  0.08086  0.62415  0.53006  1.0000
  H   H3020     1.0  0.07727  0.52513  0.64460  1.0000
  C   C1717     1.0  0.04921  0.71703  0.54417  1.0000
  C   C1718     1.0  0.01229  0.66719  0.49489  1.0000
  C   C1719     1.0  0.02681  0.55352  0.61780  1.0000
  H   H3021     1.0  0.04486  0.70057  0.51294  1.0000
  H   H3022     1.0  0.04209  0.52814  0.65567  1.0000
  H   H3023     1.0  0.12119  0.55716  0.73878  1.0000
  H   H3024     1.0  0.02226  0.59216  0.56336  1.0000
  H   H3025     1.0  0.06899  0.56327  0.52443  1.0000
  S   S377      1.0  0.04117  0.52274  0.56935  1.0000
  C   C1720     1.0  0.06064  0.57225  0.56092  1.0000
  H   H3026     1.0  0.02861  0.54678  0.63560  1.0000
  H   H3027     1.0  0.05599  0.68855  0.51835  1.0000
  C   C1721     1.0  0.06748  0.59132  0.55563  1.0000
  C   C1722     1.0  0.02783  0.73986  0.51764  1.0000
  C   C1723     1.0  0.01092  0.53410  0.65271  1.0000
  H   H3028     1.0  0.00674  0.50673  0.62492  1.0000
  C   C1724     1.0  0.02361  0.54283  0.57009  1.0000
  H   H3029     1.0  0.13083  0.69264  0.52515  1.0000
  H   H3030     1.0  0.04602  0.54989  0.57009  1.0000
  H   H3031     1.0  0.09079  0.50812  0.71214  1.0000
  H   H3032     1.0  0.04534  0.65305  0.51357  1.0000
  H   H3033     1.0  0.01457  0.50668  0.64636  1.0000
  C   C1725     1.0  0.02175  0.58447  0.57088  1.0000
  H   H3034     1.0  0.01627  0.57919  0.56964  1.0000
  H   H3035     1.0  0.01290  0.50897  0.66069  1.0000
  H   H3036     1.0  0.02506  0.55025  0.74043  1.0000
  H   H3037     1.0  0.12618  0.65775  0.52777  1.0000
  C   C1726     1.0  0.12915  0.67918  0.51158  1.0000
  S   S378      1.0  0.07926  0.67643  0.51007  1.0000
  H   H3038     1.0  0.11591  0.70127  0.51132  1.0000
  H   H3039     1.0  0.99657  0.66244  0.49414  1.0000
  C   C1727     1.0  0.08427  0.73671  0.49357  1.0000
  N   N96       1.0  0.11651  0.68268  0.51806  1.0000
  H   H3040     1.0  0.11205  0.49742  0.71020  1.0000
  H   H3041     1.0  0.10872  0.67387  0.50996  1.0000
  S   S379      1.0  0.00088  0.53208  0.61789  1.0000
  H   H3042     1.0  0.00474  0.54920  0.62996  1.0000
  C   C1728     1.0  0.10715  0.49754  0.70370  1.0000
  H   H3043     1.0  0.00116  0.55034  0.59344  1.0000
  H   H3044     1.0  0.01031  0.55782  0.74049  1.0000
  H   H3045     1.0  0.03873  0.52782  0.73191  1.0000
  H   H3046     1.0  0.00789  0.56103  0.63338  1.0000
  H   H3047     1.0  0.02682  0.49585  0.71182  1.0000
  H   H3048     1.0  0.08154  0.53682  0.74149  1.0000
  C   C1729     1.0  0.09630  0.53194  0.72757  1.0000
  H   H3049     1.0  0.08600  0.58852  0.49937  1.0000
  C   C1730     1.0  0.10820  0.69130  0.49915  1.0000
  C   C1731     1.0  0.99807  0.53393  0.73221  1.0000
  H   H3050     1.0  0.11663  0.69418  0.49563  1.0000
  H   H3051     1.0  0.08946  0.69949  0.50165  1.0000
  H   H3052     1.0  0.02162  0.51548  0.67074  1.0000
  H   H3053     1.0  0.03759  0.50711  0.74138  1.0000
  C   C1732     1.0  0.14504  0.66579  0.49944  1.0000
  N   N97       1.0  0.01440  0.54043  0.73710  1.0000
  H   H3054     1.0  0.08340  0.51129  0.61180  1.0000
  H   H3055     1.0  0.03839  0.50050  0.69295  1.0000
  H   H3056     1.0  0.02906  0.55861  0.70345  1.0000
  H   H3057     1.0  0.08808  0.50676  0.63013  1.0000
  S   S380      1.0  0.00197  0.69422  0.53653  1.0000
  H   H3058     1.0  0.00451  0.66723  0.54342  1.0000
  H   H3059     1.0  0.03301  0.73287  0.51282  1.0000
  C   C1733     1.0  0.03910  0.64020  0.49601  1.0000
  H   H3060     1.0  0.06426  0.49447  0.67791  1.0000
  H   H3061     1.0  0.03472  0.66981  0.49444  1.0000
  H   H3062     1.0  0.01357  0.56310  0.72100  1.0000
  H   H3063     1.0  0.09808  0.70739  0.50521  1.0000
  H   H3064     1.0  0.10086  0.51649  0.70170  1.0000
  H   H3065     1.0  0.09471  0.62829  0.50451  1.0000
  H   H3066     1.0  0.09638  0.73909  0.50189  1.0000
  H   H3067     1.0  0.14934  0.67321  0.49453  1.0000
  H   H3068     1.0  0.01957  0.52192  0.73693  1.0000
  H   H3069     1.0  0.00706  0.65227  0.53230  1.0000
  H   H3070     1.0  0.10765  0.68658  0.49277  1.0000
  H   H3071     1.0  0.14907  0.66088  0.50706  1.0000
  H   H3072     1.0  0.10774  0.62596  0.51758  1.0000
  C   C1734     1.0  0.01360  0.55568  0.71736  1.0000
  H   H3073     1.0  0.01583  0.64823  0.49765  1.0000
  Fe  Fe194     1.0  0.03616  0.49891  0.61169  1.0000
  C   C1735     1.0  0.09066  0.53824  0.73804  1.0000
  H   H3074     1.0  0.00174  0.53633  0.72264  1.0000
  H   H3075     1.0  0.99642  0.55028  0.73724  1.0000
  H   H3076     1.0  0.07027  0.50673  0.65395  1.0000
  C   C1736     1.0  0.09801  0.70214  0.49911  1.0000
  H   H3077     1.0  0.01826  0.50409  0.69003  1.0000
  H   H3078     1.0  0.02422  0.51440  0.56067  1.0000
  H   H3079     1.0  0.11295  0.63431  0.50315  1.0000
  C   C1737     1.0  0.07647  0.49564  0.62163  1.0000
  H   H3080     1.0  0.02002  0.55087  0.70026  1.0000
  C   C1738     1.0  0.01615  0.51322  0.55898  1.0000
  H   H3081     1.0  0.12410  0.73602  0.51585  1.0000
  C   C1739     1.0  0.12330  0.54937  0.73484  1.0000
  C   C1740     1.0  0.05119  0.54717  0.74026  1.0000
  S   S381      1.0  0.08654  0.49590  0.68116  1.0000
  C   C1741     1.0  0.99883  0.65389  0.55868  1.0000
  H   H3082     1.0  0.99674  0.54575  0.57671  1.0000
  C   C1742     1.0  0.00686  0.51146  0.57043  1.0000
  H   H3083     1.0  0.00168  0.67121  0.55739  1.0000
  C   C1743     1.0  0.99962  0.73096  0.56985  1.0000
  H   H3084     1.0  0.09467  0.49810  0.61347  1.0000
  C   C1744     1.0  0.06401  0.49454  0.64144  1.0000
  C   C1745     1.0  0.02083  0.65527  0.49315  1.0000
  H   H3085     1.0  0.00170  0.56361  0.65275  1.0000
  H   H3086     1.0  0.04035  0.49452  0.64407  1.0000
  H   H3087     1.0  0.99861  0.73227  0.57881  1.0000
  H   H3088     1.0  0.00007  0.52977  0.59582  1.0000
  H   H3089     1.0  0.08506  0.72732  0.49804  1.0000
  C   C1746     1.0  0.00358  0.52206  0.57639  1.0000
  H   H3090     1.0  0.13021  0.54254  0.73879  1.0000
  C   C1747     1.0  0.00142  0.54099  0.73914  1.0000
  C   C1748     1.0  0.02042  0.52799  0.74186  1.0000
  H   H3091     1.0  0.10671  0.52202  0.81429  1.0000
  H   H3092     1.0  0.06526  0.49838  0.75833  1.0000
  S   S382      1.0  0.03379  0.50338  0.79857  1.0000
  H   H3093     1.0  0.24173  0.49485  0.98194  1.0000
  H   H3094     1.0  0.10179  0.52099  0.76710  1.0000
  H   H3095     1.0  0.26376  0.50274  0.97785  1.0000
  C   C1749     1.0  0.28574  0.50059  0.90764  1.0000
  C   C1750     1.0  0.38735  0.50073  0.95967  1.0000
  C   C1751     1.0  0.00066  0.52013  0.78399  1.0000
  H   H3096     1.0  0.00455  0.53661  0.78291  1.0000
  S   S383      1.0  0.21101  0.55712  0.97382  1.0000
  H   H3097     1.0  0.99963  0.52884  0.81154  1.0000
  C   C1752     1.0  0.47298  0.73026  0.97721  1.0000
  Fe  Fe195     1.0  0.39397  0.55460  0.98406  1.0000
  H   H3098     1.0  0.44303  0.69079  0.99185  1.0000
  C   C1753     1.0  0.01587  0.54897  0.74322  1.0000
  Fe  Fe196     1.0  0.37488  0.54797  0.97658  1.0000
  H   H3099     1.0  0.27355  0.49700  0.92933  1.0000
  S   S384      1.0  0.35983  0.55388  0.96729  1.0000
  Fe  Fe197     1.0  0.39635  0.52933  0.98267  1.0000
  S   S385      1.0  0.40984  0.51315  0.97812  1.0000
  H   H3100     1.0  0.01682  0.49328  0.79470  1.0000
  C   C1754     1.0  0.43474  0.53684  0.96795  1.0000
  C   C1755     1.0  0.11175  0.50123  0.85838  1.0000
  S   S386      1.0  0.39430  0.54645  0.96934  1.0000
  H   H3101     1.0  0.02322  0.51760  0.84062  1.0000
  H   H3102     1.0  0.12109  0.53241  0.82979  1.0000
  C   C1756     1.0  0.48751  0.74071  0.93799  1.0000
  H   H3103     1.0  0.07410  0.55467  0.74797  1.0000
  H   H3104     1.0  0.40468  0.61493  0.98404  1.0000
  H   H3105     1.0  0.27604  0.49839  0.95876  1.0000
  S   S387      1.0  0.49126  0.68207  0.93561  1.0000
  C   C1757     1.0  0.47762  0.69901  0.98877  1.0000
  S   S388      1.0  0.47733  0.61296  0.96765  1.0000
  Fe  Fe198     1.0  0.05048  0.53514  0.76834  1.0000
  H   H3106     1.0  0.48262  0.72390  0.94454  1.0000
  Fe  Fe199     1.0  0.30941  0.51081  0.95016  1.0000
  S   S389      1.0  0.32070  0.51687  0.93258  1.0000
  H   H3107     1.0  0.31437  0.49558  0.90450  1.0000
  Fe  Fe200     1.0  0.30443  0.53446  0.95650  1.0000
  S   S390      1.0  0.31515  0.54225  0.93947  1.0000
  S   S391      1.0  0.29716  0.54486  0.97039  1.0000
  Fe  Fe201     1.0  0.30631  0.53317  0.93185  1.0000
  S   S392      1.0  0.29942  0.54219  0.91555  1.0000
  Fe  Fe202     1.0  0.32823  0.52504  0.94237  1.0000
  S   S393      1.0  0.34775  0.52253  0.94054  1.0000
  S   S394      1.0  0.29452  0.52665  0.94887  1.0000
  S   S395      1.0  0.31795  0.51781  0.95999  1.0000
  S   S396      1.0  0.46600  0.66810  0.96138  1.0000
  C   C1758     1.0  0.08312  0.55642  0.74557  1.0000
  C   C1759     1.0  0.17878  0.51795  0.91690  1.0000
  Fe  Fe203     1.0  0.22828  0.51291  0.91203  1.0000
  S   S397      1.0  0.22503  0.50052  0.92951  1.0000
  S   S398      1.0  0.22408  0.51205  0.89543  1.0000
  Fe  Fe204     1.0  0.23961  0.52737  0.92076  1.0000
  S   S399      1.0  0.23723  0.51631  0.93902  1.0000
  S   S400      1.0  0.24702  0.54358  0.91522  1.0000
  Fe  Fe205     1.0  0.24311  0.50117  0.93007  1.0000
  C   C1760     1.0  0.11117  0.50904  0.78028  1.0000
  Fe  Fe206     1.0  0.21942  0.51676  0.93682  1.0000
  S   S401      1.0  0.20387  0.51913  0.95185  1.0000
  S   S402      1.0  0.24705  0.51214  0.91188  1.0000
  S   S403      1.0  0.22113  0.52923  0.91928  1.0000
  Fe  Fe207     1.0  0.04678  0.51451  0.78852  1.0000
  S   S404      1.0  0.04433  0.53373  0.78786  1.0000
  H   H3108     1.0  0.00324  0.56302  0.76033  1.0000
  Fe  Fe208     1.0  0.06356  0.52873  0.78801  1.0000
  S   S405      1.0  0.07252  0.53666  0.79661  1.0000
  C   C1761     1.0  0.43325  0.69231  0.97895  1.0000
  C   C1762     1.0  0.26952  0.50482  0.98226  1.0000
  C   C1763     1.0  0.03587  0.49653  0.84329  1.0000
  N   N98       1.0  0.12428  0.50211  0.85674  1.0000
  H   H3109     1.0  0.26404  0.54564  0.96399  1.0000
  C   C1764     1.0  0.15506  0.56688  0.97139  1.0000
  S   S406      1.0  0.04357  0.54964  0.75428  1.0000
  H   H3110     1.0  0.13139  0.50606  0.83086  1.0000
  H   H3111     1.0  0.25288  0.53722  0.94639  1.0000
  H   H3112     1.0  0.00628  0.49886  0.85430  1.0000
  H   H3113     1.0  0.26134  0.57243  0.98717  1.0000
  H   H3114     1.0  0.44160  0.51234  0.97162  1.0000
  H   H3115     1.0  0.47524  0.73844  0.97134  1.0000
  N   N99       1.0  0.17288  0.52083  0.92882  1.0000
  C   C1765     1.0  0.20078  0.53959  0.97413  1.0000
  S   S407      1.0  0.44688  0.60554  0.98972  1.0000
  H   H3116     1.0  0.10941  0.54175  0.74692  1.0000
  H   H3117     1.0  0.01995  0.53866  0.76016  1.0000
  H   H3118     1.0  0.28103  0.57508  0.98449  1.0000
  H   H3119     1.0  0.01600  0.52490  0.75118  1.0000
  H   H3120     1.0  0.38398  0.50830  0.95298  1.0000
  H   H3121     1.0  0.08283  0.49918  0.82405  1.0000
  C   C1766     1.0  0.27956  0.55897  0.93831  1.0000
  H   H3122     1.0  0.17017  0.53983  0.92403  1.0000
  H   H3123     1.0  0.03552  0.53129  0.74612  1.0000
  H   H3124     1.0  0.35515  0.49897  0.95753  1.0000
  H   H3125     1.0  0.23054  0.57392  0.92304  1.0000
  H   H3126     1.0  0.28601  0.55044  0.93845  1.0000
  H   H3127     1.0  0.23386  0.55860  0.96246  1.0000
  H   H3128     1.0  0.22579  0.49421  0.96629  1.0000
  H   H3129     1.0  0.23843  0.54328  0.95354  1.0000
  H   H3130     1.0  0.11862  0.50568  0.77346  1.0000
  H   H3131     1.0  0.49522  0.63881  0.98200  1.0000
  H   H3132     1.0  0.46020  0.55549  0.97993  1.0000
  H   H3133     1.0  0.99874  0.50347  0.87360  1.0000
  H   H3134     1.0  0.07812  0.56757  0.76447  1.0000
  H   H3135     1.0  0.99938  0.50235  0.78614  1.0000
  C   C1767     1.0  0.20787  0.54744  0.96739  1.0000
  H   H3136     1.0  0.47067  0.67749  0.98057  1.0000
  C   C1768     1.0  0.45558  0.50088  0.97953  1.0000
  C   C1769     1.0  0.44249  0.68511  0.98636  1.0000
  H   H3137     1.0  0.12565  0.49553  0.81044  1.0000
  H   H3138     1.0  0.11038  0.49938  0.85051  1.0000
  H   H3139     1.0  0.06065  0.52963  0.74659  1.0000
  C   C1770     1.0  0.12736  0.52479  0.82647  1.0000
  C   C1771     1.0  0.01141  0.55643  0.76192  1.0000
  H   H3140     1.0  0.19643  0.54013  0.98308  1.0000
  H   H3141     1.0  0.14729  0.50563  0.88085  1.0000
  H   H3142     1.0  0.09727  0.50214  0.77866  1.0000
  C   C1772     1.0  0.19877  0.49323  0.90326  1.0000
  C   C1773     1.0  0.08125  0.52619  0.80568  1.0000
  C   C1774     1.0  0.09874  0.52021  0.81367  1.0000
  C   C1775     1.0  0.09150  0.52854  0.80665  1.0000
  H   H3143     1.0  0.08188  0.56613  0.74336  1.0000
  H   H3144     1.0  0.09390  0.53678  0.80188  1.0000
  C   C1776     1.0  0.20492  0.53037  0.95764  1.0000
  C   C1777     1.0  0.21159  0.53855  0.95073  1.0000
  C   C1778     1.0  0.21292  0.54718  0.95557  1.0000
  C   C1779     1.0  0.19933  0.53103  0.96928  1.0000
  H   H3145     1.0  0.21581  0.53820  0.94168  1.0000
  H   H3146     1.0  0.19407  0.52481  0.97460  1.0000
  H   H3147     1.0  0.14368  0.59730  0.96452  1.0000
  H   H3148     1.0  0.18905  0.49740  0.92923  1.0000
  H   H3149     1.0  0.27041  0.50981  0.89253  1.0000
  C   C1780     1.0  0.01419  0.50274  0.79211  1.0000
  H   H3150     1.0  0.15623  0.52985  0.92383  1.0000
  H   H3151     1.0  0.34956  0.49816  0.99152  1.0000
  H   H3152     1.0  0.46125  0.54084  0.96836  1.0000
  H   H3153     1.0  0.15801  0.51441  0.92895  1.0000
  C   C1781     1.0  0.13951  0.52362  0.94414  1.0000
  C   C1782     1.0  0.09561  0.50959  0.81995  1.0000
  C   C1783     1.0  0.21410  0.50441  0.89465  1.0000
  C   C1784     1.0  0.21391  0.50347  0.88351  1.0000
  C   C1785     1.0  0.20647  0.49725  0.88222  1.0000
  C   C1786     1.0  0.00420  0.50789  0.78733  1.0000
  C   C1787     1.0  0.35483  0.49983  0.92260  1.0000
  C   C1788     1.0  0.20648  0.49934  0.90457  1.0000
  H   H3154     1.0  0.21970  0.50744  0.87581  1.0000
  H   H3155     1.0  0.20663  0.49640  0.87354  1.0000
  H   H3156     1.0  0.31617  0.49503  0.98150  1.0000
  H   H3157     1.0  0.20671  0.49999  0.91318  1.0000
  H   H3158     1.0  0.15023  0.56483  0.96593  1.0000
  C   C1789     1.0  0.00734  0.52716  0.78525  1.0000
  C   C1790     1.0  0.01755  0.52202  0.78964  1.0000
  C   C1791     1.0  0.02093  0.50981  0.79318  1.0000
  H   H3159     1.0  0.09516  0.53343  0.74533  1.0000
  H   H3160     1.0  0.15178  0.53362  0.94330  1.0000
  H   H3161     1.0  0.01626  0.51150  0.86076  1.0000
  H   H3162     1.0  0.02265  0.52756  0.79049  1.0000
  C   C1792     1.0  0.46754  0.70410  0.98419  1.0000
  S   S408      1.0  0.48308  0.71616  0.92375  1.0000
  C   C1793     1.0  0.44376  0.54348  0.98030  1.0000
  C   C1794     1.0  0.05756  0.49355  0.83378  1.0000
  H   H3163     1.0  0.22428  0.57749  0.96754  1.0000
  H   H3164     1.0  0.29043  0.50322  0.94028  1.0000
  H   H3165     1.0  0.43823  0.50924  0.98741  1.0000
  C   C1795     1.0  0.28485  0.54212  0.91588  1.0000
  C   C1796     1.0  0.27928  0.55035  0.90740  1.0000
  C   C1797     1.0  0.26771  0.55064  0.90730  1.0000
  C   C1798     1.0  0.26171  0.54246  0.91543  1.0000
  C   C1799     1.0  0.26724  0.53413  0.92391  1.0000
  C   C1800     1.0  0.27876  0.53406  0.92424  1.0000
  H   H3166     1.0  0.28389  0.55661  0.90093  1.0000
  H   H3167     1.0  0.26344  0.55716  0.90079  1.0000
  H   H3168     1.0  0.26255  0.52788  0.93026  1.0000
  H   H3169     1.0  0.28300  0.52764  0.93079  1.0000
  H   H3170     1.0  0.41597  0.55969  0.95276  1.0000
  H   H3171     1.0  0.44995  0.55116  0.96147  1.0000
  H   H3172     1.0  0.09587  0.50467  0.79261  1.0000
  H   H3173     1.0  0.45577  0.52409  0.97084  1.0000
  H   H3174     1.0  0.29037  0.52296  0.97653  1.0000
  H   H3175     1.0  0.04841  0.51162  0.74557  1.0000
  C   C1801     1.0  0.47461  0.62822  0.96607  1.0000
  C   C1802     1.0  0.48322  0.63450  0.95931  1.0000
  C   C1803     1.0  0.48086  0.64677  0.95805  1.0000
  C   C1804     1.0  0.46976  0.65274  0.96326  1.0000
  C   C1805     1.0  0.46124  0.64640  0.96999  1.0000
  C   C1806     1.0  0.46371  0.63418  0.97156  1.0000
  C   C1807     1.0  0.28091  0.50107  0.92847  1.0000
  H   H3176     1.0  0.48744  0.65165  0.95277  1.0000
  H   H3177     1.0  0.45263  0.65095  0.97385  1.0000
  H   H3178     1.0  0.45701  0.62939  0.97671  1.0000
  C   C1808     1.0  0.35672  0.54378  0.96127  1.0000
  C   C1809     1.0  0.34496  0.54418  0.96174  1.0000
  C   C1810     1.0  0.34217  0.53734  0.95577  1.0000
  C   C1811     1.0  0.35113  0.53030  0.94897  1.0000
  C   C1812     1.0  0.36290  0.52968  0.94868  1.0000
  C   C1813     1.0  0.36571  0.53628  0.95494  1.0000
  H   H3179     1.0  0.33800  0.54987  0.96672  1.0000
  H   H3180     1.0  0.33305  0.53771  0.95626  1.0000
  H   H3181     1.0  0.36987  0.52427  0.94341  1.0000
  H   H3182     1.0  0.37481  0.53599  0.95445  1.0000
  H   H3183     1.0  0.38853  0.50408  0.96679  1.0000
  H   H3184     1.0  0.11603  0.51303  0.83553  1.0000
  H   H3185     1.0  0.13935  0.51456  0.94402  1.0000
  S   S409      1.0  0.05124  0.51641  0.76899  1.0000
  H   H3186     1.0  0.07087  0.55547  0.76888  1.0000
  H   H3187     1.0  0.17080  0.50480  0.94204  1.0000
  C   C1814     1.0  0.19834  0.49560  0.98182  1.0000
  S   S410      1.0  0.49581  0.67363  0.96253  1.0000
  H   H3188     1.0  0.13796  0.55855  0.98875  1.0000
  H   H3189     1.0  0.18676  0.56143  0.98964  1.0000
  H   H3190     1.0  0.15096  0.58167  0.98037  1.0000
  C   C1815     1.0  0.24783  0.54138  0.95395  1.0000
  H   H3191     1.0  0.09631  0.55550  0.75509  1.0000
  C   C1816     1.0  0.44877  0.52279  0.97898  1.0000
  H   H3192     1.0  0.23190  0.56751  0.94395  1.0000
  C   C1817     1.0  0.23248  0.57707  0.97012  1.0000
  H   H3193     1.0  0.48937  0.73630  0.90704  1.0000
  H   H3194     1.0  0.08309  0.51845  0.86367  1.0000
  H   H3195     1.0  0.03703  0.50165  0.84899  1.0000
  H   H3196     1.0  0.17973  0.53047  0.88704  1.0000
  H   H3197     1.0  0.02018  0.53260  0.81030  1.0000
  N   N100      1.0  0.43903  0.53373  0.97916  1.0000
  S   S411      1.0  0.40338  0.56959  0.97991  1.0000
  H   H3198     1.0  0.13852  0.57903  0.97725  1.0000
  H   H3199     1.0  0.10350  0.52015  0.85432  1.0000
  H   H3200     1.0  0.41699  0.65709  0.98821  1.0000
  H   H3201     1.0  0.31419  0.52081  0.90495  1.0000
  H   H3202     1.0  0.23209  0.57193  0.97931  1.0000
  H   H3203     1.0  0.44434  0.70451  0.96823  1.0000
  H   H3204     1.0  0.42633  0.60898  0.97458  1.0000
  C   C1818     1.0  0.40439  0.50021  0.98255  1.0000
  C   C1819     1.0  0.42567  0.54869  0.96587  1.0000
  C   C1820     1.0  0.30955  0.50474  0.90491  1.0000
  H   H3205     1.0  0.07010  0.51382  0.81137  1.0000
  N   N101      1.0  0.29081  0.49801  0.91831  1.0000
  H   H3206     1.0  0.14381  0.50645  0.86128  1.0000
  Fe  Fe209     1.0  0.46621  0.60538  0.98478  1.0000
  H   H3207     1.0  0.24439  0.51526  0.97456  1.0000
  C   C1821     1.0  0.47267  0.67091  0.98856  1.0000
  C   C1822     1.0  0.24361  0.52175  0.96618  1.0000
  H   H3208     1.0  0.23653  0.55547  0.93648  1.0000
  H   H3209     1.0  0.00944  0.51537  0.84068  1.0000
  H   H3210     1.0  0.09758  0.52524  0.78112  1.0000
  H   H3211     1.0  0.32092  0.49475  0.93350  1.0000
  C   C1823     1.0  0.43512  0.70475  0.97333  1.0000
  H   H3212     1.0  0.04430  0.49550  0.82468  1.0000
  C   C1824     1.0  0.29746  0.53367  0.98299  1.0000
  H   H3213     1.0  0.15838  0.58949  0.95904  1.0000
  H   H3214     1.0  0.35852  0.49894  0.93027  1.0000
  C   C1825     1.0  0.12541  0.50409  0.86809  1.0000
  N   N102      1.0  0.25148  0.55262  0.95286  1.0000
  Fe  Fe210     1.0  0.06981  0.51314  0.77066  1.0000
  C   C1826     1.0  0.08990  0.51054  0.86167  1.0000
  H   H3215     1.0  0.42848  0.62169  0.97806  1.0000
  H   H3216     1.0  0.25110  0.57153  0.96468  1.0000
  H   H3217     1.0  0.20270  0.50277  0.98095  1.0000
  H   H3218     1.0  0.19307  0.52571  0.93211  1.0000
  H   H3219     1.0  0.44226  0.53680  0.96016  1.0000
  C   C1827     1.0  0.41429  0.57019  0.98667  1.0000
  H   H3220     1.0  0.18679  0.50683  0.97029  1.0000
  C   C1828     1.0  0.14801  0.57913  0.97382  1.0000
  C   C1829     1.0  0.12521  0.51326  0.83490  1.0000
  H   H3221     1.0  0.32390  0.51245  0.98537  1.0000
  C   C1830     1.0  0.08528  0.50730  0.81914  1.0000
  C   C1831     1.0  0.24301  0.55866  0.96230  1.0000
  C   C1832     1.0  0.16777  0.55613  0.98564  1.0000
  H   H3222     1.0  0.13684  0.51238  0.84555  1.0000
  H   H3223     1.0  0.27487  0.56055  0.93122  1.0000
  H   H3224     1.0  0.16963  0.52411  0.97302  1.0000
  C   C1833     1.0  0.26396  0.54932  0.95451  1.0000
  H   H3225     1.0  0.40781  0.62652  0.98816  1.0000
  C   C1834     1.0  0.42068  0.57906  0.98161  1.0000
  C   C1835     1.0  0.42883  0.53180  0.98944  1.0000
  H   H3226     1.0  0.49166  0.62989  0.95503  1.0000
  H   H3227     1.0  0.12832  0.49360  0.79045  1.0000
  C   C1836     1.0  0.24328  0.57145  0.96174  1.0000
  C   C1837     1.0  0.43445  0.66782  0.98841  1.0000
  H   H3228     1.0  0.49324  0.72908  0.98104  1.0000
  H   H3229     1.0  0.08312  0.55451  0.77487  1.0000
  H   H3230     1.0  0.19629  0.50732  0.93157  1.0000
  H   H3231     1.0  0.10183  0.51367  0.86984  1.0000
  H   H3232     1.0  0.18385  0.55226  0.92385  1.0000
  H   H3233     1.0  0.14587  0.58671  0.95581  1.0000
  H   H3234     1.0  0.26552  0.56812  0.95001  1.0000
  H   H3235     1.0  0.43314  0.70987  0.98020  1.0000
  C   C1838     1.0  0.07289  0.49336  0.75341  1.0000
  H   H3236     1.0  0.10987  0.49355  0.86561  1.0000
  H   H3237     1.0  0.24329  0.57709  0.95284  1.0000
  S   S412      1.0  0.37698  0.53025  0.98857  1.0000
  C   C1839     1.0  0.00773  0.49978  0.87530  1.0000
  H   H3238     1.0  0.08951  0.50928  0.85307  1.0000
  H   H3239     1.0  0.24284  0.58786  0.98448  1.0000
  H   H3240     1.0  0.28455  0.56594  0.93610  1.0000
  C   C1840     1.0  0.42284  0.55142  0.95378  1.0000
  H   H3241     1.0  0.32790  0.52644  0.98123  1.0000
  H   H3242     1.0  0.24813  0.51730  0.95875  1.0000
  C   C1841     1.0  0.23891  0.56333  0.93730  1.0000
  H   H3243     1.0  0.47714  0.66230  0.98614  1.0000
  C   C1842     1.0  0.07951  0.55784  0.76682  1.0000
  H   H3244     1.0  0.46352  0.73090  0.97790  1.0000
  S   S413      1.0  0.47466  0.69669  0.95592  1.0000
  H   H3245     1.0  0.17628  0.52912  0.95787  1.0000
  H   H3246     1.0  0.25733  0.55486  0.93404  1.0000
  H   H3247     1.0  0.28079  0.55468  0.99000  1.0000
  C   C1843     1.0  0.42201  0.61790  0.97631  1.0000
  H   H3248     1.0  0.19823  0.54507  0.92666  1.0000
  H   H3249     1.0  0.12053  0.51308  0.86931  1.0000
  H   H3250     1.0  0.13545  0.52996  0.93704  1.0000
  H   H3251     1.0  0.33937  0.49444  0.98633  1.0000
  C   C1844     1.0  0.48842  0.72455  0.98955  1.0000
  H   H3252     1.0  0.11454  0.50996  0.78749  1.0000
  C   C1845     1.0  0.41142  0.61744  0.98670  1.0000
  H   H3253     1.0  0.99773  0.53753  0.74857  1.0000
  H   H3254     1.0  0.19201  0.53310  0.91724  1.0000
  H   H3255     1.0  0.00873  0.50411  0.88177  1.0000
  H   H3256     1.0  0.42413  0.69306  0.98429  1.0000
  H   H3257     1.0  0.18556  0.54450  0.93860  1.0000
  H   H3258     1.0  0.41946  0.54423  0.95284  1.0000
  C   C1846     1.0  0.15213  0.52461  0.94259  1.0000
  H   H3259     1.0  0.24441  0.55366  0.97115  1.0000
  H   H3260     1.0  0.18088  0.50658  0.98570  1.0000
  C   C1847     1.0  0.01910  0.51240  0.83735  1.0000
  C   C1848     1.0  0.16853  0.53116  0.96506  1.0000
  H   H3261     1.0  0.25863  0.52806  0.96548  1.0000
  Fe  Fe211     1.0  0.48053  0.67793  0.95406  1.0000
  H   H3262     1.0  0.42888  0.55618  0.96632  1.0000
  H   H3263     1.0  0.41910  0.62360  0.96829  1.0000
  H   H3264     1.0  0.23410  0.52504  0.96613  1.0000
  C   C1849     1.0  0.45323  0.54794  0.96969  1.0000
  H   H3265     1.0  0.24084  0.58037  0.92585  1.0000
  H   H3266     1.0  0.42408  0.52580  0.98817  1.0000
  H   H3267     1.0  0.23289  0.58617  0.96975  1.0000
  H   H3268     1.0  0.28443  0.51339  0.88455  1.0000
  C   C1850     1.0  0.12738  0.51241  0.84708  1.0000
  C   C1851     1.0  0.08811  0.55242  0.75679  1.0000
  H   H3269     1.0  0.43936  0.66750  0.97919  1.0000
  S   S414      1.0  0.37426  0.55764  0.99014  1.0000
  H   H3270     1.0  0.45919  0.49928  0.98742  1.0000
  H   H3271     1.0  0.19292  0.49810  0.95285  1.0000
  C   C1852     1.0  0.29975  0.50520  0.91631  1.0000
  H   H3272     1.0  0.01519  0.51360  0.82039  1.0000
  C   C1853     1.0  0.27999  0.51369  0.90318  1.0000
  H   H3273     1.0  0.17679  0.51418  0.94627  1.0000
  H   H3274     1.0  0.44783  0.54064  0.98806  1.0000
  H   H3275     1.0  0.02690  0.49385  0.82579  1.0000
  C   C1854     1.0  0.31857  0.51157  0.90429  1.0000
  C   C1855     1.0  0.27651  0.51547  0.89156  1.0000
  H   H3276     1.0  0.44917  0.56576  0.97252  1.0000
  H   H3277     1.0  0.30423  0.50230  0.92376  1.0000
  H   H3278     1.0  0.11144  0.52717  0.77130  1.0000
  H   H3279     1.0  0.42562  0.67339  0.98766  1.0000
  C   C1856     1.0  0.34703  0.49858  0.98334  1.0000
  H   H3280     1.0  0.16805  0.57427  0.98477  1.0000
  H   H3281     1.0  0.27706  0.51062  0.92674  1.0000
  H   H3282     1.0  0.29539  0.51459  0.91630  1.0000
  C   C1857     1.0  0.18263  0.52383  0.89463  1.0000
  H   H3283     1.0  0.43080  0.65093  0.97914  1.0000
  C   C1858     1.0  0.18888  0.54445  0.92909  1.0000
  H   H3284     1.0  0.27185  0.51660  0.90962  1.0000
  H   H3285     1.0  0.28596  0.51960  0.90172  1.0000
  C   C1859     1.0  0.17496  0.53218  0.92969  1.0000
  H   H3286     1.0  0.27774  0.50649  0.97582  1.0000
  C   C1860     1.0  0.15979  0.52232  0.93046  1.0000
  H   H3287     1.0  0.17117  0.53365  0.93877  1.0000
  C   C1861     1.0  0.27107  0.55917  0.95033  1.0000
  C   C1862     1.0  0.07814  0.51556  0.81192  1.0000
  H   H3288     1.0  0.40081  0.59739  0.98966  1.0000
  H   H3289     1.0  0.27194  0.52479  0.88888  1.0000
  C   C1863     1.0  0.42582  0.65117  0.98832  1.0000
  H   H3290     1.0  0.32332  0.50732  0.91150  1.0000
  H   H3291     1.0  0.08783  0.50280  0.86865  1.0000
  H   H3292     1.0  0.30579  0.50871  0.89700  1.0000
  Fe  Fe212     1.0  0.49076  0.69269  0.96305  1.0000
  C   C1864     1.0  0.01282  0.54577  0.75687  1.0000
  H   H3293     1.0  0.00999  0.53405  0.82416  1.0000
  H   H3294     1.0  0.15558  0.51831  0.95005  1.0000
  N   N103      1.0  0.33844  0.56975  0.92652  1.0000
  C   C1865     1.0  0.33600  0.58278  0.92132  1.0000
  C   C1866     1.0  0.35050  0.56584  0.92929  1.0000
  C   C1867     1.0  0.33877  0.56354  0.91718  1.0000
  C   C1868     1.0  0.32908  0.56631  0.93723  1.0000
  C   C1869     1.0  0.32324  0.57509  0.94550  1.0000
  C   C1870     1.0  0.32496  0.58771  0.91592  1.0000
  C   C1871     1.0  0.34294  0.54995  0.92009  1.0000
  C   C1872     1.0  0.35275  0.57171  0.93799  1.0000
  C   C1873     1.0  0.36588  0.56887  0.93783  1.0000
  C   C1874     1.0  0.31490  0.56978  0.95645  1.0000
  C   C1875     1.0  0.32133  0.60111  0.91387  1.0000
  C   C1876     1.0  0.34002  0.54431  0.91181  1.0000
  H   H3295     1.0  0.34367  0.58505  0.91425  1.0000
  H   H3296     1.0  0.33504  0.58789  0.92793  1.0000
  H   H3297     1.0  0.35247  0.55625  0.93327  1.0000
  H   H3298     1.0  0.35733  0.56713  0.92098  1.0000
  H   H3299     1.0  0.34462  0.56685  0.90870  1.0000
  H   H3300     1.0  0.32987  0.56549  0.91532  1.0000
  H   H3301     1.0  0.32168  0.56479  0.93459  1.0000
  H   H3302     1.0  0.33268  0.55776  0.94267  1.0000
  H   H3303     1.0  0.31791  0.58322  0.94100  1.0000
  H   H3304     1.0  0.32978  0.57764  0.94842  1.0000
  H   H3305     1.0  0.32689  0.58532  0.90727  1.0000
  H   H3306     1.0  0.31737  0.58406  0.92168  1.0000
  H   H3307     1.0  0.33872  0.54622  0.92919  1.0000
  H   H3308     1.0  0.35263  0.54735  0.91922  1.0000
  H   H3309     1.0  0.34985  0.58139  0.93593  1.0000
  H   H3310     1.0  0.34818  0.56821  0.94707  1.0000
  H   H3311     1.0  0.37088  0.57279  0.92913  1.0000
  H   H3312     1.0  0.36722  0.57254  0.94465  1.0000
  H   H3313     1.0  0.36943  0.55921  0.93981  1.0000
  H   H3314     1.0  0.31974  0.56170  0.96155  1.0000
  H   H3315     1.0  0.31075  0.57620  0.96220  1.0000
  H   H3316     1.0  0.30782  0.56751  0.95397  1.0000
  H   H3317     1.0  0.31365  0.60436  0.90967  1.0000
  H   H3318     1.0  0.31877  0.60397  0.92235  1.0000
  H   H3319     1.0  0.32866  0.60510  0.90796  1.0000
  H   H3320     1.0  0.34330  0.53462  0.91409  1.0000
  H   H3321     1.0  0.33035  0.54618  0.91271  1.0000
  H   H3322     1.0  0.34429  0.54763  0.90254  1.0000
  C   C1877     1.0  0.44508  0.51141  0.97942  1.0000
  H   H3323     1.0  0.17601  0.53601  0.90603  1.0000
  C   C1878     1.0  0.45681  0.55815  0.97176  1.0000
  H   H3324     1.0  0.27649  0.55781  0.95679  1.0000
  S   S415      1.0  0.49166  0.69691  0.97951  1.0000
  H   H3325     1.0  0.05912  0.49683  0.84075  1.0000
  S   S416      1.0  0.08633  0.50381  0.76033  1.0000
  H   H3326     1.0  0.26926  0.54197  0.95008  1.0000
  H   H3327     1.0  0.14950  0.54520  0.97671  1.0000
  C   C1879     1.0  0.25105  0.55981  0.94060  1.0000
  H   H3328     1.0  0.12121  0.49800  0.87580  1.0000
  H   H3329     1.0  0.41735  0.54823  0.97256  1.0000
  H   H3330     1.0  0.15984  0.53792  0.98560  1.0000
  H   H3331     1.0  0.18848  0.51656  0.91532  1.0000
  H   H3332     1.0  0.08993  0.54274  0.75988  1.0000
  H   H3333     1.0  0.12599  0.52502  0.81774  1.0000
  S   S417      1.0  0.06556  0.50937  0.79030  1.0000
  H   H3334     1.0  0.34583  0.50550  0.92396  1.0000
  H   H3335     1.0  0.22185  0.49311  0.98159  1.0000
  H   H3336     1.0  0.16579  0.52772  0.90611  1.0000
  C   C1880     1.0  0.42943  0.57986  0.98668  1.0000
  C   C1881     1.0  0.02122  0.51651  0.82376  1.0000
  C   C1882     1.0  0.48582  0.72887  0.92562  1.0000
  H   H3337     1.0  0.43081  0.55259  0.94672  1.0000
  H   H3338     1.0  0.19203  0.52350  0.89390  1.0000
  H   H3339     1.0  0.33473  0.49737  0.96901  1.0000
  C   C1883     1.0  0.23916  0.57200  0.92543  1.0000
  H   H3340     1.0  0.24479  0.53536  0.97336  1.0000
  H   H3341     1.0  0.36031  0.50424  0.91451  1.0000
  H   H3342     1.0  0.13416  0.52554  0.95275  1.0000
  H   H3343     1.0  0.24609  0.56820  0.91844  1.0000
  H   H3344     1.0  0.13652  0.52555  0.82534  1.0000
  C   C1884     1.0  0.48511  0.73048  0.93681  1.0000
  H   H3345     1.0  0.25408  0.56801  0.93891  1.0000
  H   H3346     1.0  0.18141  0.49426  0.98006  1.0000
  C   C1885     1.0  0.24919  0.53182  0.96535  1.0000
  C   C1886     1.0  0.39383  0.49958  0.99091  1.0000
  C   C1887     1.0  0.27337  0.50089  0.95023  1.0000
  H   H3347     1.0  0.12258  0.52085  0.84980  1.0000
  C   C1888     1.0  0.17505  0.52718  0.90612  1.0000
  C   C1889     1.0  0.36697  0.49848  0.97170  1.0000
  H   H3348     1.0  0.17710  0.50948  0.91663  1.0000
  C   C1890     1.0  0.01709  0.50188  0.86396  1.0000
  C   C1891     1.0  0.34263  0.51179  0.97799  1.0000
  C   C1892     1.0  0.13817  0.50245  0.86944  1.0000
  N   N104      1.0  0.15668  0.55690  0.98194  1.0000
  H   H3349     1.0  0.41892  0.58529  0.97364  1.0000
  H   H3350     1.0  0.26481  0.51294  0.98557  1.0000
  C   C1893     1.0  0.01906  0.52990  0.82000  1.0000
  C   C1894     1.0  0.19222  0.49353  0.94643  1.0000
  H   H3351     1.0  0.03026  0.51293  0.81925  1.0000
  H   H3352     1.0  0.43034  0.53003  0.96777  1.0000
  H   H3353     1.0  0.42912  0.70931  0.96725  1.0000
  H   H3354     1.0  0.30554  0.54176  0.99137  1.0000
  H   H3355     1.0  0.36880  0.50019  0.97950  1.0000
  H   H3356     1.0  0.36428  0.50727  0.96604  1.0000
  H   H3357     1.0  0.00453  0.54268  0.76045  1.0000
  S   S418      1.0  0.10500  0.49926  0.82845  1.0000
  C   C1895     1.0  0.17696  0.51082  0.93856  1.0000
  H   H3358     1.0  0.46832  0.70724  0.97484  1.0000
  H   H3359     1.0  0.34893  0.51692  0.97784  1.0000
  H   H3360     1.0  0.34176  0.51309  0.96885  1.0000
  C   C1896     1.0  0.10510  0.52136  0.77461  1.0000
  Fe  Fe213     1.0  0.48671  0.70055  0.93830  1.0000
  H   H3361     1.0  0.08421  0.49369  0.80411  1.0000
  H   H3362     1.0  0.18177  0.51513  0.89414  1.0000
  C   C1897     1.0  0.10238  0.50093  0.78534  1.0000
  N   N105      1.0  0.02322  0.49943  0.84227  1.0000
  H   H3363     1.0  0.21811  0.55343  0.95024  1.0000
  H   H3364     1.0  0.45103  0.68416  0.97977  1.0000
  H   H3365     1.0  0.47835  0.72279  0.97309  1.0000
  S   S419      1.0  0.06939  0.53199  0.76846  1.0000
  C   C1898     1.0  0.10205  0.51217  0.86118  1.0000
  H   H3366     1.0  0.45325  0.52106  0.98631  1.0000
  C   C1899     1.0  0.18794  0.53310  0.92666  1.0000
  C   C1900     1.0  0.18917  0.50248  0.93550  1.0000
  H   H3367     1.0  0.39608  0.49594  0.95546  1.0000
  H   H3368     1.0  0.02551  0.53313  0.82248  1.0000
  H   H3369     1.0  0.42217  0.54019  0.98990  1.0000
  C   C1901     1.0  0.16782  0.54309  0.96739  1.0000
  C   C1902     1.0  0.15795  0.54557  0.97835  1.0000
  C   C1903     1.0  0.16773  0.56596  0.99145  1.0000
  H   H3370     1.0  0.32510  0.51167  0.89578  1.0000
  H   H3371     1.0  0.03449  0.51050  0.75574  1.0000
  C   C1904     1.0  0.28421  0.49799  0.94055  1.0000
  H   H3372     1.0  0.45696  0.66256  0.98585  1.0000
  H   H3373     1.0  0.16043  0.53119  0.96255  1.0000
  C   C1905     1.0  0.29361  0.52367  0.98367  1.0000
  C   C1906     1.0  0.33070  0.51697  0.98523  1.0000
  C   C1907     1.0  0.14908  0.58871  0.96258  1.0000
  C   C1908     1.0  0.13826  0.50799  0.87926  1.0000
  H   H3374     1.0  0.43649  0.55117  0.98213  1.0000
  C   C1909     1.0  0.03883  0.51295  0.74631  1.0000
  H   H3375     1.0  0.17541  0.55618  0.97798  1.0000
  H   H3376     1.0  0.16625  0.54988  0.95938  1.0000
  H   H3377     1.0  0.30084  0.57486  0.98662  1.0000
  H   H3378     1.0  0.20759  0.49355  0.96443  1.0000
  C   C1910     1.0  0.29738  0.56675  0.98970  1.0000
  H   H3379     1.0  0.16378  0.56788  0.96551  1.0000
  C   C1911     1.0  0.47512  0.72877  0.98941  1.0000
  H   H3380     1.0  0.02575  0.49786  0.86636  1.0000
  H   H3381     1.0  0.43445  0.58657  0.98256  1.0000
  H   H3382     1.0  0.24605  0.49606  0.96612  1.0000
  H   H3383     1.0  0.27871  0.49570  0.90952  1.0000
  H   H3384     1.0  0.01902  0.56062  0.75784  1.0000
  C   C1912     1.0  0.48890  0.73748  0.91568  1.0000
  H   H3385     1.0  0.29254  0.49731  0.90025  1.0000
  H   H3386     1.0  0.00391  0.50090  0.83336  1.0000
  C   C1913     1.0  0.08413  0.49483  0.75255  1.0000
  C   C1914     1.0  0.04517  0.49905  0.83177  1.0000
  H   H3387     1.0  0.26677  0.49589  0.95090  1.0000
  H   H3388     1.0  0.46261  0.50239  0.97148  1.0000
  H   H3389     1.0  0.04448  0.50868  0.82871  1.0000
  H   H3390     1.0  0.15780  0.49740  0.96142  1.0000
  H   H3391     1.0  0.49598  0.61939  0.97821  1.0000
  H   H3392     1.0  0.13548  0.51771  0.87678  1.0000
  C   C1915     1.0  0.18614  0.50113  0.97924  1.0000
  H   H3393     1.0  0.48696  0.74193  0.94662  1.0000
  H   H3394     1.0  0.49105  0.71507  0.98935  1.0000
  H   H3395     1.0  0.43411  0.68801  0.97168  1.0000
  H   H3396     1.0  0.46384  0.56101  0.96425  1.0000
  H   H3397     1.0  0.44867  0.71008  0.98822  1.0000
  C   C1916     1.0  0.01580  0.49627  0.85450  1.0000
  H   H3398     1.0  0.17651  0.54287  0.96871  1.0000
  H   H3399     1.0  0.01085  0.55368  0.77153  1.0000
  H   H3400     1.0  0.06404  0.49585  0.82552  1.0000
  H   H3401     1.0  0.13224  0.50474  0.88757  1.0000
  H   H3402     1.0  0.34010  0.49773  0.94791  1.0000
  H   H3403     1.0  0.30064  0.56182  0.98254  1.0000
  H   H3404     1.0  0.26934  0.51046  0.94845  1.0000
  C   C1917     1.0  0.45640  0.70582  0.99177  1.0000
  H   H3405     1.0  0.47875  0.67384  0.99179  1.0000
  H   H3406     1.0  0.17017  0.54757  0.99170  1.0000
  C   C1918     1.0  0.14590  0.55810  0.99186  1.0000
  H   H3407     1.0  0.17756  0.52429  0.99175  1.0000
  Fe  Fe214     1.0  0.46667  0.77470  0.05461  1.0000
  S   S420      1.0  0.47030  0.77406  0.03558  1.0000
  S   S421      1.0  0.46654  0.79217  0.05807  1.0000
  H   H3408     1.0  0.48987  0.96529  0.16073  1.0000
  H   H3409     1.0  0.46507  0.81724  0.10793  1.0000
  H   H3410     1.0  0.39370  0.75792  0.03416  1.0000
  S   S422      1.0  0.47774  0.75667  0.06002  1.0000
  H   H3411     1.0  0.47814  0.85181  0.05016  1.0000
  Fe  Fe215     1.0  0.45461  0.76612  0.04077  1.0000
  C   C1919     1.0  0.45879  0.93444  0.17210  1.0000
  S   S423      1.0  0.46482  0.74754  0.04442  1.0000
  S   S424      1.0  0.45005  0.76807  0.05941  1.0000
  H   H3412     1.0  0.45069  0.82969  0.99661  1.0000
  H   H3413     1.0  0.49344  0.96720  0.21569  1.0000
  C   C1920     1.0  0.48391  0.87408  0.18572  1.0000
  H   H3414     1.0  0.46797  0.91246  0.16486  1.0000
  C   C1921     1.0  0.43520  0.95648  0.23002  1.0000
  H   H3415     1.0  0.46282  0.82891  0.09103  1.0000
  H   H3416     1.0  0.48081  0.85290  0.01917  1.0000
  S   S425      1.0  0.47384  0.88791  0.20172  1.0000
  C   C1922     1.0  0.49272  0.93041  0.16357  1.0000
  H   H3417     1.0  0.48132  0.90754  0.16976  1.0000
  H   H3418     1.0  0.43053  0.75654  0.06934  1.0000
  H   H3419     1.0  0.45746  0.93089  0.16523  1.0000
  Fe  Fe216     1.0  0.48173  0.92406  0.20749  1.0000
  H   H3420     1.0  0.47253  0.79932  0.12133  1.0000
  C   C1923     1.0  0.47766  0.91116  0.16183  1.0000
  H   H3421     1.0  0.46447  0.84973  0.99215  1.0000
  H   H3422     1.0  0.47923  0.86083  0.03563  1.0000
  H   H3423     1.0  0.47276  0.93711  0.17786  1.0000
  H   H3424     1.0  0.46908  0.81875  0.08139  1.0000
  S   S426      1.0  0.48345  0.94047  0.19365  1.0000
  H   H3425     1.0  0.42745  0.76714  0.01650  1.0000
  H   H3426     1.0  0.47365  0.92227  0.17874  1.0000
  S   S427      1.0  0.44024  0.77090  0.03099  1.0000
  C   C1924     1.0  0.48129  0.95879  0.13452  1.0000
  H   H3427     1.0  0.48481  0.75745  0.01173  1.0000
  C   C1925     1.0  0.47939  0.79483  0.05989  1.0000
  C   C1926     1.0  0.48030  0.80649  0.05819  1.0000
  C   C1927     1.0  0.49002  0.80891  0.06043  1.0000
  H   H3428     1.0  0.48377  0.82998  0.00188  1.0000
  H   H3429     1.0  0.49262  0.93749  0.16781  1.0000
  C   C1928     1.0  0.48840  0.78561  0.06358  1.0000
  H   H3430     1.0  0.47338  0.81366  0.05529  1.0000
  C   C1929     1.0  0.44749  0.96141  0.24102  1.0000
  H   H3431     1.0  0.40761  0.75762  0.05182  1.0000
  H   H3432     1.0  0.48877  0.94020  0.13701  1.0000
  H   H3433     1.0  0.47335  0.95821  0.13212  1.0000
  C   C1930     1.0  0.45092  0.92997  0.18385  1.0000
  C   C1931     1.0  0.44499  0.76671  0.01744  1.0000
  H   H3434     1.0  0.49455  0.94818  0.14368  1.0000
  C   C1932     1.0  0.44017  0.76273  0.00110  1.0000
  H   H3435     1.0  0.49172  0.79470  0.00185  1.0000
  H   H3436     1.0  0.46042  0.95264  0.18949  1.0000
  H   H3437     1.0  0.48887  0.78071  0.01092  1.0000
  H   H3438     1.0  0.46215  0.83870  0.07049  1.0000
  H   H3439     1.0  0.48386  0.80263  0.08617  1.0000
  H   H3440     1.0  0.47898  0.96605  0.13923  1.0000
  N   N106      1.0  0.48323  0.81264  0.09872  1.0000
  H   H3441     1.0  0.44628  0.96999  0.19621  1.0000
  C   C1933     1.0  0.48188  0.90175  0.15452  1.0000
  S   S428      1.0  0.44768  0.98497  0.21007  1.0000
  H   H3442     1.0  0.44368  0.82431  0.03183  1.0000
  Fe  Fe217     1.0  0.49210  0.90346  0.22506  1.0000
  H   H3443     1.0  0.47104  0.80060  0.01035  1.0000
  H   H3444     1.0  0.45579  0.94417  0.16984  1.0000
  H   H3445     1.0  0.46734  0.82110  0.13169  1.0000
  H   H3446     1.0  0.49465  0.76881  0.03906  1.0000
  C   C1934     1.0  0.46553  0.81283  0.13114  1.0000
  H   H3447     1.0  0.47037  0.83634  0.01047  1.0000
  C   C1935     1.0  0.47189  0.93110  0.17290  1.0000
  H   H3448     1.0  0.43487  0.81458  0.03199  1.0000
  H   H3449     1.0  0.48950  0.82087  0.08064  1.0000
  C   C1936     1.0  0.47047  0.82619  0.08404  1.0000
  H   H3450     1.0  0.45713  0.81957  0.01331  1.0000
  H   H3451     1.0  0.45634  0.80678  0.02504  1.0000
  H   H3452     1.0  0.45095  0.96766  0.23298  1.0000
  C   C1937     1.0  0.44492  0.95158  0.23691  1.0000
  H   H3453     1.0  0.45334  0.92022  0.18640  1.0000
  H   H3454     1.0  0.48307  0.83093  0.09014  1.0000
  H   H3455     1.0  0.43529  0.80715  0.99481  1.0000
  H   H3456     1.0  0.47646  0.95079  0.15910  1.0000
  H   H3457     1.0  0.47501  0.92674  0.14838  1.0000
  H   H3458     1.0  0.46987  0.95553  0.23354  1.0000
  C   C1938     1.0  0.48464  0.88353  0.18969  1.0000
  H   H3459     1.0  0.48996  0.92084  0.14871  1.0000
  H   H3460     1.0  0.48780  0.77661  0.06487  1.0000
  H   H3461     1.0  0.45178  0.93369  0.19087  1.0000
  H   H3462     1.0  0.42679  0.96017  0.23570  1.0000
  H   H3463     1.0  0.49224  0.91728  0.18018  1.0000
  C   C1939     1.0  0.48764  0.78973  0.10123  1.0000
  H   H3464     1.0  0.40198  0.76865  0.03286  1.0000
  H   H3465     1.0  0.48796  0.96085  0.12629  1.0000
  C   C1940     1.0  0.39706  0.76216  0.03914  1.0000
  C   C1941     1.0  0.47976  0.83691  0.00705  1.0000
  Fe  Fe218     1.0  0.46153  0.74988  0.06274  1.0000
  N   N107      1.0  0.48548  0.83482  0.01723  1.0000
  Fe  Fe219     1.0  0.46615  0.91405  0.23001  1.0000
  C   C1942     1.0  0.49376  0.88938  0.18389  1.0000
  H   H3466     1.0  0.43387  0.94930  0.22689  1.0000
  C   C1943     1.0  0.47558  0.98577  0.17391  1.0000
  H   H3467     1.0  0.46009  0.98874  0.16759  1.0000
  S   S429      1.0  0.48179  0.92177  0.22643  1.0000
  H   H3468     1.0  0.49161  0.86312  0.17305  1.0000
  H   H3469     1.0  0.47863  0.98798  0.18062  1.0000
  C   C1944     1.0  0.40497  0.75294  0.04669  1.0000
  H   H3470     1.0  0.38942  0.76694  0.04486  1.0000
  C   C1945     1.0  0.48106  0.92295  0.15455  1.0000
  H   H3471     1.0  0.47141  0.84441  0.07574  1.0000
  H   H3472     1.0  0.44158  0.93270  0.18312  1.0000
  H   H3473     1.0  0.47690  0.86949  0.19019  1.0000
  C   C1946     1.0  0.47405  0.81620  0.10919  1.0000
  H   H3474     1.0  0.39966  0.74691  0.05302  1.0000
  C   C1947     1.0  0.45137  0.81353  0.01882  1.0000
  H   H3475     1.0  0.47897  0.89361  0.15983  1.0000
  C   C1948     1.0  0.47461  0.80765  0.12123  1.0000
  H   H3476     1.0  0.41630  0.75371  0.07130  1.0000
  Fe  Fe220     1.0  0.48006  0.75561  0.04137  1.0000
  H   H3477     1.0  0.47681  0.97607  0.17581  1.0000
  C   C1949     1.0  0.48115  0.84217  0.03658  1.0000
  C   C1950     1.0  0.46254  0.95680  0.19517  1.0000
  H   H3478     1.0  0.42747  0.75482  0.05053  1.0000
  N   N108      1.0  0.48076  0.93184  0.16130  1.0000
  C   C1951     1.0  0.47317  0.95234  0.19883  1.0000
  H   H3479     1.0  0.48946  0.84925  0.99355  1.0000
  H   H3480     1.0  0.47020  0.97202  0.21528  1.0000
  C   C1952     1.0  0.47575  0.85323  0.04163  1.0000
  H   H3481     1.0  0.48336  0.80579  0.12331  1.0000
  H   H3482     1.0  0.45288  0.94738  0.23105  1.0000
  H   H3483     1.0  0.43565  0.82771  0.02043  1.0000
  H   H3484     1.0  0.47427  0.82505  0.10996  1.0000
  H   H3485     1.0  0.49509  0.96807  0.19481  1.0000
  H   H3486     1.0  0.46333  0.76586  0.01570  1.0000
  C   C1953     1.0  0.45688  0.76498  0.01164  1.0000
  H   H3487     1.0  0.47822  0.90480  0.14651  1.0000
  H   H3488     1.0  0.46912  0.84539  0.02539  1.0000
  H   H3489     1.0  0.46596  0.80647  0.13967  1.0000
  C   C1954     1.0  0.42980  0.74674  0.05720  1.0000
  C   C1955     1.0  0.48217  0.82282  0.08827  1.0000
  H   H3490     1.0  0.49047  0.94340  0.23223  1.0000
  H   H3491     1.0  0.45752  0.98801  0.18307  1.0000
  H   H3492     1.0  0.48106  0.98875  0.16512  1.0000
  Fe  Fe221     1.0  0.47715  0.90015  0.21067  1.0000
  C   C1956     1.0  0.43666  0.76562  0.01214  1.0000
  H   H3493     1.0  0.46890  0.94550  0.15176  1.0000
  H   H3494     1.0  0.47791  0.83426  0.06604  1.0000
  S   S430      1.0  0.47642  0.89553  0.23005  1.0000
  H   H3495     1.0  0.46601  0.85537  0.04302  1.0000
  C   C1957     1.0  0.45455  0.96661  0.19896  1.0000
  N   N109      1.0  0.45722  0.80322  0.00133  1.0000
  C   C1958     1.0  0.48109  0.80218  0.09581  1.0000
  C   C1959     1.0  0.45741  0.97226  0.20601  1.0000
  H   H3496     1.0  0.47150  0.80239  0.09805  1.0000
  C   C1960     1.0  0.44070  0.82046  0.02619  1.0000
  C   C1961     1.0  0.48949  0.78644  0.00196  1.0000
  C   C1962     1.0  0.49261  0.75685  0.00430  1.0000
  H   H3497     1.0  0.43762  0.96344  0.22227  1.0000
  C   C1963     1.0  0.48638  0.94715  0.14212  1.0000
  C   C1964     1.0  0.46803  0.96778  0.20970  1.0000
  C   C1965     1.0  0.47052  0.83652  0.07344  1.0000
  S   S431      1.0  0.46517  0.91791  0.21111  1.0000
  C   C1966     1.0  0.47574  0.95763  0.20636  1.0000
  H   H3498     1.0  0.44945  0.78861  0.00356  1.0000
  C   C1967     1.0  0.47755  0.94408  0.15397  1.0000
  H   H3499     1.0  0.48376  0.95393  0.20950  1.0000
  H   H3500     1.0  0.48387  0.78107  0.08965  1.0000
  C   C1968     1.0  0.44763  0.80744  0.01125  1.0000
  H   H3501     1.0  0.42112  0.75325  0.03387  1.0000
  H   H3502     1.0  0.41310  0.74397  0.03218  1.0000
  S   S432      1.0  0.49378  0.90658  0.20563  1.0000
  H   H3503     1.0  0.45649  0.81467  0.12970  1.0000
  H   H3504     1.0  0.49062  0.81788  0.05921  1.0000
  H   H3505     1.0  0.48673  0.78840  0.11080  1.0000
  H   H3506     1.0  0.43953  0.74371  0.05523  1.0000
  C   C1969     1.0  0.48303  0.78017  0.09919  1.0000
  H   H3507     1.0  0.48821  0.77137  0.10266  1.0000
  C   C1970     1.0  0.42592  0.74992  0.06926  1.0000
  H   H3508     1.0  0.47364  0.78074  0.10377  1.0000
  H   H3509     1.0  0.49165  0.89955  0.15192  1.0000
  C   C1971     1.0  0.41601  0.74643  0.03890  1.0000
  C   C1972     1.0  0.47793  0.78921  0.99807  1.0000
  C   C1973     1.0  0.49222  0.87049  0.17602  1.0000
  H   H3510     1.0  0.48995  0.76230  0.99611  1.0000
  C   C1974     1.0  0.46030  0.76269  0.00028  1.0000
  H   H3511     1.0  0.43370  0.76189  0.99703  1.0000
  C   C1975     1.0  0.47880  0.84423  0.02414  1.0000
  H   H3512     1.0  0.43419  0.78762  0.99373  1.0000
  H   H3513     1.0  0.47720  0.83497  0.04278  1.0000
  H   H3514     1.0  0.47563  0.82357  0.03131  1.0000
  C   C1976     1.0  0.45274  0.79567  0.99638  1.0000
  H   H3515     1.0  0.46435  0.78846  0.01405  1.0000
  H   H3516     1.0  0.47872  0.81417  0.01511  1.0000
  C   C1977     1.0  0.48452  0.82297  0.02529  1.0000
  C   C1978     1.0  0.49558  0.81006  0.10055  1.0000
  C   C1979     1.0  0.48605  0.81258  0.01950  1.0000
  S   S433      1.0  0.49489  0.98870  0.22511  1.0000
  H   H3517     1.0  0.47696  0.80150  0.03453  1.0000
  H   H3518     1.0  0.49436  0.89662  0.18697  1.0000
  C   C1980     1.0  0.48584  0.80109  0.02866  1.0000
  H   H3519     1.0  0.48789  0.79363  0.02430  1.0000
  H   H3520     1.0  0.43990  0.81340  0.00799  1.0000
  H   H3521     1.0  0.49577  0.88003  0.20980  1.0000
  H   H3522     1.0  0.49245  0.79938  0.03399  1.0000
  H   H3523     1.0  0.44413  0.79987  0.01745  1.0000
  H   H3524     1.0  0.49067  0.83975  0.03643  1.0000
  H   H3525     1.0  0.49094  0.82027  0.03106  1.0000
  H   H3526     1.0  0.46937  0.76179  0.99558  1.0000
  H   H3527     1.0  0.49438  0.81125  0.01291  1.0000
  H   H3528     1.0  0.46900  0.81529  0.99364  1.0000
  H   H3529     1.0  0.47596  0.85636  0.00218  1.0000
  C   C1981     1.0  0.46743  0.79544  0.00658  1.0000
  C   C1982     1.0  0.46259  0.99154  0.17429  1.0000
  C   C1983     1.0  0.45193  0.76155  0.99503  1.0000
  C   C1984     1.0  0.48022  0.84874  0.99797  1.0000
  H   H3530     1.0  0.47620  0.78080  0.99788  1.0000
  H   H3531     1.0  0.49272  0.82391  0.11032  1.0000
  Fe  Fe222     1.0  0.41646  0.96232  0.47172  1.0000
  S   S434      1.0  0.42012  0.94442  0.46783  1.0000
  S   S435      1.0  0.44979  0.91867  0.24365  1.0000
  Fe  Fe223     1.0  0.39846  0.97325  0.45667  1.0000
  S   S436      1.0  0.40023  0.95650  0.45137  1.0000
  H   H3532     1.0  0.47078  0.96552  0.30612  1.0000
  Fe  Fe224     1.0  0.40052  0.94790  0.47018  1.0000
  H   H3533     1.0  0.10631  0.99037  0.45630  1.0000
  Fe  Fe225     1.0  0.41966  0.95444  0.44921  1.0000
  S   S437      1.0  0.39702  0.96484  0.47570  1.0000
  S   S438      1.0  0.41783  0.97201  0.45286  1.0000
  H   H3534     1.0  0.05808  0.77597  0.37838  1.0000
  H   H3535     1.0  0.49239  0.95468  0.43789  1.0000
  S   S439      1.0  0.37743  0.90441  0.45376  1.0000
  H   H3536     1.0  0.34779  0.85014  0.46966  1.0000
  C   C1985     1.0  0.36985  0.90458  0.41978  1.0000
  S   S440      1.0  0.34092  0.87772  0.44383  1.0000
  C   C1986     1.0  0.06843  0.81393  0.39248  1.0000
  H   H3537     1.0  0.43664  0.91058  0.28631  1.0000
  S   S441      1.0  0.34642  0.90556  0.44949  1.0000
  H   H3538     1.0  0.20877  0.91243  0.47097  1.0000
  C   C1987     1.0  0.45156  0.94914  0.26037  1.0000
  H   H3539     1.0  0.00377  0.79568  0.47828  1.0000
  H   H3540     1.0  0.11897  0.80350  0.45605  1.0000
  H   H3541     1.0  0.05780  0.75247  0.38157  1.0000
  S   S442      1.0  0.33954  0.97706  0.43077  1.0000
  C   C1988     1.0  0.16000  0.83241  0.47431  1.0000
  H   H3542     1.0  0.48253  0.97027  0.31761  1.0000
  C   C1989     1.0  0.04809  0.85633  0.48974  1.0000
  C   C1990     1.0  0.04489  0.84001  0.41085  1.0000
  S   S443      1.0  0.09157  0.82121  0.48532  1.0000
  C   C1991     1.0  0.34200  0.85654  0.47501  1.0000
  Fe  Fe226     1.0  0.32956  0.97565  0.41852  1.0000
  S   S444      1.0  0.32952  0.95830  0.41553  1.0000
  C   C1992     1.0  0.06831  0.77272  0.47450  1.0000
  H   H3543     1.0  0.12450  0.95186  0.46648  1.0000
  H   H3544     1.0  0.40917  0.99192  0.40650  1.0000
  C   C1993     1.0  0.19884  0.88755  0.47683  1.0000
  H   H3545     1.0  0.03717  0.75151  0.43902  1.0000
  H   H3546     1.0  0.46339  0.93048  0.38703  1.0000
  Fe  Fe227     1.0  0.10213  0.82684  0.46721  1.0000
  H   H3547     1.0  0.02697  0.80567  0.39226  1.0000
  S   S445      1.0  0.09802  0.82178  0.45249  1.0000
  Fe  Fe228     1.0  0.11324  0.84219  0.47527  1.0000
  C   C1994     1.0  0.11026  0.78427  0.44620  1.0000
  S   S446      1.0  0.12597  0.85442  0.46889  1.0000
  H   H3548     1.0  0.10038  0.77207  0.46975  1.0000
  C   C1995     1.0  0.42719  0.95073  0.40151  1.0000
  H   H3549     1.0  0.99725  0.74796  0.48864  1.0000
  S   S447      1.0  0.01163  0.76314  0.42048  1.0000
  S   S448      1.0  0.11907  0.82346  0.47293  1.0000
  S   S449      1.0  0.09720  0.84602  0.46783  1.0000
  Fe  Fe229     1.0  0.27561  0.87591  0.46368  1.0000
  H   H3550     1.0  0.05394  0.80189  0.38611  1.0000
  S   S450      1.0  0.29054  0.86882  0.44969  1.0000
  Fe  Fe230     1.0  0.24941  0.87818  0.47467  1.0000
  H   H3551     1.0  0.35422  0.96122  0.48695  1.0000
  S   S451      1.0  0.23319  0.87223  0.47570  1.0000
  Fe  Fe231     1.0  0.26123  0.89762  0.47273  1.0000
  H   H3552     1.0  0.44656  0.92366  0.45871  1.0000
  S   S452      1.0  0.25948  0.88920  0.45920  1.0000
  S   S453      1.0  0.26540  0.86404  0.47789  1.0000
  S   S454      1.0  0.31946  0.92599  0.46584  1.0000
  H   H3553     1.0  0.47810  0.91857  0.35262  1.0000
  S   S455      1.0  0.27794  0.88517  0.47609  1.0000
  Fe  Fe232     1.0  0.02374  0.77410  0.40786  1.0000
  S   S456      1.0  0.00947  0.78865  0.40132  1.0000
  S   S457      1.0  0.48399  0.92493  0.28630  1.0000
  Fe  Fe233     1.0  0.00999  0.79669  0.41566  1.0000
  H   H3554     1.0  0.34354  0.95583  0.47322  1.0000
  H   H3555     1.0  0.43373  0.93740  0.27466  1.0000
  H   H3556     1.0  0.36311  0.98196  0.48797  1.0000
  S   S458      1.0  0.02534  0.78281  0.42115  1.0000
  H   H3557     1.0  0.31568  0.95096  0.45818  1.0000
  C   C1996     1.0  0.32488  0.96187  0.47518  1.0000
  Fe  Fe234     1.0  0.48413  0.96865  0.38873  1.0000
  Fe  Fe235     1.0  0.02016  0.86700  0.46526  1.0000
  H   H3558     1.0  0.19928  0.95667  0.47720  1.0000
  S   S459      1.0  0.03505  0.87604  0.46148  1.0000
  Fe  Fe236     1.0  0.01587  0.84718  0.45753  1.0000
  H   H3559     1.0  0.08708  0.80777  0.39279  1.0000
  S   S460      1.0  0.02600  0.83243  0.44820  1.0000
  C   C1997     1.0  0.04546  0.81985  0.40839  1.0000
  H   H3560     1.0  0.30533  0.86300  0.47926  1.0000
  H   H3561     1.0  0.03555  0.80258  0.40941  1.0000
  H   H3562     1.0  0.44642  0.98361  0.24423  1.0000
  S   S461      1.0  0.01285  0.86663  0.45035  1.0000
  S   S462      1.0  0.02430  0.84748  0.47153  1.0000
  C   C1998     1.0  0.36781  0.96305  0.44423  1.0000
  H   H3563     1.0  0.04779  0.75509  0.44438  1.0000
  H   H3564     1.0  0.15258  0.84746  0.46181  1.0000
  N   N110      1.0  0.05146  0.80699  0.40953  1.0000
  S   S463      1.0  0.26094  0.97859  0.42860  1.0000
  H   H3565     1.0  0.43260  0.94408  0.39630  1.0000
  Fe  Fe237     1.0  0.25046  0.96779  0.42549  1.0000
  S   S464      1.0  0.25860  0.94983  0.42181  1.0000
  C   C1999     1.0  0.44803  0.97870  0.25304  1.0000
  S   S465      1.0  0.03914  0.76664  0.39480  1.0000
  C   C2000     1.0  0.29652  0.98725  0.36432  1.0000
  C   C2001     1.0  0.13667  0.74789  0.46457  1.0000
  Fe  Fe238     1.0  0.10442  0.76254  0.43619  1.0000
  Fe  Fe239     1.0  0.49005  0.95886  0.36689  1.0000
  S   S466      1.0  0.11524  0.76985  0.44365  1.0000
  S   S467      1.0  0.08555  0.77511  0.40125  1.0000
  S   S468      1.0  0.08599  0.74724  0.42622  1.0000
  H   H3566     1.0  0.09323  0.74736  0.39007  1.0000
  C   C2002     1.0  0.43638  0.96792  0.29421  1.0000
  H   H3567     1.0  0.42839  0.97019  0.29061  1.0000
  H   H3568     1.0  0.42707  0.94793  0.28387  1.0000
  H   H3569     1.0  0.34615  0.97451  0.49103  1.0000
  C   C2003     1.0  0.09961  0.87585  0.47240  1.0000
  C   C2004     1.0  0.20906  0.90318  0.47253  1.0000
  H   H3570     1.0  0.04547  0.82450  0.42460  1.0000
  H   H3571     1.0  0.45953  0.97263  0.42781  1.0000
  H   H3572     1.0  0.30619  0.99132  0.47988  1.0000
  H   H3573     1.0  0.14509  0.88159  0.47605  1.0000
  H   H3574     1.0  0.99742  0.74956  0.36348  1.0000
  C   C2005     1.0  0.15627  0.83786  0.46260  1.0000
  S   S469      1.0  0.00775  0.81630  0.41299  1.0000
  H   H3575     1.0  0.00044  0.75174  0.39661  1.0000
  C   C2006     1.0  0.44340  0.92304  0.33837  1.0000
  C   C2007     1.0  0.47860  0.93929  0.33509  1.0000
  H   H3576     1.0  0.04318  0.81529  0.38837  1.0000
  H   H3577     1.0  0.08935  0.79343  0.47068  1.0000
  C   C2008     1.0  0.06631  0.75568  0.46923  1.0000
  H   H3578     1.0  0.46337  0.93155  0.46656  1.0000
  H   H3579     1.0  0.32639  0.85234  0.47428  1.0000
  H   H3580     1.0  0.45936  0.98943  0.25385  1.0000
  H   H3581     1.0  0.46208  0.96502  0.25967  1.0000
  C   C2009     1.0  0.11345  0.80009  0.45286  1.0000
  H   H3582     1.0  0.46060  0.97618  0.32119  1.0000
  H   H3583     1.0  0.10177  0.86628  0.47616  1.0000
  H   H3584     1.0  0.44194  0.94471  0.24447  1.0000
  H   H3585     1.0  0.30472  0.84937  0.46782  1.0000
  C   C2010     1.0  0.44429  0.95385  0.42605  1.0000
  C   C2011     1.0  0.01108  0.82072  0.42401  1.0000
  H   H3586     1.0  0.13042  0.97497  0.45310  1.0000
  C   C2012     1.0  0.01197  0.83631  0.43254  1.0000
  C   C2013     1.0  0.01912  0.82811  0.43969  1.0000
  C   C2014     1.0  0.02184  0.81623  0.43926  1.0000
  C   C2015     1.0  0.01752  0.81249  0.43175  1.0000
  H   H3587     1.0  0.46417  0.94404  0.37632  1.0000
  C   C2016     1.0  0.04494  0.80134  0.40455  1.0000
  H   H3588     1.0  0.02762  0.80991  0.44448  1.0000
  H   H3589     1.0  0.01969  0.80330  0.43150  1.0000
  C   C2017     1.0  0.26166  0.92534  0.45728  1.0000
  C   C2018     1.0  0.26233  0.92075  0.44769  1.0000
  C   C2019     1.0  0.26168  0.92826  0.43668  1.0000
  C   C2020     1.0  0.26039  0.94034  0.43527  1.0000
  C   C2021     1.0  0.26031  0.94483  0.44471  1.0000
  C   C2022     1.0  0.26100  0.93732  0.45568  1.0000
  H   H3590     1.0  0.26316  0.91149  0.44877  1.0000
  H   H3591     1.0  0.26201  0.92475  0.42931  1.0000
  H   H3592     1.0  0.25970  0.95411  0.44360  1.0000
  H   H3593     1.0  0.38200  0.91422  0.41979  1.0000
  H   H3594     1.0  0.13409  0.74621  0.45721  1.0000
  Fe  Fe240     1.0  0.99732  0.77844  0.41517  1.0000
  C   C2023     1.0  0.09470  0.75359  0.48661  1.0000
  C   C2024     1.0  0.04453  0.86890  0.47113  1.0000
  C   C2025     1.0  0.05644  0.86935  0.46751  1.0000
  C   C2026     1.0  0.06428  0.86285  0.47479  1.0000
  H   H3595     1.0  0.04293  0.76890  0.47106  1.0000
  H   H3596     1.0  0.44222  0.88776  0.36969  1.0000
  H   H3597     1.0  0.05964  0.87452  0.45897  1.0000
  H   H3598     1.0  0.07351  0.86294  0.47182  1.0000
  C   C2027     1.0  0.22002  0.88289  0.47510  1.0000
  C   C2028     1.0  0.20955  0.87926  0.47706  1.0000
  C   C2029     1.0  0.14921  0.83344  0.48480  1.0000
  C   C2030     1.0  0.29994  0.84477  0.47630  1.0000
  H   H3599     1.0  0.47686  0.89551  0.34783  1.0000
  C   C2031     1.0  0.12848  0.86235  0.47783  1.0000
  H   H3600     1.0  0.08409  0.81622  0.37875  1.0000
  H   H3601     1.0  0.11183  0.75231  0.46772  1.0000
  N   N111      1.0  0.12729  0.98621  0.46526  1.0000
  H   H3602     1.0  0.43481  0.91258  0.26602  1.0000
  H   H3603     1.0  0.12517  0.76484  0.46412  1.0000
  C   C2032     1.0  0.14829  0.98499  0.45184  1.0000
  H   H3604     1.0  0.05866  0.74855  0.36234  1.0000
  H   H3605     1.0  0.28498  0.99089  0.46667  1.0000
  H   H3606     1.0  0.08722  0.80803  0.44485  1.0000
  H   H3607     1.0  0.28057  0.93193  0.47913  1.0000
  S   S470      1.0  0.18544  0.91008  0.47332  1.0000
  C   C2033     1.0  0.46055  0.93603  0.37892  1.0000
  S   S471      1.0  0.45417  0.91406  0.29544  1.0000
  H   H3608     1.0  0.06775  0.82239  0.39471  1.0000
  H   H3609     1.0  0.13853  0.95313  0.45638  1.0000
  H   H3610     1.0  0.48533  0.98268  0.30563  1.0000
  C   C2034     1.0  0.32092  0.93500  0.45175  1.0000
  C   C2035     1.0  0.10268  0.80716  0.45064  1.0000
  N   N112      1.0  0.35117  0.97569  0.47231  1.0000
  H   H3611     1.0  0.03718  0.79178  0.39089  1.0000
  C   C2036     1.0  0.15463  0.96622  0.48854  1.0000
  H   H3612     1.0  0.48100  0.90487  0.36257  1.0000
  H   H3613     1.0  0.45976  0.94335  0.44558  1.0000
  N   N113      1.0  0.21057  0.97347  0.47702  1.0000
  C   C2037     1.0  0.45954  0.90006  0.36752  1.0000
  C   C2038     1.0  0.48434  0.94582  0.34936  1.0000
  Fe  Fe241     1.0  0.01169  0.77330  0.43320  1.0000
  C   C2039     1.0  0.48652  0.93803  0.34202  1.0000
  H   H3614     1.0  0.46530  0.97136  0.24439  1.0000
  C   C2040     1.0  0.16058  0.98636  0.45121  1.0000
  C   C2041     1.0  0.09939  0.79128  0.44421  1.0000
  H   H3615     1.0  0.04076  0.80321  0.42706  1.0000
  H   H3616     1.0  0.10917  0.87309  0.45500  1.0000
  N   N114      1.0  0.45595  0.95736  0.24912  1.0000
  C   C2042     1.0  0.00369  0.79636  0.46044  1.0000
  C   C2043     1.0  0.33886  0.97489  0.47287  1.0000
  H   H3617     1.0  0.03185  0.74931  0.46068  1.0000
  C   C2044     1.0  0.46628  0.95619  0.34278  1.0000
  C   C2045     1.0  0.32713  0.87440  0.44626  1.0000
  C   C2046     1.0  0.31772  0.87819  0.45509  1.0000
  C   C2047     1.0  0.30658  0.87626  0.45633  1.0000
  C   C2048     1.0  0.30467  0.87060  0.44873  1.0000
  C   C2049     1.0  0.31414  0.86655  0.44003  1.0000
  C   C2050     1.0  0.32535  0.86839  0.43884  1.0000
  H   H3618     1.0  0.07629  0.77933  0.38096  1.0000
  H   H3619     1.0  0.29945  0.87937  0.46305  1.0000
  H   H3620     1.0  0.31277  0.86209  0.43413  1.0000
  N   N115      1.0  0.42703  0.98359  0.39928  1.0000
  C   C2051     1.0  0.05424  0.78369  0.43903  1.0000
  Fe  Fe242     1.0  0.47517  0.98338  0.36716  1.0000
  C   C2052     1.0  0.32114  0.95436  0.43930  1.0000
  C   C2053     1.0  0.32541  0.94946  0.42935  1.0000
  C   C2054     1.0  0.32712  0.93735  0.43057  1.0000
  C   C2055     1.0  0.32497  0.93011  0.44180  1.0000
  H   H3621     1.0  0.43621  0.95970  0.30111  1.0000
  H   H3622     1.0  0.31988  0.96368  0.43846  1.0000
  H   H3623     1.0  0.33043  0.93354  0.42288  1.0000
  H   H3624     1.0  0.32634  0.92076  0.44275  1.0000
  H   H3625     1.0  0.42869  0.97882  0.30669  1.0000
  H   H3626     1.0  0.41559  0.98002  0.42460  1.0000
  H   H3627     1.0  0.31746  0.96839  0.47915  1.0000
  C   C2056     1.0  0.00813  0.83263  0.42453  1.0000
  H   H3628     1.0  0.46216  0.92153  0.45193  1.0000
  S   S472      1.0  0.48479  0.94203  0.30284  1.0000
  C   C2057     1.0  0.38606  0.98432  0.43219  1.0000
  H   H3629     1.0  0.49063  0.96793  0.30324  1.0000
  C   C2058     1.0  0.45585  0.99216  0.39883  1.0000
  H   H3630     1.0  0.00359  0.76600  0.47603  1.0000
  H   H3631     1.0  0.45000  0.88110  0.38148  1.0000
  C   C2059     1.0  0.38548  0.92797  0.47257  1.0000
  C   C2060     1.0  0.37423  0.92585  0.47526  1.0000
  C   C2061     1.0  0.37172  0.91884  0.46932  1.0000
  C   C2062     1.0  0.38045  0.91375  0.46077  1.0000
  C   C2063     1.0  0.39163  0.91626  0.45771  1.0000
  C   C2064     1.0  0.39414  0.92344  0.46357  1.0000
  S   S473      1.0  0.47141  0.92014  0.31474  1.0000
  H   H3632     1.0  0.36297  0.91755  0.47120  1.0000
  H   H3633     1.0  0.39841  0.91250  0.45097  1.0000
  H   H3634     1.0  0.40285  0.92515  0.46138  1.0000
  C   C2065     1.0  0.13979  0.98713  0.46366  1.0000
  H   H3635     1.0  0.22786  0.89770  0.47129  1.0000
  S   S474      1.0  0.23645  0.96962  0.44180  1.0000
  H   H3636     1.0  0.43966  0.97642  0.25834  1.0000
  H   H3637     1.0  0.12879  0.96220  0.47926  1.0000
  C   C2066     1.0  0.10026  0.87748  0.45931  1.0000
  C   C2067     1.0  0.44268  0.91390  0.26748  1.0000
  H   H3638     1.0  0.32309  0.95297  0.47916  1.0000
  S   S475      1.0  0.99643  0.78793  0.42887  1.0000
  C   C2068     1.0  0.46119  0.98173  0.31211  1.0000
  H   H3639     1.0  0.22696  0.90902  0.48567  1.0000
  N   N116      1.0  0.45757  0.95005  0.46715  1.0000
  C   C2069     1.0  0.06625  0.75072  0.36398  1.0000
  H   H3640     1.0  0.44469  0.99157  0.45567  1.0000
  H   H3641     1.0  0.06309  0.81576  0.38591  1.0000
  H   H3642     1.0  0.44209  0.93995  0.28353  1.0000
  H   H3643     1.0  0.45140  0.92834  0.44305  1.0000
  C   C2070     1.0  0.28030  0.99205  0.38125  1.0000
  N   N117      1.0  0.30124  0.91171  0.43302  1.0000
  C   C2071     1.0  0.30259  0.92426  0.42875  1.0000
  C   C2072     1.0  0.31322  0.90366  0.43033  1.0000
  C   C2073     1.0  0.29290  0.90998  0.42687  1.0000
  C   C2074     1.0  0.29630  0.90891  0.44611  1.0000
  C   C2075     1.0  0.30301  0.91151  0.45386  1.0000
  C   C2076     1.0  0.29139  0.93384  0.43189  1.0000
  C   C2077     1.0  0.29113  0.89728  0.42949  1.0000
  C   C2078     1.0  0.31908  0.90416  0.41712  1.0000
  C   C2079     1.0  0.33124  0.89587  0.41558  1.0000
  C   C2080     1.0  0.29702  0.90856  0.46686  1.0000
  C   C2081     1.0  0.29410  0.94605  0.42803  1.0000
  C   C2082     1.0  0.28287  0.89654  0.42244  1.0000
  H   H3644     1.0  0.30542  0.92643  0.41901  1.0000
  H   H3645     1.0  0.30973  0.92548  0.43197  1.0000
  H   H3646     1.0  0.31951  0.90564  0.43420  1.0000
  H   H3647     1.0  0.31282  0.89439  0.43461  1.0000
  H   H3648     1.0  0.29559  0.91310  0.41718  1.0000
  H   H3649     1.0  0.28401  0.91553  0.42943  1.0000
  H   H3650     1.0  0.28690  0.91351  0.44832  1.0000
  H   H3651     1.0  0.29622  0.89943  0.44921  1.0000
  H   H3652     1.0  0.30332  0.92090  0.45158  1.0000
  H   H3653     1.0  0.31215  0.90616  0.45282  1.0000
  H   H3654     1.0  0.28471  0.93402  0.42722  1.0000
  H   H3655     1.0  0.28751  0.93236  0.44146  1.0000
  H   H3656     1.0  0.28706  0.89443  0.43891  1.0000
  H   H3657     1.0  0.29956  0.89092  0.42723  1.0000
  H   H3658     1.0  0.31373  0.90148  0.41273  1.0000
  H   H3659     1.0  0.32030  0.91312  0.41249  1.0000
  H   H3660     1.0  0.33700  0.89802  0.41997  1.0000
  H   H3661     1.0  0.33050  0.88662  0.41936  1.0000
  H   H3662     1.0  0.33546  0.89670  0.40608  1.0000
  H   H3663     1.0  0.29677  0.89912  0.46965  1.0000
  H   H3664     1.0  0.30209  0.91032  0.47222  1.0000
  H   H3665     1.0  0.28792  0.91400  0.46854  1.0000
  H   H3666     1.0  0.30012  0.94671  0.43308  1.0000
  H   H3667     1.0  0.29820  0.94799  0.41849  1.0000
  H   H3668     1.0  0.28577  0.95274  0.42968  1.0000
  H   H3669     1.0  0.28157  0.88741  0.42473  1.0000
  H   H3670     1.0  0.27416  0.90256  0.42458  1.0000
  H   H3671     1.0  0.28669  0.89881  0.41286  1.0000
  H   H3672     1.0  0.14457  0.75171  0.46087  1.0000
  H   H3673     1.0  0.03511  0.84233  0.41267  1.0000
  H   H3674     1.0  0.06979  0.80443  0.40995  1.0000
  C   C2083     1.0  0.09306  0.77918  0.48551  1.0000
  H   H3675     1.0  0.04847  0.84287  0.40128  1.0000
  C   C2084     1.0  0.46274  0.91778  0.27133  1.0000
  Fe  Fe243     1.0  0.34460  0.99220  0.41653  1.0000
  H   H3676     1.0  0.47577  0.94213  0.46787  1.0000
  C   C2085     1.0  0.10288  0.77100  0.47821  1.0000
  C   C2086     1.0  0.07026  0.76609  0.46614  1.0000
  S   S476      1.0  0.49376  0.94336  0.35879  1.0000
  S   S477      1.0  0.49131  0.97621  0.35460  1.0000
  S   S478      1.0  0.08577  0.77088  0.43459  1.0000
  H   H3677     1.0  0.49131  0.88836  0.25982  1.0000
  C   C2087     1.0  0.45088  0.98698  0.25876  1.0000
  C   C2088     1.0  0.37495  0.87949  0.48969  1.0000
  C   C2089     1.0  0.09201  0.79203  0.47906  1.0000
  H   H3678     1.0  0.15785  0.93786  0.48702  1.0000
  H   H3679     1.0  0.36742  0.92973  0.48188  1.0000
  H   H3680     1.0  0.06428  0.78541  0.42119  1.0000
  S   S479      1.0  0.16265  0.97722  0.48348  1.0000
  H   H3681     1.0  0.45152  0.98268  0.26798  1.0000
  H   H3682     1.0  0.09370  0.87349  0.45802  1.0000
  C   C2090     1.0  0.12096  0.98639  0.47786  1.0000
  S   S480      1.0  0.99798  0.84826  0.46939  1.0000
  H   H3683     1.0  0.32060  0.98238  0.34084  1.0000
  C   C2091     1.0  0.46516  0.92940  0.36894  1.0000
  C   C2092     1.0  0.45362  0.91492  0.28091  1.0000
  H   H3684     1.0  0.44784  0.90109  0.38483  1.0000
  H   H3685     1.0  0.30860  0.97692  0.38185  1.0000
  H   H3686     1.0  0.12588  0.97938  0.48391  1.0000
  C   C2093     1.0  0.45741  0.96621  0.42459  1.0000
  H   H3687     1.0  0.46214  0.93528  0.36107  1.0000
  C   C2094     1.0  0.28023  0.97876  0.38531  1.0000
  H   H3688     1.0  0.14376  0.98104  0.47092  1.0000
  H   H3689     1.0  0.44806  0.97390  0.47136  1.0000
  H   H3690     1.0  0.43405  0.98289  0.45854  1.0000
  C   C2095     1.0  0.00566  0.74770  0.38902  1.0000
  H   H3691     1.0  0.00264  0.80602  0.45734  1.0000
  H   H3692     1.0  0.43486  0.88902  0.38456  1.0000
  S   S481      1.0  0.01250  0.76439  0.45183  1.0000
  H   H3693     1.0  0.22008  0.98641  0.46536  1.0000
  H   H3694     1.0  0.45003  0.94294  0.41332  1.0000
  H   H3695     1.0  0.47492  0.92753  0.36710  1.0000
  H   H3696     1.0  0.48766  0.90420  0.25530  1.0000
  H   H3697     1.0  0.46901  0.92045  0.25246  1.0000
  H   H3698     1.0  0.45791  0.94634  0.26619  1.0000
  C   C2096     1.0  0.47431  0.95504  0.34959  1.0000
  H   H3699     1.0  0.31505  0.97151  0.35304  1.0000
  H   H3700     1.0  0.30900  0.88492  0.49068  1.0000
  S   S482      1.0  0.42315  0.96860  0.48380  1.0000
  C   C2097     1.0  0.04035  0.86244  0.48228  1.0000
  H   H3701     1.0  0.38596  0.94558  0.41069  1.0000
  H   H3702     1.0  0.46880  0.93868  0.48720  1.0000
  C   C2098     1.0  0.99626  0.76845  0.47182  1.0000
  C   C2099     1.0  0.07030  0.77537  0.38847  1.0000
  C   C2100     1.0  0.24401  0.99183  0.47902  1.0000
  C   C2101     1.0  0.44370  0.91279  0.27895  1.0000
  C   C2102     1.0  0.04400  0.74781  0.44432  1.0000
  H   H3703     1.0  0.47044  0.91940  0.27278  1.0000
  H   H3704     1.0  0.21899  0.98528  0.48054  1.0000
  H   H3705     1.0  0.35300  0.96050  0.41712  1.0000
  H   H3706     1.0  0.29886  0.97800  0.36907  1.0000
  C   C2103     1.0  0.28841  0.94631  0.45994  1.0000
  H   H3707     1.0  0.09389  0.78795  0.44095  1.0000
  H   H3708     1.0  0.34034  0.86530  0.46902  1.0000
  H   H3709     1.0  0.24713  0.98350  0.48457  1.0000
  Fe  Fe244     1.0  0.22726  0.98538  0.43046  1.0000
  C   C2104     1.0  0.06002  0.77348  0.38702  1.0000
  C   C2105     1.0  0.35777  0.97037  0.45181  1.0000
  C   C2106     1.0  0.99816  0.76783  0.46013  1.0000
  C   C2107     1.0  0.05461  0.76549  0.40791  1.0000
  Fe  Fe245     1.0  0.46603  0.92404  0.29760  1.0000
  H   H3710     1.0  0.26966  0.96712  0.39801  1.0000
  H   H3711     1.0  0.04659  0.82455  0.39906  1.0000
  C   C2108     1.0  0.23004  0.96277  0.48395  1.0000
  C   C2109     1.0  0.47824  0.94797  0.24821  1.0000
  C   C2110     1.0  0.37301  0.91633  0.41820  1.0000
  H   H3712     1.0  0.31486  0.98938  0.35928  1.0000
  H   H3713     1.0  0.40638  0.93527  0.41163  1.0000
  H   H3714     1.0  0.26077  0.94083  0.46301  1.0000
  C   C2111     1.0  0.42442  0.97149  0.40402  1.0000
  Fe  Fe246     1.0  0.08787  0.84003  0.48637  1.0000
  S   S483      1.0  0.48102  0.95880  0.27140  1.0000
  H   H3715     1.0  0.45081  0.93879  0.38074  1.0000
  H   H3716     1.0  0.09754  0.89899  0.47680  1.0000
  H   H3717     1.0  0.35622  0.96134  0.39592  1.0000
  H   H3718     1.0  0.29431  0.95187  0.45373  1.0000
  H   H3719     1.0  0.29270  0.93700  0.45968  1.0000
  H   H3720     1.0  0.27999  0.94869  0.45704  1.0000
  H   H3721     1.0  0.38034  0.92771  0.43411  1.0000
  H   H3722     1.0  0.33262  0.84389  0.48681  1.0000
  H   H3723     1.0  0.47194  0.95747  0.46667  1.0000
  N   N118      1.0  0.02851  0.79114  0.47719  1.0000
  C   C2112     1.0  0.04095  0.79260  0.47204  1.0000
  H   H3724     1.0  0.31325  0.99253  0.39523  1.0000
  C   C2113     1.0  0.02187  0.79500  0.46752  1.0000
  H   H3725     1.0  0.49424  0.94652  0.45237  1.0000
  H   H3726     1.0  0.30597  0.98043  0.34281  1.0000
  C   C2114     1.0  0.04240  0.80527  0.46592  1.0000
  C   C2115     1.0  0.00966  0.79189  0.47084  1.0000
  H   H3727     1.0  0.39927  0.99098  0.49104  1.0000
  C   C2116     1.0  0.13627  0.86995  0.47289  1.0000
  H   H3728     1.0  0.14954  0.83372  0.46185  1.0000
  C   C2117     1.0  0.05539  0.80577  0.46246  1.0000
  H   H3729     1.0  0.04544  0.78715  0.46538  1.0000
  H   H3730     1.0  0.04615  0.78923  0.47893  1.0000
  S   S484      1.0  0.00261  0.86982  0.47803  1.0000
  H   H3731     1.0  0.24716  0.95292  0.48687  1.0000
  H   H3732     1.0  0.02719  0.79130  0.45974  1.0000
  H   H3733     1.0  0.02032  0.80472  0.46439  1.0000
  H   H3734     1.0  0.01987  0.80795  0.48210  1.0000
  C   C2118     1.0  0.00379  0.74821  0.36900  1.0000
  H   H3735     1.0  0.14927  0.97598  0.45075  1.0000
  H   H3736     1.0  0.02172  0.74815  0.34878  1.0000
  H   H3737     1.0  0.03901  0.80822  0.45778  1.0000
  H   H3738     1.0  0.03763  0.81160  0.47166  1.0000
  H   H3739     1.0  0.01045  0.78230  0.47352  1.0000
  H   H3740     1.0  0.02884  0.77176  0.46780  1.0000
  H   H3741     1.0  0.47258  0.96111  0.35522  1.0000
  C   C2119     1.0  0.44808  0.97538  0.30374  1.0000
  H   H3742     1.0  0.00892  0.79199  0.45308  1.0000
  C   C2120     1.0  0.22182  0.96410  0.47576  1.0000
  H   H3743     1.0  0.46633  0.94203  0.24213  1.0000
  H   H3744     1.0  0.06053  0.79972  0.45650  1.0000
  H   H3745     1.0  0.05626  0.81483  0.45784  1.0000
  H   H3746     1.0  0.05911  0.80330  0.47041  1.0000
  C   C2121     1.0  0.03598  0.80145  0.38802  1.0000
  S   S485      1.0  0.47836  0.96663  0.40847  1.0000
  H   H3747     1.0  0.47964  0.89684  0.26900  1.0000
  S   S486      1.0  0.24050  0.98254  0.41378  1.0000
  H   H3748     1.0  0.39900  0.94095  0.42470  1.0000
  N   N119      1.0  0.06282  0.84543  0.44190  1.0000
  C   C2122     1.0  0.07071  0.83442  0.43815  1.0000
  C   C2123     1.0  0.05627  0.84228  0.45453  1.0000
  C   C2124     1.0  0.05373  0.85019  0.43448  1.0000
  C   C2125     1.0  0.06938  0.85485  0.44023  1.0000
  C   C2126     1.0  0.08218  0.85078  0.44200  1.0000
  C   C2127     1.0  0.07643  0.83582  0.42480  1.0000
  C   C2128     1.0  0.04429  0.86130  0.43723  1.0000
  C   C2129     1.0  0.06378  0.83650  0.46389  1.0000
  C   C2130     1.0  0.05620  0.83198  0.47582  1.0000
  C   C2131     1.0  0.08713  0.86130  0.44114  1.0000
  C   C2132     1.0  0.08666  0.82545  0.42226  1.0000
  C   C2133     1.0  0.03718  0.86660  0.42768  1.0000
  H   H3749     1.0  0.06569  0.82740  0.44058  1.0000
  H   H3750     1.0  0.07787  0.83073  0.44297  1.0000
  H   H3751     1.0  0.05031  0.85025  0.45746  1.0000
  H   H3752     1.0  0.05043  0.83637  0.45528  1.0000
  H   H3753     1.0  0.04898  0.84329  0.43524  1.0000
  H   H3754     1.0  0.05807  0.85266  0.42505  1.0000
  H   H3755     1.0  0.06994  0.86046  0.43118  1.0000
  H   H3756     1.0  0.06435  0.86096  0.44619  1.0000
  H   H3757     1.0  0.08807  0.84602  0.43517  1.0000
  H   H3758     1.0  0.08275  0.84487  0.45064  1.0000
  H   H3759     1.0  0.06984  0.83618  0.41991  1.0000
  H   H3760     1.0  0.07973  0.84402  0.42122  1.0000
  H   H3761     1.0  0.04829  0.86820  0.43780  1.0000
  H   H3762     1.0  0.03807  0.85899  0.44570  1.0000
  H   H3763     1.0  0.07086  0.82892  0.46155  1.0000
  H   H3764     1.0  0.06770  0.84312  0.46514  1.0000
  H   H3765     1.0  0.02004  0.77727  0.48852  1.0000
  H   H3766     1.0  0.06149  0.82921  0.48263  1.0000
  H   H3767     1.0  0.04847  0.83897  0.47839  1.0000
  H   H3768     1.0  0.08196  0.86601  0.44826  1.0000
  H   H3769     1.0  0.09641  0.85819  0.44206  1.0000
  H   H3770     1.0  0.08694  0.86748  0.43247  1.0000
  H   H3771     1.0  0.08358  0.81711  0.42525  1.0000
  H   H3772     1.0  0.09047  0.82674  0.41266  1.0000
  H   H3773     1.0  0.03224  0.86030  0.42741  1.0000
  H   H3774     1.0  0.03079  0.87477  0.42964  1.0000
  H   H3775     1.0  0.04302  0.86893  0.41893  1.0000
  C   C2134     1.0  0.45346  0.94981  0.48017  1.0000
  H   H3776     1.0  0.44378  0.95044  0.48294  1.0000
  C   C2135     1.0  0.20426  0.97359  0.46791  1.0000
  H   H3777     1.0  0.37012  0.89922  0.42881  1.0000
  S   S487      1.0  0.47290  0.96580  0.37847  1.0000
  H   H3778     1.0  0.04966  0.78314  0.42359  1.0000
  N   N120      1.0  0.99763  0.74704  0.38181  1.0000
  Fe  Fe247     1.0  0.35962  0.89969  0.46080  1.0000
  H   H3779     1.0  0.42786  0.94710  0.41081  1.0000
  H   H3780     1.0  0.04850  0.76176  0.41546  1.0000
  Fe  Fe248     1.0  0.10797  0.81930  0.49117  1.0000
  C   C2136     1.0  0.05496  0.78793  0.42580  1.0000
  H   H3781     1.0  0.36163  0.95895  0.46812  1.0000
  S   S488      1.0  0.38856  0.93588  0.48097  1.0000
  S   S489      1.0  0.35769  0.88099  0.46575  1.0000
  S   S490      1.0  0.34663  0.90474  0.47686  1.0000
  H   H3782     1.0  0.43367  0.98440  0.38054  1.0000
  H   H3783     1.0  0.40445  0.98790  0.46773  1.0000
  C   C2137     1.0  0.05211  0.76867  0.39675  1.0000
  Fe  Fe249     1.0  0.46687  0.93967  0.31287  1.0000
  Fe  Fe250     1.0  0.24599  0.98186  0.44392  1.0000
  H   H3784     1.0  0.49429  0.93094  0.34180  1.0000
  H   H3785     1.0  0.47641  0.94358  0.25764  1.0000
  C   C2138     1.0  0.09566  0.80270  0.44635  1.0000
  H   H3786     1.0  0.04856  0.79171  0.40577  1.0000
  H   H3787     1.0  0.36556  0.91789  0.43576  1.0000
  H   H3788     1.0  0.41488  0.97206  0.40498  1.0000
  H   H3789     1.0  0.46570  0.91162  0.37910  1.0000
  C   C2139     1.0  0.43161  0.96210  0.39666  1.0000
  H   H3790     1.0  0.29624  0.97124  0.44094  1.0000
  N   N121      1.0  0.22235  0.93377  0.43758  1.0000
  C   C2140     1.0  0.21137  0.92914  0.44364  1.0000
  C   C2141     1.0  0.22604  0.93798  0.44627  1.0000
  C   C2142     1.0  0.21916  0.94439  0.42805  1.0000
  C   C2143     1.0  0.23231  0.92483  0.43210  1.0000
  C   C2144     1.0  0.23326  0.91169  0.43853  1.0000
  C   C2145     1.0  0.20523  0.92643  0.43542  1.0000
  C   C2146     1.0  0.22896  0.95120  0.42125  1.0000
  C   C2147     1.0  0.22967  0.92863  0.45698  1.0000
  C   C2148     1.0  0.11726  0.78873  0.45053  1.0000
  C   C2149     1.0  0.24493  0.90400  0.43346  1.0000
  C   C2150     1.0  0.19643  0.91879  0.44232  1.0000
  C   C2151     1.0  0.22533  0.96046  0.41070  1.0000
  H   H3791     1.0  0.20470  0.93555  0.44856  1.0000
  H   H3792     1.0  0.21317  0.92105  0.45045  1.0000
  H   H3793     1.0  0.23387  0.94186  0.44195  1.0000
  H   H3794     1.0  0.21889  0.94517  0.44954  1.0000
  H   H3795     1.0  0.21135  0.95082  0.43178  1.0000
  H   H3796     1.0  0.21656  0.94175  0.42126  1.0000
  H   H3797     1.0  0.23173  0.92525  0.42299  1.0000
  H   H3798     1.0  0.24086  0.92706  0.43102  1.0000
  H   H3799     1.0  0.22610  0.90835  0.43749  1.0000
  H   H3800     1.0  0.23258  0.91026  0.44806  1.0000
  H   H3801     1.0  0.20024  0.93475  0.43077  1.0000
  H   H3802     1.0  0.21171  0.92187  0.42871  1.0000
  H   H3803     1.0  0.23726  0.94515  0.41795  1.0000
  H   H3804     1.0  0.23068  0.95596  0.42694  1.0000
  H   H3805     1.0  0.22323  0.92309  0.46147  1.0000
  H   H3806     1.0  0.23834  0.92290  0.45407  1.0000
  H   H3807     1.0  0.36970  0.94000  0.40687  1.0000
  H   H3808     1.0  0.06691  0.76475  0.41797  1.0000
  C   C2152     1.0  0.45936  0.93886  0.48845  1.0000
  H   H3809     1.0  0.24596  0.90484  0.42390  1.0000
  H   H3810     1.0  0.25240  0.90654  0.43491  1.0000
  H   H3811     1.0  0.24519  0.89465  0.43796  1.0000
  H   H3812     1.0  0.19218  0.91703  0.43622  1.0000
  H   H3813     1.0  0.20091  0.91022  0.44710  1.0000
  H   H3814     1.0  0.18946  0.92337  0.44874  1.0000
  H   H3815     1.0  0.22344  0.95634  0.40456  1.0000
  H   H3816     1.0  0.21744  0.96716  0.41368  1.0000
  H   H3817     1.0  0.23262  0.96496  0.40586  1.0000
  C   C2153     1.0  0.05866  0.75840  0.48927  1.0000
  H   H3818     1.0  0.44029  0.96066  0.27199  1.0000
  H   H3819     1.0  0.12577  0.78348  0.45191  1.0000
  H   H3820     1.0  0.28316  0.96802  0.43962  1.0000
  H   H3821     1.0  0.45114  0.94087  0.25851  1.0000
  H   H3822     1.0  0.06734  0.79606  0.40148  1.0000
  H   H3823     1.0  0.29049  0.84931  0.47780  1.0000
  C   C2154     1.0  0.41876  0.98821  0.42013  1.0000
  H   H3824     1.0  0.37628  0.96531  0.44333  1.0000
  H   H3825     1.0  0.14425  0.84272  0.48361  1.0000
  H   H3826     1.0  0.05305  0.82436  0.47556  1.0000
  C   C2155     1.0  0.47188  0.97463  0.30458  1.0000
  H   H3827     1.0  0.11078  0.77476  0.47588  1.0000
  C   C2156     1.0  0.43539  0.94417  0.27813  1.0000
  H   H3828     1.0  0.32041  0.87008  0.48193  1.0000
  C   C2157     1.0  0.27786  0.94075  0.48124  1.0000
  H   H3829     1.0  0.47700  0.94359  0.44737  1.0000
  H   H3830     1.0  0.22704  0.96564  0.46655  1.0000
  H   H3831     1.0  0.33649  0.97889  0.46420  1.0000
  C   C2158     1.0  0.38132  0.98481  0.42276  1.0000
  C   C2159     1.0  0.05015  0.80142  0.42250  1.0000
  H   H3832     1.0  0.16847  0.95400  0.47962  1.0000
  C   C2160     1.0  0.45838  0.96782  0.25167  1.0000
  H   H3833     1.0  0.08233  0.80126  0.38376  1.0000
  H   H3834     1.0  0.03726  0.75060  0.47717  1.0000
  H   H3835     1.0  0.23574  0.94150  0.46197  1.0000
  H   H3836     1.0  0.45152  0.91976  0.37682  1.0000
  C   C2161     1.0  0.04516  0.80560  0.39124  1.0000
  C   C2162     1.0  0.43950  0.95388  0.26800  1.0000
  H   H3837     1.0  0.48027  0.93311  0.32958  1.0000
  H   H3838     1.0  0.27824  0.97876  0.45508  1.0000
  H   H3839     1.0  0.45704  0.90785  0.34229  1.0000
  H   H3840     1.0  0.24537  0.95426  0.47239  1.0000
  H   H3841     1.0  0.45546  0.97340  0.29623  1.0000
  Fe  Fe251     1.0  0.47827  0.94403  0.28686  1.0000
  Fe  Fe252     1.0  0.08257  0.75279  0.44319  1.0000
  C   C2163     1.0  0.48902  0.96749  0.27380  1.0000
  H   H3842     1.0  0.18634  0.96909  0.48851  1.0000
  H   H3843     1.0  0.46031  0.97398  0.45879  1.0000
  C   C2164     1.0  0.06440  0.80486  0.40372  1.0000
  H   H3844     1.0  0.44021  0.97692  0.32576  1.0000
  C   C2165     1.0  0.41832  0.99156  0.40693  1.0000
  H   H3845     1.0  0.09178  0.75518  0.47827  1.0000
  H   H3846     1.0  0.18712  0.98401  0.48622  1.0000
  C   C2166     1.0  0.45338  0.92751  0.45167  1.0000
  H   H3847     1.0  0.22208  0.93791  0.47124  1.0000
  H   H3848     1.0  0.42780  0.98689  0.42131  1.0000
  H   H3849     1.0  0.42613  0.96777  0.41299  1.0000
  H   H3850     1.0  0.21302  0.91795  0.49177  1.0000
  H   H3851     1.0  0.43988  0.91855  0.33376  1.0000
  H   H3852     1.0  0.27148  0.98737  0.44302  1.0000
  S   S491      1.0  0.45808  0.94925  0.32759  1.0000
  H   H3853     1.0  0.10570  0.91160  0.48358  1.0000
  S   S492      1.0  0.33559  0.98991  0.40383  1.0000
  C   C2167     1.0  0.26962  0.97665  0.39530  1.0000
  H   H3854     1.0  0.20936  0.97674  0.45890  1.0000
  H   H3855     1.0  0.11224  0.98417  0.47982  1.0000
  Fe  Fe253     1.0  0.00616  0.85010  0.48290  1.0000
  H   H3856     1.0  0.19568  0.98000  0.46857  1.0000
  C   C2168     1.0  0.20204  0.96159  0.46810  1.0000
  C   C2169     1.0  0.19271  0.96301  0.46133  1.0000
  H   H3857     1.0  0.34957  0.99190  0.45920  1.0000
  C   C2170     1.0  0.44341  0.88880  0.37806  1.0000
  C   C2171     1.0  0.28628  0.94827  0.47232  1.0000
  H   H3858     1.0  0.23848  0.94419  0.48474  1.0000
  Fe  Fe254     1.0  0.34376  0.88653  0.48103  1.0000
  H   H3859     1.0  0.41855  0.98391  0.38562  1.0000
  H   H3860     1.0  0.01162  0.75369  0.38376  1.0000
  H   H3861     1.0  0.03114  0.86215  0.48517  1.0000
  C   C2172     1.0  0.49118  0.98684  0.27326  1.0000
  S   S493      1.0  0.10083  0.74483  0.44590  1.0000
  H   H3862     1.0  0.45496  0.95752  0.48227  1.0000
  C   C2173     1.0  0.02888  0.77842  0.48313  1.0000
  C   C2174     1.0  0.36025  0.96853  0.46408  1.0000
  H   H3863     1.0  0.18417  0.96829  0.46533  1.0000
  S   S494      1.0  0.32894  0.89176  0.47187  1.0000
  H   H3864     1.0  0.18531  0.98873  0.44952  1.0000
  H   H3865     1.0  0.49404  0.90613  0.27212  1.0000
  S   S495      1.0  0.24952  0.97964  0.46168  1.0000
  C   C2175     1.0  0.11522  0.75182  0.47552  1.0000
  S   S496      1.0  0.48538  0.98680  0.37810  1.0000
  H   H3866     1.0  0.05754  0.77399  0.44117  1.0000
  S   S497      1.0  0.43161  0.94824  0.43310  1.0000
  H   H3867     1.0  0.19551  0.96742  0.45199  1.0000
  C   C2176     1.0  0.47544  0.91006  0.35615  1.0000
  H   H3868     1.0  0.26901  0.94454  0.47914  1.0000
  C   C2177     1.0  0.12335  0.86077  0.48985  1.0000
  H   H3869     1.0  0.29455  0.98981  0.44720  1.0000
  H   H3870     1.0  0.29489  0.94613  0.47478  1.0000
  H   H3871     1.0  0.46823  0.95027  0.40335  1.0000
  S   S498      1.0  0.26101  0.91646  0.47143  1.0000
  H   H3872     1.0  0.31885  0.88288  0.46077  1.0000
  H   H3873     1.0  0.44442  0.94528  0.45244  1.0000
  C   C2178     1.0  0.37735  0.93573  0.42754  1.0000
  H   H3874     1.0  0.09865  0.88697  0.45501  1.0000
  C   C2179     1.0  0.21979  0.89488  0.47283  1.0000
  Fe  Fe255     1.0  0.33334  0.90937  0.46588  1.0000
  H   H3875     1.0  0.11766  0.97410  0.46445  1.0000
  C   C2180     1.0  0.30352  0.85718  0.48811  1.0000
  H   H3876     1.0  0.45561  0.98901  0.40838  1.0000
  C   C2181     1.0  0.43657  0.97791  0.29940  1.0000
  C   C2182     1.0  0.42541  0.98771  0.38673  1.0000
  H   H3877     1.0  0.30069  0.83565  0.47564  1.0000
  H   H3878     1.0  0.36572  0.93482  0.44970  1.0000
  H   H3879     1.0  0.00206  0.81887  0.47262  1.0000
  C   C2183     1.0  0.30522  0.84456  0.48639  1.0000
  H   H3880     1.0  0.05474  0.80536  0.42662  1.0000
  N   N122      1.0  0.10570  0.75813  0.48415  1.0000
  H   H3881     1.0  0.08113  0.87672  0.47756  1.0000
  H   H3882     1.0  0.44105  0.95995  0.39691  1.0000
  C   C2184     1.0  0.33645  0.96236  0.47742  1.0000
  H   H3883     1.0  0.44084  0.96595  0.43720  1.0000
  H   H3884     1.0  0.37629  0.89955  0.41340  1.0000
  H   H3885     1.0  0.29888  0.88047  0.48545  1.0000
  H   H3886     1.0  0.34666  0.85694  0.48150  1.0000
  H   H3887     1.0  0.46006  0.89554  0.36056  1.0000
  C   C2185     1.0  0.35363  0.97088  0.48440  1.0000
  H   H3888     1.0  0.13805  0.94461  0.47120  1.0000
  H   H3889     1.0  0.33259  0.86536  0.43201  1.0000
  H   H3890     1.0  0.28231  0.95777  0.47196  1.0000
  C   C2186     1.0  0.45197  0.94957  0.41638  1.0000
  C   C2187     1.0  0.19860  0.89953  0.47447  1.0000
  H   H3891     1.0  0.03574  0.82088  0.41167  1.0000
  C   C2188     1.0  0.13898  0.87587  0.47991  1.0000
  C   C2189     1.0  0.06009  0.85630  0.48590  1.0000
  H   H3892     1.0  0.43096  0.96513  0.38733  1.0000
  H   H3893     1.0  0.38119  0.87968  0.48098  1.0000
  C   C2190     1.0  0.37012  0.99181  0.42186  1.0000
  H   H3894     1.0  0.07130  0.78084  0.47199  1.0000
  H   H3895     1.0  0.20972  0.86999  0.47880  1.0000
  C   C2191     1.0  0.08127  0.80951  0.38661  1.0000
  H   H3896     1.0  0.06369  0.80774  0.49119  1.0000
  H   H3897     1.0  0.28986  0.98743  0.35954  1.0000
  H   H3898     1.0  0.44065  0.96040  0.46401  1.0000
  H   H3899     1.0  0.44426  0.96644  0.28698  1.0000
  H   H3900     1.0  0.07357  0.75014  0.37823  1.0000
  H   H3901     1.0  0.03685  0.80389  0.37835  1.0000
  Fe  Fe256     1.0  0.34299  0.88745  0.45618  1.0000
  S   S499      1.0  0.31481  0.98897  0.45613  1.0000
  C   C2192     1.0  0.47043  0.95038  0.46351  1.0000
  H   H3902     1.0  0.36092  0.90601  0.41824  1.0000
  H   H3903     1.0  0.44858  0.96699  0.31044  1.0000
  C   C2193     1.0  0.45180  0.91661  0.25790  1.0000
  H   H3904     1.0  0.43257  0.95755  0.26287  1.0000
  N   N123      1.0  0.46258  0.91192  0.36227  1.0000
  H   H3905     1.0  0.04498  0.78582  0.44399  1.0000
  H   H3906     1.0  0.02247  0.75687  0.48438  1.0000
  H   H3907     1.0  0.05973  0.78780  0.44189  1.0000
  H   H3908     1.0  0.34960  0.96768  0.45254  1.0000
  H   H3909     1.0  0.03484  0.75514  0.49063  1.0000
  C   C2194     1.0  0.03346  0.76946  0.47507  1.0000
  S   S500      1.0  0.36397  0.99168  0.41050  1.0000
  Fe  Fe257     1.0  0.26646  0.87446  0.48992  1.0000
  C   C2195     1.0  0.45491  0.91989  0.35396  1.0000
  H   H3910     1.0  0.44581  0.97722  0.39342  1.0000
  C   C2196     1.0  0.30536  0.98412  0.38669  1.0000
  C   C2197     1.0  0.35206  0.98835  0.46785  1.0000
  C   C2198     1.0  0.39927  0.93444  0.41971  1.0000
  S   S501      1.0  0.31307  0.98733  0.42612  1.0000
  C   C2199     1.0  0.49253  0.90215  0.34066  1.0000
  S   S502      1.0  0.24971  0.88776  0.48782  1.0000
  H   H3911     1.0  0.47510  0.91000  0.33830  1.0000
  H   H3912     1.0  0.10046  0.79470  0.47729  1.0000
  H   H3913     1.0  0.31905  0.97695  0.39661  1.0000
  H   H3914     1.0  0.48818  0.96226  0.44975  1.0000
  H   H3915     1.0  0.16402  0.83656  0.45521  1.0000
  H   H3916     1.0  0.36901  0.97055  0.46245  1.0000
  C   C2200     1.0  0.34748  0.94038  0.45743  1.0000
  H   H3917     1.0  0.19080  0.88469  0.47826  1.0000
  H   H3918     1.0  0.35659  0.92519  0.45059  1.0000
  H   H3919     1.0  0.33931  0.93742  0.45885  1.0000
  C   C2201     1.0  0.36426  0.92342  0.42711  1.0000
  H   H3920     1.0  0.38833  0.93033  0.41102  1.0000
  C   C2202     1.0  0.45327  0.93964  0.45308  1.0000
  H   H3921     1.0  0.21985  0.95530  0.47767  1.0000
  C   C2203     1.0  0.44734  0.90019  0.37614  1.0000
  H   H3922     1.0  0.23586  0.92768  0.47236  1.0000
  H   H3923     1.0  0.35515  0.92360  0.42673  1.0000
  H   H3924     1.0  0.37302  0.92110  0.40898  1.0000
  C   C2204     1.0  0.35718  0.93449  0.44841  1.0000
  C   C2205     1.0  0.31583  0.98523  0.39056  1.0000
  S   S503      1.0  0.11014  0.75746  0.41860  1.0000
  C   C2206     1.0  0.38748  0.93664  0.41638  1.0000
  N   N124      1.0  0.36545  0.93574  0.42596  1.0000
  H   H3925     1.0  0.07305  0.74359  0.39755  1.0000
  H   H3926     1.0  0.06560  0.76033  0.36076  1.0000
  C   C2207     1.0  0.31875  0.94716  0.45049  1.0000
  C   C2208     1.0  0.08715  0.88144  0.47878  1.0000
  H   H3927     1.0  0.44130  0.97766  0.40840  1.0000
  C   C2209     1.0  0.12692  0.97492  0.46264  1.0000
  C   C2210     1.0  0.03187  0.75728  0.48228  1.0000
  C   C2211     1.0  0.45009  0.96087  0.46092  1.0000
  H   H3928     1.0  0.45841  0.96317  0.34317  1.0000
  H   H3929     1.0  0.44597  0.98262  0.44558  1.0000
  H   H3930     1.0  0.37669  0.94326  0.43139  1.0000
  H   H3931     1.0  0.35012  0.93782  0.46597  1.0000
  H   H3932     1.0  0.34559  0.95007  0.45457  1.0000
  C   C2212     1.0  0.35599  0.94065  0.43562  1.0000
  H   H3933     1.0  0.37195  0.95926  0.39432  1.0000
  H   H3934     1.0  0.99705  0.81125  0.48766  1.0000
  C   C2213     1.0  0.47611  0.95178  0.45019  1.0000
  Fe  Fe258     1.0  0.09109  0.76443  0.41787  1.0000
  H   H3935     1.0  0.10645  0.87980  0.47316  1.0000
  H   H3936     1.0  0.47512  0.99221  0.34121  1.0000
  H   H3937     1.0  0.34715  0.94053  0.43482  1.0000
  C   C2214     1.0  0.46840  0.94826  0.33558  1.0000
  H   H3938     1.0  0.16655  0.83701  0.47457  1.0000
  H   H3939     1.0  0.09370  0.82478  0.42675  1.0000
  C   C2215     1.0  0.45111  0.97291  0.46211  1.0000
  C   C2216     1.0  0.48526  0.97970  0.27096  1.0000
  H   H3940     1.0  0.44367  0.90877  0.35328  1.0000
  H   H3941     1.0  0.16447  0.97970  0.45823  1.0000
  H   H3942     1.0  0.05903  0.82475  0.41369  1.0000
  C   C2217     1.0  0.33043  0.85277  0.48123  1.0000
  Fe  Fe259     1.0  0.32356  0.99034  0.43698  1.0000
  C   C2218     1.0  0.36309  0.96266  0.39950  1.0000
  S   S504      1.0  0.45983  0.94340  0.29676  1.0000
  H   H3943     1.0  0.34050  0.93188  0.48704  1.0000
  H   H3944     1.0  0.46363  0.98980  0.31241  1.0000
  C   C2219     1.0  0.46196  0.91831  0.25983  1.0000
  H   H3945     1.0  0.46622  0.89411  0.37247  1.0000
  C   C2220     1.0  0.46511  0.96192  0.41492  1.0000
  H   H3946     1.0  0.43595  0.92913  0.34290  1.0000
  H   H3947     1.0  0.36611  0.96485  0.43532  1.0000
  C   C2221     1.0  0.47922  0.90415  0.34551  1.0000
  H   H3948     1.0  0.35449  0.94207  0.41322  1.0000
  C   C2222     1.0  0.36293  0.94310  0.41431  1.0000
  H   H3949     1.0  0.35582  0.95002  0.43482  1.0000
  H   H3950     1.0  0.37214  0.97271  0.47820  1.0000
  C   C2223     1.0  0.46097  0.91773  0.37231  1.0000
  C   C2224     1.0  0.12666  0.75652  0.47073  1.0000
  H   H3951     1.0  0.43241  0.98495  0.34410  1.0000
  H   H3952     1.0  0.41788  0.95236  0.40096  1.0000
  H   H3953     1.0  0.33230  0.98021  0.47894  1.0000
  C   C2225     1.0  0.21403  0.98510  0.47424  1.0000
  H   H3954     1.0  0.29952  0.92621  0.48304  1.0000
  H   H3955     1.0  0.04777  0.84487  0.41556  1.0000
  H   H3956     1.0  0.44048  0.90769  0.37291  1.0000
  H   H3957     1.0  0.46220  0.98554  0.39406  1.0000
  H   H3958     1.0  0.44938  0.92822  0.33165  1.0000
  H   H3959     1.0  0.16643  0.98507  0.44258  1.0000
  C   C2226     1.0  0.27992  0.98387  0.44590  1.0000
  C   C2227     1.0  0.46227  0.95372  0.41072  1.0000
  H   H3960     1.0  0.00368  0.74449  0.44494  1.0000
  C   C2228     1.0  0.02226  0.79846  0.48629  1.0000
  H   H3961     1.0  0.36864  0.95356  0.44828  1.0000
  C   C2229     1.0  0.36185  0.95650  0.41246  1.0000
  H   H3962     1.0  0.14036  0.87115  0.46361  1.0000
  H   H3963     1.0  0.45973  0.92630  0.34733  1.0000
  H   H3964     1.0  0.19143  0.95424  0.46161  1.0000
  H   H3965     1.0  0.36846  0.95840  0.41593  1.0000
  H   H3966     1.0  0.07463  0.76920  0.45727  1.0000
  H   H3967     1.0  0.47290  0.97850  0.29508  1.0000
  H   H3968     1.0  0.36696  0.87715  0.48915  1.0000
  H   H3969     1.0  0.27962  0.97543  0.37791  1.0000
  H   H3970     1.0  0.47757  0.98360  0.26726  1.0000
  N   N125      1.0  0.44944  0.98491  0.30868  1.0000
  H   H3971     1.0  0.07458  0.74604  0.35896  1.0000
  H   H3972     1.0  0.36134  0.98907  0.46620  1.0000
  C   C2230     1.0  0.13359  0.95264  0.46567  1.0000
  H   H3973     1.0  0.15659  0.85215  0.48570  1.0000
  H   H3974     1.0  0.29873  0.98161  0.39479  1.0000
  C   C2231     1.0  0.23090  0.93436  0.46614  1.0000
  H   H3975     1.0  0.35681  0.97969  0.44716  1.0000
  C   C2232     1.0  0.04932  0.82678  0.41501  1.0000
  C   C2233     1.0  0.44348  0.98308  0.45500  1.0000
  C   C2234     1.0  0.07288  0.77215  0.39960  1.0000
  H   H3976     1.0  0.45217  0.96124  0.45138  1.0000
  H   H3977     1.0  0.47097  0.95928  0.44477  1.0000
  C   C2235     1.0  0.30780  0.98967  0.35501  1.0000
  H   H3978     1.0  0.40143  0.92543  0.42517  1.0000
  H   H3979     1.0  0.27027  0.99149  0.46611  1.0000
  H   H3980     1.0  0.44706  0.92546  0.35873  1.0000
  C   C2236     1.0  0.45001  0.91392  0.34717  1.0000
  H   H3981     1.0  0.36194  0.97225  0.39862  1.0000
  H   H3982     1.0  0.08521  0.79774  0.48452  1.0000
  C   C2237     1.0  0.20346  0.97086  0.48948  1.0000
  H   H3983     1.0  0.21029  0.95621  0.46379  1.0000
  C   C2238     1.0  0.44688  0.96240  0.42996  1.0000
  C   C2239     1.0  0.15978  0.95538  0.48532  1.0000
  H   H3984     1.0  0.28824  0.97341  0.38841  1.0000
  H   H3985     1.0  0.43576  0.98604  0.29241  1.0000
  C   C2240     1.0  0.06508  0.76708  0.40931  1.0000
  C   C2241     1.0  0.13339  0.96345  0.46986  1.0000
  H   H3986     1.0  0.14263  0.96356  0.46918  1.0000
  H   H3987     1.0  0.32539  0.96370  0.46558  1.0000
  H   H3988     1.0  0.39454  0.97864  0.43307  1.0000
  C   C2242     1.0  0.32205  0.86173  0.48851  1.0000
  C   C2243     1.0  0.48327  0.97386  0.30802  1.0000
  H   H3989     1.0  0.08439  0.77720  0.48692  1.0000
  C   C2244     1.0  0.45571  0.93901  0.46514  1.0000
  H   H3990     1.0  0.38615  0.97949  0.41637  1.0000
  H   H3991     1.0  0.48093  0.95621  0.24740  1.0000
  H   H3992     1.0  0.03477  0.77546  0.48941  1.0000
  H   H3993     1.0  0.00991  0.84554  0.43274  1.0000
  H   H3994     1.0  0.26131  0.98149  0.39244  1.0000
  C   C2245     1.0  0.09542  0.89868  0.48637  1.0000
  H   H3995     1.0  0.44795  0.93624  0.47172  1.0000
  H   H3996     1.0  0.28923  0.97955  0.42889  1.0000
  H   H3997     1.0  0.32314  0.98689  0.38284  1.0000
  H   H3998     1.0  0.08454  0.89066  0.47393  1.0000
  C   C2246     1.0  0.43958  0.98260  0.39964  1.0000
  C   C2247     1.0  0.06610  0.74736  0.37710  1.0000
  Fe  Fe260     1.0  0.16982  0.90556  0.48742  1.0000
  H   H3999     1.0  0.45585  0.99012  0.28376  1.0000
  H   H4000     1.0  0.16435  0.82304  0.47431  1.0000
  Fe  Fe261     1.0  0.48889  0.92278  0.30335  1.0000
  H   H4001     1.0  0.27860  0.99199  0.48799  1.0000
  C   C2248     1.0  0.31261  0.98041  0.34749  1.0000
  C   C2249     1.0  0.28767  0.97517  0.43834  1.0000
  H   H4002     1.0  0.23334  0.97080  0.48228  1.0000
  C   C2250     1.0  0.24401  0.99238  0.46737  1.0000
  C   C2251     1.0  0.24089  0.95287  0.48184  1.0000
  H   H4003     1.0  0.43105  0.98875  0.31774  1.0000
  H   H4004     1.0  0.27747  0.99214  0.41321  1.0000
  C   C2252     1.0  0.48848  0.95393  0.44745  1.0000
  C   C2253     1.0  0.43992  0.98578  0.31976  1.0000
  H   H4005     1.0  0.11387  0.89658  0.48640  1.0000
  H   H4006     1.0  0.12956  0.75836  0.47776  1.0000
  H   H4007     1.0  0.26428  0.99113  0.48717  1.0000
  H   H4008     1.0  0.31459  0.83997  0.48446  1.0000
  H   H4009     1.0  0.36813  0.89795  0.48551  1.0000
  S   S505      1.0  0.06815  0.74778  0.45857  1.0000
  C   C2254     1.0  0.48844  0.89670  0.26297  1.0000
  C   C2255     1.0  0.06057  0.75179  0.48084  1.0000
  S   S506      1.0  0.20780  0.98702  0.43357  1.0000
  S   S507      1.0  0.38529  0.99015  0.45267  1.0000
  C   C2256     1.0  0.37977  0.99113  0.44050  1.0000
  H   H4010     1.0  0.00310  0.83904  0.41857  1.0000
  C   C2257     1.0  0.15382  0.94620  0.48958  1.0000
  C   C2258     1.0  0.06252  0.76887  0.48606  1.0000
  H   H4011     1.0  0.45865  0.93055  0.48688  1.0000
  S   S508      1.0  0.15103  0.91045  0.48537  1.0000
  H   H4012     1.0  0.26992  0.97964  0.40302  1.0000
  H   H4013     1.0  0.33582  0.95965  0.48705  1.0000
  H   H4014     1.0  0.14324  0.82854  0.48378  1.0000
  C   C2259     1.0  0.36492  0.97310  0.48610  1.0000
  H   H4015     1.0  0.00740  0.75625  0.36580  1.0000
  H   H4016     1.0  0.43891  0.96654  0.24503  1.0000
  H   H4017     1.0  0.38761  0.98972  0.48574  1.0000
  H   H4018     1.0  0.44896  0.99220  0.32940  1.0000
  H   H4019     1.0  0.14509  0.99139  0.44429  1.0000
  H   H4020     1.0  0.48725  0.93096  0.24402  1.0000
  H   H4021     1.0  0.28172  0.95667  0.49087  1.0000
  C   C2260     1.0  0.46738  0.95063  0.24277  1.0000
  H   H4022     1.0  0.06282  0.88379  0.48619  1.0000
  H   H4023     1.0  0.17568  0.85085  0.49025  1.0000
  C   C2261     1.0  0.10520  0.90260  0.48884  1.0000
  H   H4024     1.0  0.08706  0.90515  0.48857  1.0000
  H   H4025     1.0  0.26948  0.92104  0.49107  1.0000
  C   C2262     1.0  0.18987  0.97505  0.49135  1.0000
  H   H4026     1.0  0.29392  0.86022  0.49154  1.0000
  H   H4027     1.0  0.49531  0.91066  0.33751  1.0000
  H   H4028     1.0  0.49500  0.89785  0.33307  1.0000
  H   H4029     1.0  0.03762  0.74362  0.41939  1.0000
  H   H4030     1.0  0.01373  0.79600  0.49109  1.0000
  H   H4031     1.0  0.05300  0.74380  0.40046  1.0000
  H   H4032     1.0  0.02832  0.74306  0.39285  1.0000
  H   H4033     1.0  0.05750  0.74375  0.48329  1.0000
  H   H4034     1.0  0.03642  0.80203  0.49184  1.0000
  H   H4035     1.0  0.35669  0.91314  0.49158  1.0000
  H   H4036     1.0  0.01738  0.74342  0.47389  1.0000
  H   H4037     1.0  0.07206  0.89697  0.49086  1.0000
  C   C2263     1.0  0.48880  0.93996  0.24190  1.0000
  N   N126      1.0  0.08559  0.88092  0.49167  1.0000
  Fe  Fe262     1.0  0.40200  0.95665  0.54970  1.0000
  S   S509      1.0  0.39415  0.94972  0.56866  1.0000
  S   S510      1.0  0.41312  0.94432  0.53787  1.0000
  Fe  Fe263     1.0  0.38905  0.98153  0.55057  1.0000
  S   S511      1.0  0.38001  0.97666  0.56950  1.0000
  H   H4038     1.0  0.35405  0.92938  0.50028  1.0000
  Fe  Fe264     1.0  0.39775  0.96551  0.57218  1.0000
  S   S512      1.0  0.40264  0.96440  0.58943  1.0000
  Fe  Fe265     1.0  0.37719  0.96137  0.56448  1.0000
  S   S513      1.0  0.35963  0.95591  0.57148  1.0000
  S   S514      1.0  0.40703  0.97145  0.55344  1.0000
  S   S515      1.0  0.38481  0.96725  0.54531  1.0000
  H   H4039     1.0  0.43483  0.96821  0.69019  1.0000
  H   H4040     1.0  0.07419  0.86930  0.51482  1.0000
  N   N127      1.0  0.04488  0.81242  0.53007  1.0000
  H   H4041     1.0  0.45172  0.98151  0.73172  1.0000
  H   H4042     1.0  0.37694  0.96618  0.49784  1.0000
  H   H4043     1.0  0.06392  0.87347  0.49988  1.0000
  H   H4044     1.0  0.00406  0.76122  0.54981  1.0000
  C   C2264     1.0  0.33354  0.87914  0.51063  1.0000
  H   H4045     1.0  0.17312  0.95177  0.54136  1.0000
  H   H4046     1.0  0.05394  0.75556  0.49814  1.0000
  H   H4047     1.0  0.34412  0.90841  0.50105  1.0000
  H   H4048     1.0  0.37577  0.90029  0.52416  1.0000
  S   S516      1.0  0.33990  0.97959  0.51360  1.0000
  H   H4049     1.0  0.29796  0.98725  0.52860  1.0000
  Fe  Fe266     1.0  0.32420  0.92661  0.54634  1.0000
  S   S517      1.0  0.32335  0.92058  0.53079  1.0000
  S   S518      1.0  0.34316  0.92675  0.54537  1.0000
  Fe  Fe267     1.0  0.29730  0.93017  0.55535  1.0000
  S   S519      1.0  0.29468  0.92483  0.54023  1.0000
  S   S520      1.0  0.28198  0.93498  0.57012  1.0000
  Fe  Fe268     1.0  0.31051  0.91046  0.54318  1.0000
  S   S521      1.0  0.31115  0.89175  0.54371  1.0000
  Fe  Fe269     1.0  0.30777  0.93558  0.52937  1.0000
  S   S522      1.0  0.30658  0.94882  0.51251  1.0000
  S   S523      1.0  0.31252  0.91502  0.55903  1.0000
  S   S524      1.0  0.30911  0.94229  0.54421  1.0000
  H   H4050     1.0  0.28632  0.92993  0.50780  1.0000
  H   H4051     1.0  0.30351  0.83452  0.51597  1.0000
  H   H4052     1.0  0.35469  0.98807  0.57476  1.0000
  C   C2265     1.0  0.37179  0.89155  0.49273  1.0000
  H   H4053     1.0  0.38729  0.97752  0.50435  1.0000
  H   H4054     1.0  0.27020  0.95664  0.53895  1.0000
  H   H4055     1.0  0.06180  0.82556  0.52728  1.0000
  S   S525      1.0  0.48791  0.93046  0.70855  1.0000
  H   H4056     1.0  0.10348  0.90272  0.49830  1.0000
  C   C2266     1.0  0.04651  0.80650  0.54239  1.0000
  Fe  Fe270     1.0  0.22699  0.92918  0.55467  1.0000
  S   S526      1.0  0.24216  0.92236  0.54105  1.0000
  S   S527      1.0  0.22981  0.93607  0.56882  1.0000
  Fe  Fe271     1.0  0.20910  0.92370  0.54458  1.0000
  S   S528      1.0  0.22302  0.91659  0.53013  1.0000
  S   S529      1.0  0.18974  0.92543  0.54667  1.0000
  Fe  Fe272     1.0  0.23315  0.90774  0.54434  1.0000
  S   S530      1.0  0.24313  0.88919  0.54915  1.0000
  Fe  Fe273     1.0  0.23037  0.93209  0.52862  1.0000
  S   S531      1.0  0.23597  0.94552  0.51269  1.0000
  S   S532      1.0  0.21867  0.91381  0.55894  1.0000
  S   S533      1.0  0.21565  0.93987  0.54201  1.0000
  Fe  Fe274     1.0  0.16345  0.89787  0.51375  1.0000
  C   C2267     1.0  0.03388  0.80985  0.52884  1.0000
  S   S534      1.0  0.17026  0.89095  0.53041  1.0000
  C   C2268     1.0  0.22745  0.96702  0.56895  1.0000
  H   H4057     1.0  0.08067  0.78594  0.51644  1.0000
  C   C2269     1.0  0.34658  0.89068  0.54227  1.0000
  H   H4058     1.0  0.26613  0.90318  0.52984  1.0000
  H   H4059     1.0  0.21396  0.87231  0.54015  1.0000
  H   H4060     1.0  0.13407  0.81585  0.50919  1.0000
  S   S535      1.0  0.13533  0.93627  0.50279  1.0000
  C   C2270     1.0  0.10345  0.79768  0.51530  1.0000
  S   S536      1.0  0.14419  0.90213  0.51410  1.0000
  H   H4061     1.0  0.42824  0.95669  0.69938  1.0000
  H   H4062     1.0  0.45404  0.94724  0.50348  1.0000
  H   H4063     1.0  0.03890  0.81006  0.54902  1.0000
  H   H4064     1.0  0.39267  0.92405  0.57508  1.0000
  C   C2271     1.0  0.27748  0.90045  0.54184  1.0000
  H   H4065     1.0  0.19682  0.88553  0.52085  1.0000
  S   S537      1.0  0.02949  0.75615  0.54791  1.0000
  H   H4066     1.0  0.08853  0.87035  0.51521  1.0000
  H   H4067     1.0  0.05771  0.83061  0.51345  1.0000
  H   H4068     1.0  0.41346  0.98919  0.60632  1.0000
  C   C2272     1.0  0.09448  0.88618  0.49374  1.0000
  C   C2273     1.0  0.21434  0.89570  0.50607  1.0000
  H   H4069     1.0  0.42772  0.96003  0.65922  1.0000
  H   H4070     1.0  0.31148  0.92139  0.49816  1.0000
  H   H4071     1.0  0.11660  0.83847  0.51491  1.0000
  H   H4072     1.0  0.32884  0.97336  0.56269  1.0000
  S   S538      1.0  0.24181  0.98584  0.53233  1.0000
  H   H4073     1.0  0.45518  0.92557  0.69109  1.0000
  N   N128      1.0  0.25375  0.97945  0.56829  1.0000
  C   C2274     1.0  0.24783  0.99231  0.56769  1.0000
  C   C2275     1.0  0.01966  0.76984  0.51714  1.0000
  H   H4074     1.0  0.49079  0.97101  0.72439  1.0000
  H   H4075     1.0  0.02260  0.80717  0.54665  1.0000
  C   C2276     1.0  0.42946  0.97356  0.71076  1.0000
  H   H4076     1.0  0.14239  0.83055  0.51469  1.0000
  C   C2277     1.0  0.08681  0.78563  0.53150  1.0000
  C   C2278     1.0  0.12024  0.82883  0.51674  1.0000
  C   C2279     1.0  0.24423  0.97254  0.57329  1.0000
  C   C2280     1.0  0.49561  0.98078  0.69481  1.0000
  Fe  Fe275     1.0  0.48998  0.91266  0.72056  1.0000
  H   H4077     1.0  0.05892  0.79119  0.55870  1.0000
  H   H4078     1.0  0.24785  0.96304  0.57350  1.0000
  Fe  Fe276     1.0  0.06902  0.76727  0.53509  1.0000
  H   H4079     1.0  0.41350  0.96520  0.64279  1.0000
  C   C2281     1.0  0.20159  0.99128  0.54858  1.0000
  H   H4080     1.0  0.36363  0.88749  0.53063  1.0000
  C   C2282     1.0  0.43662  0.95976  0.69660  1.0000
  C   C2283     1.0  0.45352  0.93912  0.50134  1.0000
  H   H4081     1.0  0.29872  0.85674  0.52569  1.0000
  C   C2284     1.0  0.09493  0.78893  0.53539  1.0000
  H   H4082     1.0  0.46882  0.92175  0.67150  1.0000
  H   H4083     1.0  0.04886  0.84382  0.53371  1.0000
  H   H4084     1.0  0.46611  0.95186  0.71115  1.0000
  H   H4085     1.0  0.26847  0.96089  0.59731  1.0000
  C   C2285     1.0  0.00181  0.76791  0.53188  1.0000
  H   H4086     1.0  0.11774  0.98992  0.50046  1.0000
  Fe  Fe277     1.0  0.06124  0.76639  0.51402  1.0000
  H   H4087     1.0  0.25855  0.94033  0.49909  1.0000
  S   S539      1.0  0.13728  0.88090  0.50144  1.0000
  H   H4088     1.0  0.03354  0.74580  0.51695  1.0000
  H   H4089     1.0  0.45221  0.97383  0.68651  1.0000
  H   H4090     1.0  0.09488  0.78677  0.54467  1.0000
  C   C2286     1.0  0.22716  0.87696  0.51276  1.0000
  H   H4091     1.0  0.21402  0.98315  0.52838  1.0000
  S   S540      1.0  0.46257  0.93954  0.65170  1.0000
  H   H4092     1.0  0.05048  0.81955  0.50549  1.0000
  H   H4093     1.0  0.20652  0.89550  0.54874  1.0000
  H   H4094     1.0  0.29342  0.90446  0.57809  1.0000
  H   H4095     1.0  0.19354  0.86725  0.50217  1.0000
  C   C2287     1.0  0.05745  0.80775  0.54562  1.0000
  C   C2288     1.0  0.29530  0.89489  0.57840  1.0000
  H   H4096     1.0  0.28002  0.89082  0.54239  1.0000
  H   H4097     1.0  0.20643  0.97462  0.49521  1.0000
  C   C2289     1.0  0.13736  0.95881  0.50003  1.0000
  C   C2290     1.0  0.48930  0.98859  0.64873  1.0000
  H   H4098     1.0  0.23194  0.86681  0.52932  1.0000
  S   S541      1.0  0.11442  0.80464  0.50542  1.0000
  H   H4099     1.0  0.05079  0.88858  0.51085  1.0000
  H   H4100     1.0  0.12869  0.96012  0.50575  1.0000
  H   H4101     1.0  0.39682  0.89885  0.51581  1.0000
  C   C2291     1.0  0.08738  0.86821  0.49813  1.0000
  H   H4102     1.0  0.28285  0.88612  0.50270  1.0000
  C   C2292     1.0  0.21093  0.88606  0.54928  1.0000
  H   H4103     1.0  0.22038  0.88486  0.54906  1.0000
  H   H4104     1.0  0.11991  0.75178  0.51411  1.0000
  H   H4105     1.0  0.06821  0.79604  0.50291  1.0000
  C   C2293     1.0  0.17131  0.94490  0.52218  1.0000
  H   H4106     1.0  0.38219  0.91497  0.57824  1.0000
  C   C2294     1.0  0.27184  0.95379  0.50864  1.0000
  H   H4107     1.0  0.16858  0.94039  0.56175  1.0000
  N   N129      1.0  0.21540  0.88509  0.51616  1.0000
  C   C2295     1.0  0.49396  0.97080  0.71522  1.0000
  H   H4108     1.0  0.40866  0.89710  0.55104  1.0000
  H   H4109     1.0  0.15729  0.98802  0.56393  1.0000
  H   H4110     1.0  0.40130  0.97718  0.64627  1.0000
  H   H4111     1.0  0.44741  0.96424  0.70582  1.0000
  H   H4112     1.0  0.27738  0.89374  0.58531  1.0000
  H   H4113     1.0  0.21769  0.90987  0.51170  1.0000
  H   H4114     1.0  0.49551  0.93647  0.61904  1.0000
  C   C2296     1.0  0.09513  0.79467  0.51138  1.0000
  C   C2297     1.0  0.23851  0.95659  0.51772  1.0000
  C   C2298     1.0  0.23880  0.95476  0.52952  1.0000
  C   C2299     1.0  0.24009  0.96370  0.53385  1.0000
  C   C2300     1.0  0.24086  0.97465  0.52646  1.0000
  C   C2301     1.0  0.24071  0.97655  0.51459  1.0000
  C   C2302     1.0  0.23982  0.96741  0.51015  1.0000
  H   H4115     1.0  0.23794  0.94649  0.53543  1.0000
  H   H4116     1.0  0.24015  0.96217  0.54303  1.0000
  H   H4117     1.0  0.24140  0.98501  0.50883  1.0000
  H   H4118     1.0  0.23969  0.96886  0.50100  1.0000
  C   C2303     1.0  0.25127  0.88287  0.53723  1.0000
  C   C2304     1.0  0.25831  0.87152  0.53934  1.0000
  C   C2305     1.0  0.26479  0.86619  0.52993  1.0000
  H   H4119     1.0  0.21682  0.89287  0.49755  1.0000
  H   H4120     1.0  0.28005  0.96248  0.54309  1.0000
  H   H4121     1.0  0.38774  0.98407  0.51572  1.0000
  H   H4122     1.0  0.25865  0.86680  0.54826  1.0000
  H   H4123     1.0  0.27010  0.85734  0.53159  1.0000
  C   C2306     1.0  0.04324  0.82560  0.52794  1.0000
  H   H4124     1.0  0.26488  0.95837  0.56022  1.0000
  C   C2307     1.0  0.18572  0.91491  0.54205  1.0000
  C   C2308     1.0  0.18839  0.91451  0.53014  1.0000
  C   C2309     1.0  0.18334  0.90752  0.52637  1.0000
  C   C2310     1.0  0.17613  0.90042  0.53461  1.0000
  C   C2311     1.0  0.17388  0.90050  0.54654  1.0000
  C   C2312     1.0  0.17839  0.90794  0.55020  1.0000
  H   H4125     1.0  0.19403  0.91990  0.52380  1.0000
  H   H4126     1.0  0.18510  0.90749  0.51714  1.0000
  H   H4127     1.0  0.16836  0.89500  0.55294  1.0000
  H   H4128     1.0  0.17617  0.90829  0.55940  1.0000
  C   C2313     1.0  0.26774  0.93472  0.56942  1.0000
  C   C2314     1.0  0.25873  0.93508  0.57957  1.0000
  C   C2315     1.0  0.24718  0.93550  0.57925  1.0000
  C   C2316     1.0  0.24450  0.93547  0.56880  1.0000
  C   C2317     1.0  0.25346  0.93528  0.55857  1.0000
  C   C2318     1.0  0.26506  0.93486  0.55889  1.0000
  H   H4129     1.0  0.26068  0.93507  0.58773  1.0000
  H   H4130     1.0  0.24029  0.93577  0.58717  1.0000
  H   H4131     1.0  0.25142  0.93579  0.55034  1.0000
  H   H4132     1.0  0.27179  0.93507  0.55090  1.0000
  C   C2319     1.0  0.31955  0.88711  0.53083  1.0000
  C   C2320     1.0  0.32169  0.89516  0.52010  1.0000
  H   H4133     1.0  0.15104  0.93757  0.51988  1.0000
  C   C2321     1.0  0.05448  0.83067  0.52296  1.0000
  C   C2322     1.0  0.33133  0.87114  0.52133  1.0000
  C   C2323     1.0  0.32424  0.87510  0.53138  1.0000
  H   H4134     1.0  0.31794  0.90444  0.51962  1.0000
  H   H4135     1.0  0.03542  0.76566  0.52329  1.0000
  H   H4136     1.0  0.33514  0.86185  0.52188  1.0000
  H   H4137     1.0  0.32259  0.86887  0.53964  1.0000
  H   H4138     1.0  0.16463  0.86352  0.49402  1.0000
  H   H4139     1.0  0.16566  0.95589  0.56123  1.0000
  H   H4140     1.0  0.36630  0.99296  0.53992  1.0000
  H   H4141     1.0  0.18907  0.93285  0.50564  1.0000
  H   H4142     1.0  0.45309  0.91622  0.71229  1.0000
  C   C2324     1.0  0.30373  0.86881  0.50172  1.0000
  C   C2325     1.0  0.26062  0.97785  0.55610  1.0000
  S   S542      1.0  0.44243  0.96586  0.63598  1.0000
  H   H4143     1.0  0.21996  0.97039  0.56453  1.0000
  C   C2326     1.0  0.05847  0.80061  0.55798  1.0000
  C   C2327     1.0  0.47125  0.95723  0.71277  1.0000
  C   C2328     1.0  0.05190  0.84336  0.52429  1.0000
  H   H4144     1.0  0.48535  0.91740  0.68145  1.0000
  C   C2329     1.0  0.33125  0.97095  0.51221  1.0000
  C   C2330     1.0  0.32250  0.97580  0.50570  1.0000
  C   C2331     1.0  0.31512  0.96893  0.50535  1.0000
  C   C2332     1.0  0.31657  0.95720  0.51148  1.0000
  C   C2333     1.0  0.32575  0.95226  0.51742  1.0000
  C   C2334     1.0  0.33311  0.95908  0.51774  1.0000
  H   H4145     1.0  0.32150  0.98478  0.50079  1.0000
  H   H4146     1.0  0.30817  0.97276  0.50058  1.0000
  H   H4147     1.0  0.32718  0.94317  0.52190  1.0000
  H   H4148     1.0  0.34001  0.95522  0.52258  1.0000
  C   C2335     1.0  0.41677  0.96867  0.50727  1.0000
  H   H4149     1.0  0.47328  0.96636  0.66702  1.0000
  H   H4150     1.0  0.28436  0.98271  0.53495  1.0000
  S   S543      1.0  0.00046  0.77416  0.50843  1.0000
  S   S544      1.0  0.05193  0.77448  0.52949  1.0000
  C   C2336     1.0  0.23390  0.97673  0.56691  1.0000
  H   H4151     1.0  0.22542  0.96083  0.49332  1.0000
  S   S545      1.0  0.05645  0.74893  0.52210  1.0000
  H   H4152     1.0  0.43107  0.97557  0.71845  1.0000
  C   C2337     1.0  0.02903  0.79748  0.49572  1.0000
  C   C2338     1.0  0.41500  0.95128  0.52287  1.0000
  C   C2339     1.0  0.41443  0.96337  0.51930  1.0000
  S   S546      1.0  0.46981  0.96246  0.62091  1.0000
  C   C2340     1.0  0.46356  0.96514  0.72107  1.0000
  C   C2341     1.0  0.14057  0.83206  0.50584  1.0000
  C   C2342     1.0  0.41737  0.94461  0.51438  1.0000
  H   H4153     1.0  0.41261  0.96856  0.52580  1.0000
  H   H4154     1.0  0.04408  0.88604  0.50060  1.0000
  H   H4155     1.0  0.37804  0.96727  0.52353  1.0000
  H   H4156     1.0  0.41779  0.93527  0.51711  1.0000
  C   C2343     1.0  0.35518  0.94780  0.56412  1.0000
  C   C2344     1.0  0.34572  0.94234  0.56995  1.0000
  C   C2345     1.0  0.34182  0.93603  0.56425  1.0000
  C   C2346     1.0  0.34728  0.93520  0.55262  1.0000
  C   C2347     1.0  0.35674  0.94064  0.54679  1.0000
  C   C2348     1.0  0.36064  0.94696  0.55249  1.0000
  H   H4157     1.0  0.34148  0.94289  0.57896  1.0000
  H   H4158     1.0  0.33478  0.93156  0.56893  1.0000
  H   H4159     1.0  0.36091  0.94015  0.53775  1.0000
  H   H4160     1.0  0.36774  0.95135  0.54784  1.0000
  H   H4161     1.0  0.36840  0.98075  0.52688  1.0000
  C   C2349     1.0  0.31315  0.84802  0.50543  1.0000
  H   H4162     1.0  0.15179  0.92305  0.54506  1.0000
  C   C2350     1.0  0.45832  0.92936  0.69663  1.0000
  C   C2351     1.0  0.45697  0.95814  0.73260  1.0000
  H   H4163     1.0  0.02124  0.82242  0.53913  1.0000
  H   H4164     1.0  0.38012  0.89355  0.49276  1.0000
  H   H4165     1.0  0.21101  0.98680  0.54596  1.0000
  H   H4166     1.0  0.33014  0.89733  0.50163  1.0000
  C   C2352     1.0  0.26875  0.96302  0.57882  1.0000
  C   C2353     1.0  0.41534  0.96691  0.59202  1.0000
  C   C2354     1.0  0.41720  0.96348  0.60354  1.0000
  C   C2355     1.0  0.42697  0.96552  0.60611  1.0000
  C   C2356     1.0  0.43493  0.97122  0.59720  1.0000
  C   C2357     1.0  0.43305  0.97470  0.58569  1.0000
  C   C2358     1.0  0.42334  0.97255  0.58309  1.0000
  H   H4167     1.0  0.41111  0.95907  0.61051  1.0000
  H   H4168     1.0  0.42842  0.96253  0.61495  1.0000
  S   S547      1.0  0.06457  0.75003  0.54549  1.0000
  H   H4169     1.0  0.42204  0.97527  0.57420  1.0000
  H   H4170     1.0  0.23825  0.91268  0.58626  1.0000
  H   H4171     1.0  0.06004  0.84678  0.52064  1.0000
  H   H4172     1.0  0.43020  0.98126  0.70334  1.0000
  H   H4173     1.0  0.39543  0.90971  0.55990  1.0000
  H   H4174     1.0  0.42038  0.97214  0.71297  1.0000
  N   N130      1.0  0.39237  0.91790  0.54238  1.0000
  C   C2359     1.0  0.39400  0.91853  0.55403  1.0000
  C   C2360     1.0  0.40373  0.91117  0.53598  1.0000
  C   C2361     1.0  0.39017  0.93031  0.53510  1.0000
  C   C2362     1.0  0.38212  0.91261  0.54359  1.0000
  C   C2363     1.0  0.37924  0.90300  0.55481  1.0000
  C   C2364     1.0  0.38381  0.92675  0.56092  1.0000
  C   C2365     1.0  0.38915  0.93166  0.52232  1.0000
  C   C2366     1.0  0.40805  0.89817  0.54186  1.0000
  C   C2367     1.0  0.42030  0.89300  0.53515  1.0000
  C   C2368     1.0  0.36979  0.89744  0.55399  1.0000
  C   C2369     1.0  0.38562  0.94456  0.51636  1.0000
  H   H4175     1.0  0.40298  0.91085  0.52719  1.0000
  H   H4176     1.0  0.41092  0.91585  0.53438  1.0000
  H   H4177     1.0  0.39724  0.93463  0.53459  1.0000
  H   H4178     1.0  0.38193  0.93574  0.53936  1.0000
  H   H4179     1.0  0.37383  0.91954  0.54352  1.0000
  H   H4180     1.0  0.38344  0.90891  0.53579  1.0000
  H   H4181     1.0  0.37575  0.90686  0.56271  1.0000
  H   H4182     1.0  0.38703  0.89592  0.55636  1.0000
  H   H4183     1.0  0.38463  0.93602  0.55726  1.0000
  H   H4184     1.0  0.37512  0.92613  0.56026  1.0000
  H   H4185     1.0  0.38243  0.92720  0.52219  1.0000
  H   H4186     1.0  0.39774  0.92806  0.51685  1.0000
  H   H4187     1.0  0.40207  0.89286  0.54167  1.0000
  H   H4188     1.0  0.42314  0.88361  0.53937  1.0000
  H   H4189     1.0  0.36763  0.89084  0.56222  1.0000
  H   H4190     1.0  0.36163  0.90427  0.55287  1.0000
  H   H4191     1.0  0.37291  0.89295  0.54650  1.0000
  H   H4192     1.0  0.37648  0.94849  0.52056  1.0000
  H   H4193     1.0  0.39173  0.94961  0.51681  1.0000
  H   H4194     1.0  0.38609  0.94518  0.50696  1.0000
  C   C2370     1.0  0.08378  0.86599  0.51175  1.0000
  H   H4195     1.0  0.26962  0.87679  0.58408  1.0000
  H   H4196     1.0  0.27879  0.87930  0.56134  1.0000
  H   H4197     1.0  0.26029  0.91076  0.57353  1.0000
  H   H4198     1.0  0.24596  0.89552  0.56956  1.0000
  H   H4199     1.0  0.36716  0.88444  0.51115  1.0000
  H   H4200     1.0  0.43740  0.95528  0.71525  1.0000
  Fe  Fe278     1.0  0.44511  0.98156  0.64034  1.0000
  C   C2371     1.0  0.30220  0.84422  0.51447  1.0000
  H   H4201     1.0  0.34875  0.88215  0.54848  1.0000
  H   H4202     1.0  0.46797  0.91216  0.70408  1.0000
  C   C2372     1.0  0.17288  0.94617  0.50876  1.0000
  H   H4203     1.0  0.28825  0.89440  0.55906  1.0000
  C   C2373     1.0  0.35430  0.89004  0.52999  1.0000
  H   H4204     1.0  0.28069  0.90743  0.56435  1.0000
  C   C2374     1.0  0.16375  0.95180  0.54567  1.0000
  H   H4205     1.0  0.43917  0.97906  0.57871  1.0000
  H   H4206     1.0  0.03747  0.83026  0.52159  1.0000
  H   H4207     1.0  0.49084  0.95392  0.60315  1.0000
  C   C2375     1.0  0.14703  0.92809  0.53798  1.0000
  H   H4208     1.0  0.44071  0.93698  0.70541  1.0000
  H   H4209     1.0  0.28111  0.90417  0.52282  1.0000
  H   H4210     1.0  0.15830  0.96074  0.54323  1.0000
  H   H4211     1.0  0.08731  0.75846  0.49247  1.0000
  H   H4212     1.0  0.26451  0.85812  0.58561  1.0000
  H   H4213     1.0  0.49267  0.98654  0.59404  1.0000
  C   C2376     1.0  0.25944  0.90184  0.57358  1.0000
  C   C2377     1.0  0.13130  0.97063  0.52882  1.0000
  C   C2378     1.0  0.26790  0.86333  0.57682  1.0000
  C   C2379     1.0  0.08692  0.78848  0.51947  1.0000
  H   H4214     1.0  0.16551  0.93383  0.54480  1.0000
  C   C2380     1.0  0.14291  0.91925  0.53420  1.0000
  H   H4215     1.0  0.10977  0.79699  0.53038  1.0000
  H   H4216     1.0  0.27751  0.85976  0.57417  1.0000
  H   H4217     1.0  0.35166  0.90900  0.52534  1.0000
  H   H4218     1.0  0.26344  0.86235  0.57043  1.0000
  H   H4219     1.0  0.05698  0.79716  0.52428  1.0000
  H   H4220     1.0  0.04480  0.85131  0.49834  1.0000
  H   H4221     1.0  0.28670  0.88187  0.57834  1.0000
  C   C2381     1.0  0.24683  0.90325  0.57210  1.0000
  H   H4222     1.0  0.27115  0.91607  0.52922  1.0000
  N   N131      1.0  0.31391  0.97171  0.55734  1.0000
  C   C2382     1.0  0.30553  0.97834  0.56634  1.0000
  C   C2383     1.0  0.31603  0.95864  0.56264  1.0000
  C   C2384     1.0  0.32560  0.97510  0.55452  1.0000
  C   C2385     1.0  0.30979  0.97460  0.54599  1.0000
  C   C2386     1.0  0.29639  0.97725  0.54674  1.0000
  H   H4223     1.0  0.23091  0.90039  0.50554  1.0000
  C   C2387     1.0  0.33548  0.96881  0.54564  1.0000
  C   C2388     1.0  0.30517  0.95353  0.56987  1.0000
  C   C2389     1.0  0.30889  0.94046  0.57529  1.0000
  C   C2390     1.0  0.29397  0.97993  0.53445  1.0000
  H   H4224     1.0  0.48909  0.88169  0.73019  1.0000
  C   C2391     1.0  0.34649  0.97376  0.54216  1.0000
  C   C2392     1.0  0.41334  0.98129  0.62933  1.0000
  H   H4225     1.0  0.29662  0.97659  0.56829  1.0000
  H   H4226     1.0  0.32067  0.95350  0.55572  1.0000
  H   H4227     1.0  0.32208  0.95632  0.56874  1.0000
  C   C2393     1.0  0.33864  0.98782  0.57114  1.0000
  H   H4228     1.0  0.32473  0.98465  0.55071  1.0000
  H   H4229     1.0  0.31279  0.98248  0.53993  1.0000
  H   H4230     1.0  0.31401  0.96740  0.54109  1.0000
  H   H4231     1.0  0.29172  0.98507  0.55053  1.0000
  H   H4232     1.0  0.29253  0.96976  0.55214  1.0000
  C   C2394     1.0  0.02611  0.76616  0.52583  1.0000
  H   H4233     1.0  0.12680  0.74508  0.49491  1.0000
  H   H4234     1.0  0.33262  0.96973  0.53752  1.0000
  H   H4235     1.0  0.33791  0.95936  0.54950  1.0000
  H   H4236     1.0  0.30043  0.95786  0.57732  1.0000
  H   H4237     1.0  0.29906  0.95444  0.56431  1.0000
  H   H4238     1.0  0.31456  0.93910  0.58151  1.0000
  H   H4239     1.0  0.30098  0.93693  0.58022  1.0000
  H   H4240     1.0  0.31376  0.93543  0.56836  1.0000
  H   H4241     1.0  0.29762  0.97205  0.53051  1.0000
  C   C2395     1.0  0.05360  0.80994  0.50858  1.0000
  H   H4242     1.0  0.48766  0.98935  0.70939  1.0000
  C   C2396     1.0  0.18579  0.94247  0.50271  1.0000
  C   C2397     1.0  0.27425  0.95239  0.49581  1.0000
  H   H4243     1.0  0.35005  0.97266  0.54996  1.0000
  H   H4244     1.0  0.34457  0.98319  0.53775  1.0000
  H   H4245     1.0  0.25645  0.98453  0.54920  1.0000
  C   C2398     1.0  0.00758  0.77063  0.52005  1.0000
  H   H4246     1.0  0.24852  0.92471  0.50114  1.0000
  H   H4247     1.0  0.49556  0.96526  0.63044  1.0000
  H   H4248     1.0  0.29789  0.89001  0.58680  1.0000
  H   H4249     1.0  0.23347  0.95964  0.56507  1.0000
  C   C2399     1.0  0.38399  0.92381  0.57396  1.0000
  H   H4250     1.0  0.29510  0.86707  0.50710  1.0000
  C   C2400     1.0  0.27368  0.90637  0.53023  1.0000
  H   H4251     1.0  0.06345  0.80910  0.52125  1.0000
  H   H4252     1.0  0.30278  0.89264  0.57103  1.0000
  H   H4253     1.0  0.33713  0.89249  0.54210  1.0000
  H   H4254     1.0  0.15465  0.96365  0.52568  1.0000
  H   H4255     1.0  0.26579  0.93392  0.51088  1.0000
  C   C2401     1.0  0.33722  0.93140  0.49663  1.0000
  C   C2402     1.0  0.15689  0.81608  0.49878  1.0000
  H   H4256     1.0  0.28539  0.90350  0.54143  1.0000
  C   C2403     1.0  0.21464  0.88919  0.52709  1.0000
  C   C2404     1.0  0.07338  0.88776  0.49607  1.0000
  H   H4257     1.0  0.34223  0.90306  0.52095  1.0000
  C   C2405     1.0  0.38188  0.98297  0.51079  1.0000
  C   C2406     1.0  0.18095  0.99009  0.55298  1.0000
  H   H4258     1.0  0.22409  0.96373  0.57848  1.0000
  H   H4259     1.0  0.06570  0.80462  0.53943  1.0000
  S   S548      1.0  0.44732  0.97420  0.59995  1.0000
  H   H4260     1.0  0.34797  0.89773  0.54555  1.0000
  C   C2407     1.0  0.15957  0.94251  0.54228  1.0000
  H   H4261     1.0  0.26421  0.88324  0.55942  1.0000
  H   H4262     1.0  0.26325  0.95177  0.51370  1.0000
  H   H4263     1.0  0.34325  0.92442  0.51268  1.0000
  H   H4264     1.0  0.13935  0.97642  0.49816  1.0000
  C   C2408     1.0  0.26419  0.87219  0.51842  1.0000
  H   H4265     1.0  0.46440  0.92280  0.71302  1.0000
  C   C2409     1.0  0.32858  0.89115  0.50994  1.0000
  C   C2410     1.0  0.26723  0.92198  0.50029  1.0000
  H   H4266     1.0  0.16961  0.95551  0.50469  1.0000
  H   H4267     1.0  0.48535  0.96808  0.58604  1.0000
  S   S549      1.0  0.05979  0.77752  0.49625  1.0000
  C   C2411     1.0  0.47437  0.93642  0.65849  1.0000
  C   C2412     1.0  0.36932  0.96399  0.49632  1.0000
  C   C2413     1.0  0.37322  0.97608  0.51967  1.0000
  C   C2414     1.0  0.11758  0.74405  0.51292  1.0000
  C   C2415     1.0  0.10933  0.75702  0.49540  1.0000
  H   H4268     1.0  0.16801  0.94078  0.50679  1.0000
  H   H4269     1.0  0.19266  0.99191  0.53046  1.0000
  H   H4270     1.0  0.25256  0.91914  0.51527  1.0000
  N   N132      1.0  0.35923  0.90322  0.50884  1.0000
  C   C2416     1.0  0.19464  0.86900  0.51026  1.0000
  H   H4271     1.0  0.08207  0.84803  0.51411  1.0000
  H   H4272     1.0  0.13912  0.93427  0.54172  1.0000
  H   H4273     1.0  0.23701  0.97966  0.55731  1.0000
  H   H4274     1.0  0.16314  0.92748  0.52513  1.0000
  C   C2417     1.0  0.25081  0.88898  0.52571  1.0000
  C   C2418     1.0  0.44599  0.97628  0.73882  1.0000
  S   S550      1.0  0.27193  0.86511  0.50687  1.0000
  H   H4275     1.0  0.24544  0.89779  0.52408  1.0000
  H   H4276     1.0  0.38910  0.91353  0.51013  1.0000
  H   H4277     1.0  0.05082  0.80401  0.56466  1.0000
  H   H4278     1.0  0.00353  0.81528  0.54106  1.0000
  C   C2419     1.0  0.47529  0.92709  0.66829  1.0000
  H   H4279     1.0  0.44412  0.93876  0.50323  1.0000
  C   C2420     1.0  0.49225  0.97254  0.58594  1.0000
  H   H4280     1.0  0.04683  0.79691  0.54403  1.0000
  C   C2421     1.0  0.41923  0.96200  0.49879  1.0000
  C   C2422     1.0  0.43848  0.96266  0.70750  1.0000
  H   H4281     1.0  0.07225  0.88857  0.50525  1.0000
  H   H4282     1.0  0.06664  0.80125  0.55989  1.0000
  H   H4283     1.0  0.22669  0.92028  0.49279  1.0000
  H   H4284     1.0  0.26632  0.91321  0.55202  1.0000
  H   H4285     1.0  0.15032  0.81104  0.51805  1.0000
  H   H4286     1.0  0.47857  0.95133  0.71674  1.0000
  C   C2423     1.0  0.05515  0.80691  0.52142  1.0000
  H   H4287     1.0  0.24471  0.91110  0.56511  1.0000
  C   C2424     1.0  0.41083  0.97484  0.64221  1.0000
  H   H4288     1.0  0.08358  0.85150  0.52701  1.0000
  C   C2425     1.0  0.27100  0.96426  0.54178  1.0000
  C   C2426     1.0  0.48286  0.94318  0.65420  1.0000
  S   S551      1.0  0.46234  0.97272  0.64532  1.0000
  H   H4289     1.0  0.20290  0.98633  0.56717  1.0000
  C   C2427     1.0  0.26203  0.96577  0.55323  1.0000
  H   H4290     1.0  0.28081  0.96639  0.58718  1.0000
  S   S552      1.0  0.07655  0.77814  0.54196  1.0000
  H   H4291     1.0  0.45706  0.97182  0.71642  1.0000
  H   H4292     1.0  0.15059  0.91275  0.53056  1.0000
  H   H4293     1.0  0.24851  0.86124  0.51267  1.0000
  C   C2428     1.0  0.02064  0.76268  0.53758  1.0000
  C   C2429     1.0  0.36295  0.89173  0.50481  1.0000
  C   C2430     1.0  0.34691  0.92449  0.50325  1.0000
  H   H4294     1.0  0.25352  0.96497  0.55226  1.0000
  C   C2431     1.0  0.14336  0.96801  0.49577  1.0000
  C   C2432     1.0  0.16065  0.83507  0.49813  1.0000
  C   C2433     1.0  0.26184  0.97597  0.57669  1.0000
  H   H4295     1.0  0.26529  0.97277  0.50349  1.0000
  H   H4296     1.0  0.26955  0.97951  0.55439  1.0000
  H   H4297     1.0  0.12210  0.86532  0.50617  1.0000
  H   H4298     1.0  0.40810  0.97861  0.62481  1.0000
  N   N133      1.0  0.31058  0.85870  0.49581  1.0000
  H   H4299     1.0  0.05666  0.81704  0.54570  1.0000
  H   H4300     1.0  0.13521  0.97693  0.53072  1.0000
  H   H4301     1.0  0.43893  0.97582  0.73489  1.0000
  H   H4302     1.0  0.10135  0.75860  0.50253  1.0000
  H   H4303     1.0  0.12783  0.82794  0.49869  1.0000
  H   H4304     1.0  0.09623  0.84921  0.51515  1.0000
  C   C2434     1.0  0.39056  0.90409  0.51016  1.0000
  H   H4305     1.0  0.46927  0.96979  0.72288  1.0000
  C   C2435     1.0  0.02241  0.81338  0.53800  1.0000
  H   H4306     1.0  0.20450  0.98461  0.51216  1.0000
  H   H4307     1.0  0.35504  0.88902  0.50448  1.0000
  H   H4308     1.0  0.25675  0.97803  0.58536  1.0000
  H   H4309     1.0  0.29433  0.93924  0.49643  1.0000
  H   H4310     1.0  0.47000  0.98760  0.58678  1.0000
  H   H4311     1.0  0.04509  0.84904  0.51944  1.0000
  C   C2436     1.0  0.48619  0.98218  0.59319  1.0000
  H   H4312     1.0  0.25712  0.88839  0.50739  1.0000
  H   H4313     1.0  0.37395  0.91088  0.49851  1.0000
  C   C2437     1.0  0.06310  0.88288  0.49547  1.0000
  S   S553      1.0  0.10340  0.83770  0.49393  1.0000
  H   H4314     1.0  0.29326  0.89121  0.50710  1.0000
  H   H4315     1.0  0.03195  0.81459  0.52009  1.0000
  H   H4316     1.0  0.20169  0.88396  0.50033  1.0000
  C   C2438     1.0  0.30029  0.84714  0.52644  1.0000
  H   H4317     1.0  0.18610  0.87406  0.51453  1.0000
  H   H4318     1.0  0.32933  0.99277  0.57211  1.0000
  H   H4319     1.0  0.31101  0.90859  0.49374  1.0000
  H   H4320     1.0  0.48155  0.97834  0.60206  1.0000
  C   C2439     1.0  0.01157  0.81294  0.53426  1.0000
  C   C2440     1.0  0.26682  0.93452  0.50136  1.0000
  H   H4321     1.0  0.13736  0.91444  0.54189  1.0000
  S   S554      1.0  0.16616  0.91500  0.50193  1.0000
  C   C2441     1.0  0.23002  0.86518  0.52158  1.0000
  H   H4322     1.0  0.28904  0.89806  0.49320  1.0000
  H   H4323     1.0  0.39459  0.90286  0.50102  1.0000
  Fe  Fe279     1.0  0.14737  0.91857  0.50089  1.0000
  H   H4324     1.0  0.21677  0.97225  0.51316  1.0000
  H   H4325     1.0  0.29402  0.84804  0.51115  1.0000
  H   H4326     1.0  0.48226  0.95030  0.64657  1.0000
  C   C2442     1.0  0.27135  0.96643  0.50887  1.0000
  H   H4327     1.0  0.22748  0.98428  0.57025  1.0000
  C   C2443     1.0  0.20786  0.97743  0.52978  1.0000
  C   C2444     1.0  0.27500  0.96024  0.58888  1.0000
  C   C2445     1.0  0.08660  0.85287  0.51730  1.0000
  S   S555      1.0  0.47427  0.90656  0.73314  1.0000
  H   H4328     1.0  0.25599  0.90964  0.50511  1.0000
  C   C2446     1.0  0.20529  0.87943  0.51793  1.0000
  Fe  Fe280     1.0  0.14923  0.89346  0.49868  1.0000
  H   H4329     1.0  0.11329  0.82433  0.51722  1.0000
  C   C2447     1.0  0.20778  0.97597  0.51771  1.0000
  H   H4330     1.0  0.02415  0.77185  0.50809  1.0000
  H   H4331     1.0  0.26943  0.97225  0.53475  1.0000
  H   H4332     1.0  0.37916  0.87262  0.49638  1.0000
  H   H4333     1.0  0.22280  0.86046  0.52452  1.0000
  C   C2448     1.0  0.19527  0.98298  0.53595  1.0000
  H   H4334     1.0  0.26801  0.96768  0.51801  1.0000
  H   H4335     1.0  0.30845  0.86966  0.50799  1.0000
  N   N134      1.0  0.19354  0.98388  0.54849  1.0000
  C   C2449     1.0  0.05123  0.88960  0.50137  1.0000
  H   H4336     1.0  0.36227  0.96376  0.50447  1.0000
  H   H4337     1.0  0.45804  0.93140  0.50713  1.0000
  C   C2450     1.0  0.19677  0.97202  0.55643  1.0000
  C   C2451     1.0  0.19042  0.96256  0.55672  1.0000
  H   H4338     1.0  0.30838  0.97510  0.57485  1.0000
  H   H4339     1.0  0.24032  0.97294  0.58269  1.0000
  C   C2452     1.0  0.17116  0.98862  0.54794  1.0000
  H   H4340     1.0  0.37221  0.95514  0.49421  1.0000
  C   C2453     1.0  0.19423  0.95117  0.56541  1.0000
  C   C2454     1.0  0.15868  0.80977  0.51136  1.0000
  H   H4341     1.0  0.36663  0.91638  0.51126  1.0000
  H   H4342     1.0  0.16462  0.79222  0.52132  1.0000
  H   H4343     1.0  0.18941  0.97778  0.53529  1.0000
  H   H4344     1.0  0.24331  0.84881  0.52265  1.0000
  H   H4345     1.0  0.27880  0.94791  0.51319  1.0000
  S   S556      1.0  0.16847  0.88791  0.49938  1.0000
  C   C2455     1.0  0.02093  0.80309  0.50579  1.0000
  H   H4346     1.0  0.20642  0.96829  0.55413  1.0000
  H   H4347     1.0  0.19489  0.97292  0.56567  1.0000
  H   H4348     1.0  0.19240  0.96048  0.54794  1.0000
  H   H4349     1.0  0.18083  0.96555  0.55981  1.0000
  C   C2456     1.0  0.35173  0.91191  0.50081  1.0000
  H   H4350     1.0  0.21131  0.96863  0.53492  1.0000
  C   C2457     1.0  0.36959  0.90813  0.50792  1.0000
  H   H4351     1.0  0.44924  0.95661  0.73052  1.0000
  C   C2458     1.0  0.48461  0.92464  0.67392  1.0000
  H   H4352     1.0  0.17170  0.97937  0.54800  1.0000
  H   H4353     1.0  0.08265  0.86339  0.49517  1.0000
  C   C2459     1.0  0.29096  0.88961  0.49955  1.0000
  H   H4354     1.0  0.01773  0.81268  0.50258  1.0000
  H   H4355     1.0  0.19105  0.95248  0.57457  1.0000
  H   H4356     1.0  0.19046  0.94415  0.56465  1.0000
  H   H4357     1.0  0.20396  0.94813  0.56362  1.0000
  H   H4358     1.0  0.41589  0.97712  0.64723  1.0000
  H   H4359     1.0  0.35328  0.96887  0.53589  1.0000
  C   C2460     1.0  0.37898  0.90002  0.51471  1.0000
  C   C2461     1.0  0.06510  0.80571  0.50024  1.0000
  C   C2462     1.0  0.25733  0.88363  0.51629  1.0000
  N   N135      1.0  0.27703  0.93997  0.49408  1.0000
  H   H4360     1.0  0.20552  0.87149  0.52514  1.0000
  H   H4361     1.0  0.28044  0.95111  0.58972  1.0000
  C   C2463     1.0  0.23763  0.90500  0.58340  1.0000
  H   H4362     1.0  0.99726  0.74838  0.50842  1.0000
  H   H4363     1.0  0.41678  0.97794  0.50456  1.0000
  C   C2464     1.0  0.26754  0.90367  0.55249  1.0000
  H   H4364     1.0  0.38099  0.89078  0.51388  1.0000
  H   H4365     1.0  0.04712  0.80542  0.50794  1.0000
  H   H4366     1.0  0.02584  0.80171  0.51263  1.0000
  H   H4367     1.0  0.25575  0.87916  0.58049  1.0000
  Fe  Fe281     1.0  0.46033  0.95743  0.63972  1.0000
  H   H4368     1.0  0.25997  0.89671  0.58259  1.0000
  H   H4369     1.0  0.40216  0.92168  0.55272  1.0000
  H   H4370     1.0  0.43675  0.94537  0.66202  1.0000
  H   H4371     1.0  0.29247  0.84410  0.53247  1.0000
  H   H4372     1.0  0.33420  0.94046  0.49817  1.0000
  C   C2465     1.0  0.46106  0.91957  0.70718  1.0000
  H   H4373     1.0  0.32954  0.92724  0.49986  1.0000
  H   H4374     1.0  0.17433  0.95238  0.52298  1.0000
  H   H4375     1.0  0.23442  0.88134  0.51153  1.0000
  H   H4376     1.0  0.15083  0.95740  0.51630  1.0000
  C   C2466     1.0  0.15105  0.95622  0.52563  1.0000
  H   H4377     1.0  0.23886  0.89702  0.59052  1.0000
  C   C2467     1.0  0.16282  0.94909  0.55893  1.0000
  C   C2468     1.0  0.28440  0.89152  0.57765  1.0000
  H   H4378     1.0  0.03842  0.82865  0.53622  1.0000
  H   H4379     1.0  0.03276  0.78824  0.49958  1.0000
  N   N136      1.0  0.44650  0.95083  0.69103  1.0000
  C   C2469     1.0  0.44236  0.94722  0.68223  1.0000
  C   C2470     1.0  0.44896  0.94002  0.70062  1.0000
  C   C2471     1.0  0.45773  0.95514  0.68537  1.0000
  C   C2472     1.0  0.45649  0.96844  0.67978  1.0000
  C   C2473     1.0  0.26539  0.87625  0.57737  1.0000
  C   C2474     1.0  0.43795  0.95709  0.67216  1.0000
  C   C2475     1.0  0.43104  0.95275  0.66615  1.0000
  C   C2476     1.0  0.46853  0.97131  0.67405  1.0000
  H   H4380     1.0  0.12200  0.97164  0.53380  1.0000
  H   H4381     1.0  0.44954  0.94089  0.67769  1.0000
  H   H4382     1.0  0.43519  0.94244  0.68693  1.0000
  H   H4383     1.0  0.22869  0.90668  0.58181  1.0000
  H   H4384     1.0  0.46327  0.95317  0.69187  1.0000
  H   H4385     1.0  0.46325  0.95025  0.67844  1.0000
  C   C2477     1.0  0.20420  0.87594  0.50702  1.0000
  H   H4386     1.0  0.45121  0.97130  0.67302  1.0000
  H   H4387     1.0  0.46664  0.93202  0.69164  1.0000
  H   H4388     1.0  0.26297  0.95677  0.58121  1.0000
  H   H4389     1.0  0.43203  0.96497  0.67516  1.0000
  H   H4390     1.0  0.44560  0.95974  0.66541  1.0000
  H   H4391     1.0  0.42333  0.94981  0.67254  1.0000
  H   H4392     1.0  0.25933  0.90266  0.55095  1.0000
  C   C2478     1.0  0.25532  0.91871  0.50584  1.0000
  H   H4393     1.0  0.07194  0.81011  0.50023  1.0000
  H   H4394     1.0  0.46733  0.98087  0.67011  1.0000
  H   H4395     1.0  0.47396  0.96913  0.68068  1.0000
  H   H4396     1.0  0.35229  0.88299  0.52722  1.0000
  C   C2479     1.0  0.30430  0.99185  0.56303  1.0000
  H   H4397     1.0  0.01063  0.81932  0.52582  1.0000
  Fe  Fe282     1.0  0.45188  0.97231  0.61754  1.0000
  C   C2480     1.0  0.30566  0.91570  0.49839  1.0000
  H   H4398     1.0  0.03522  0.80028  0.52922  1.0000
  H   H4399     1.0  0.09487  0.77834  0.49420  1.0000
  H   H4400     1.0  0.20002  0.88259  0.54017  1.0000
  H   H4401     1.0  0.21253  0.87041  0.50303  1.0000
  H   H4402     1.0  0.13138  0.97285  0.51931  1.0000
  H   H4403     1.0  0.47505  0.96263  0.70427  1.0000
  H   H4404     1.0  0.17425  0.97668  0.50543  1.0000
  C   C2481     1.0  0.35160  0.90192  0.52119  1.0000
  C   C2482     1.0  0.18395  0.97497  0.50427  1.0000
  H   H4405     1.0  0.13763  0.92381  0.52745  1.0000
  C   C2483     1.0  0.22173  0.90471  0.50478  1.0000
  H   H4406     1.0  0.37707  0.93039  0.57839  1.0000
  H   H4407     1.0  0.30806  0.84262  0.53036  1.0000
  S   S557      1.0  0.34286  0.87382  0.49844  1.0000
  S   S558      1.0  0.00310  0.83872  0.50109  1.0000
  H   H4408     1.0  0.13730  0.95624  0.54209  1.0000
  N   N137      1.0  0.15905  0.94461  0.52956  1.0000
  H   H4409     1.0  0.09524  0.79682  0.50210  1.0000
  H   H4410     1.0  0.01222  0.80395  0.53323  1.0000
  H   H4411     1.0  0.20873  0.89805  0.52698  1.0000
  H   H4412     1.0  0.42113  0.94482  0.49584  1.0000
  C   C2484     1.0  0.28080  0.89791  0.56584  1.0000
  H   H4413     1.0  0.15359  0.94904  0.56382  1.0000
  C   C2485     1.0  0.28826  0.93329  0.49809  1.0000
  C   C2486     1.0  0.10336  0.79473  0.52731  1.0000
  C   C2487     1.0  0.13807  0.95800  0.53248  1.0000
  H   H4414     1.0  0.17844  0.98753  0.56275  1.0000
  H   H4415     1.0  0.17762  0.93689  0.52550  1.0000
  H   H4416     1.0  0.12273  0.82603  0.52539  1.0000
  H   H4417     1.0  0.28027  0.96833  0.50551  1.0000
  H   H4418     1.0  0.18694  0.96634  0.50995  1.0000
  H   H4419     1.0  0.18595  0.98201  0.50705  1.0000
  H   H4420     1.0  0.20220  0.96980  0.51868  1.0000
  C   C2488     1.0  0.26969  0.88385  0.56510  1.0000
  S   S559      1.0  0.42978  0.99184  0.65157  1.0000
  H   H4421     1.0  0.42680  0.89778  0.53526  1.0000
  H   H4422     1.0  0.20683  0.88093  0.55780  1.0000
  H   H4423     1.0  0.42022  0.89355  0.52588  1.0000
  H   H4424     1.0  0.30211  0.91165  0.50767  1.0000
  H   H4425     1.0  0.27370  0.91546  0.50503  1.0000
  H   H4426     1.0  0.13369  0.95212  0.53055  1.0000
  H   H4427     1.0  0.27561  0.96138  0.57081  1.0000
  Fe  Fe283     1.0  0.04823  0.75667  0.53818  1.0000
  H   H4428     1.0  0.15090  0.94182  0.54824  1.0000
  C   C2489     1.0  0.15531  0.93455  0.52754  1.0000
  H   H4429     1.0  0.36672  0.97500  0.51546  1.0000
  N   N138      1.0  0.26932  0.89656  0.56448  1.0000
  C   C2490     1.0  0.00839  0.76374  0.54069  1.0000
  C   C2491     1.0  0.41924  0.95001  0.50236  1.0000
  H   H4430     1.0  0.20501  0.90070  0.50685  1.0000
  H   H4431     1.0  0.31907  0.84936  0.51025  1.0000
  H   H4432     1.0  0.45226  0.94212  0.70727  1.0000
  C   C2492     1.0  0.24095  0.85693  0.51601  1.0000
  H   H4433     1.0  0.22342  0.89020  0.52726  1.0000
  C   C2493     1.0  0.20959  0.88174  0.53916  1.0000
  S   S560      1.0  0.07872  0.76065  0.51883  1.0000
  H   H4434     1.0  0.26874  0.98118  0.57344  1.0000
  H   H4435     1.0  0.09250  0.88672  0.50311  1.0000
  C   C2494     1.0  0.12601  0.86671  0.49685  1.0000
  H   H4436     1.0  0.19709  0.86045  0.51634  1.0000
  C   C2495     1.0  0.16718  0.85376  0.49626  1.0000
  H   H4437     1.0  0.22825  0.87506  0.50402  1.0000
  H   H4438     1.0  0.99779  0.74372  0.52923  1.0000
  C   C2496     1.0  0.13090  0.82553  0.50700  1.0000
  H   H4439     1.0  0.31836  0.84026  0.50173  1.0000
  C   C2497     1.0  0.49205  0.98113  0.70672  1.0000
  H   H4440     1.0  0.42276  0.97822  0.62546  1.0000
  H   H4441     1.0  0.49530  0.96403  0.60820  1.0000
  Fe  Fe284     1.0  0.47032  0.97860  0.62620  1.0000
  H   H4442     1.0  0.33892  0.97877  0.57660  1.0000
  H   H4443     1.0  0.01327  0.79892  0.50988  1.0000
  H   H4444     1.0  0.15136  0.81162  0.49635  1.0000
  H   H4445     1.0  0.19130  0.94722  0.50467  1.0000
  C   C2498     1.0  0.14267  0.94784  0.49706  1.0000
  H   H4446     1.0  0.43025  0.99155  0.61124  1.0000
  H   H4447     1.0  0.39586  0.98231  0.60562  1.0000
  S   S561      1.0  0.48466  0.98881  0.61942  1.0000
  H   H4448     1.0  0.48624  0.98043  0.73905  1.0000
  C   C2499     1.0  0.49144  0.98554  0.74092  1.0000
  H   H4449     1.0  0.46256  0.94921  0.73467  1.0000
  H   H4450     1.0  0.11756  0.85476  0.49381  1.0000
  C   C2500     1.0  0.22208  0.91351  0.49300  1.0000
  H   H4451     1.0  0.09679  0.86367  0.49582  1.0000
  C   C2501     1.0  0.49235  0.94049  0.65959  1.0000
  H   H4452     1.0  0.23929  0.85445  0.50858  1.0000
  C   C2502     1.0  0.30113  0.88107  0.49343  1.0000
  H   H4453     1.0  0.14930  0.85227  0.50082  1.0000
  H   H4454     1.0  0.13647  0.84158  0.50368  1.0000
  S   S562      1.0  0.06962  0.84818  0.49525  1.0000
  H   H4455     1.0  0.34242  0.98720  0.56182  1.0000
  H   H4456     1.0  0.04975  0.89909  0.49704  1.0000
  H   H4457     1.0  0.32696  0.86323  0.49422  1.0000
  H   H4458     1.0  0.02061  0.74507  0.51312  1.0000
  C   C2503     1.0  0.47685  0.99160  0.58751  1.0000
  Fe  Fe285     1.0  0.07308  0.74386  0.52858  1.0000
  C   C2504     1.0  0.39199  0.99188  0.60333  1.0000
  H   H4459     1.0  0.17191  0.79468  0.50597  1.0000
  H   H4460     1.0  0.10342  0.88034  0.49222  1.0000
  H   H4461     1.0  0.47939  0.95615  0.73674  1.0000
  H   H4462     1.0  0.29032  0.91684  0.49246  1.0000
  H   H4463     1.0  0.49488  0.97735  0.57672  1.0000
  C   C2505     1.0  0.29564  0.92285  0.49234  1.0000
  H   H4464     1.0  0.18661  0.94446  0.49305  1.0000
  H   H4465     1.0  0.16515  0.81311  0.51364  1.0000
  S   S563      1.0  0.45310  0.98881  0.62163  1.0000
  H   H4466     1.0  0.48507  0.98241  0.65618  1.0000
  N   N139      1.0  0.15184  0.82915  0.49689  1.0000
  H   H4467     1.0  0.20516  0.96122  0.49327  1.0000
  C   C2506     1.0  0.16333  0.79654  0.51228  1.0000
  C   C2507     1.0  0.49316  0.93133  0.66954  1.0000
  H   H4468     1.0  0.10874  0.74327  0.51856  1.0000
  H   H4469     1.0  0.16171  0.83257  0.50737  1.0000
  H   H4470     1.0  0.15693  0.79269  0.51046  1.0000
  H   H4471     1.0  0.30070  0.83919  0.49446  1.0000
  C   C2508     1.0  0.15758  0.84873  0.49492  1.0000
  C   C2509     1.0  0.11763  0.74529  0.50003  1.0000
  H   H4472     1.0  0.16830  0.85099  0.50548  1.0000
  H   H4473     1.0  0.11392  0.76408  0.49447  1.0000
  H   H4474     1.0  0.26645  0.95781  0.49217  1.0000
  H   H4475     1.0  0.16567  0.81419  0.49275  1.0000
  H   H4476     1.0  0.16956  0.83191  0.49284  1.0000
  C   C2510     1.0  0.13389  0.87422  0.49195  1.0000
  H   H4477     1.0  0.47386  0.98709  0.77003  1.0000
  C   C2511     1.0  0.47978  0.79074  0.91559  1.0000
  H   H4478     1.0  0.48491  0.96303  0.75184  1.0000
  H   H4479     1.0  0.45951  0.95035  0.89234  1.0000
  C   C2512     1.0  0.47144  0.90624  0.90930  1.0000
  H   H4480     1.0  0.47706  0.92234  0.91766  1.0000
  H   H4481     1.0  0.45689  0.94423  0.76282  1.0000
  H   H4482     1.0  0.47781  0.78590  0.91013  1.0000
  C   C2513     1.0  0.46620  0.91103  0.77104  1.0000
  H   H4483     1.0  0.47523  0.93256  0.89012  1.0000
  Fe  Fe286     1.0  0.47852  0.78893  0.95573  1.0000
  H   H4484     1.0  0.43699  0.95769  0.74966  1.0000
  S   S564      1.0  0.47414  0.80866  0.95097  1.0000
  Fe  Fe287     1.0  0.48900  0.76675  0.94612  1.0000
  S   S565      1.0  0.48931  0.75496  0.96393  1.0000
  H   H4485     1.0  0.44382  0.82372  0.98915  1.0000
  Fe  Fe288     1.0  0.47127  0.76610  0.96917  1.0000
  H   H4486     1.0  0.44375  0.98047  0.84016  1.0000
  H   H4487     1.0  0.43214  0.79808  0.98029  1.0000
  H   H4488     1.0  0.48683  0.95954  0.81523  1.0000
  S   S566      1.0  0.47046  0.77695  0.95100  1.0000
  C   C2514     1.0  0.45237  0.82493  0.98951  1.0000
  C   C2515     1.0  0.46457  0.97767  0.81501  1.0000
  C   C2516     1.0  0.48370  0.91904  0.91025  1.0000
  H   H4489     1.0  0.47800  0.87603  0.77032  1.0000
  H   H4490     1.0  0.42207  0.97945  0.78585  1.0000
  H   H4491     1.0  0.49587  0.97500  0.77476  1.0000
  S   S567      1.0  0.47750  0.77906  0.97438  1.0000
  S   S568      1.0  0.46380  0.91080  0.78607  1.0000
  H   H4492     1.0  0.47614  0.83213  0.94953  1.0000
  C   C2517     1.0  0.47576  0.91675  0.75043  1.0000
  C   C2518     1.0  0.48247  0.95450  0.75369  1.0000
  C   C2519     1.0  0.46099  0.90378  0.76795  1.0000
  C   C2520     1.0  0.46319  0.96495  0.74722  1.0000
  H   H4493     1.0  0.45533  0.89867  0.77469  1.0000
  C   C2521     1.0  0.44873  0.97719  0.83236  1.0000
  C   C2522     1.0  0.44860  0.99045  0.77940  1.0000
  H   H4494     1.0  0.47808  0.95230  0.76310  1.0000
  C   C2523     1.0  0.48909  0.80611  0.96507  1.0000
  H   H4495     1.0  0.45940  0.89698  0.75405  1.0000
  H   H4496     1.0  0.46522  0.81017  0.98328  1.0000
  H   H4497     1.0  0.43382  0.93854  0.76291  1.0000
  C   C2524     1.0  0.44074  0.93876  0.76712  1.0000
  C   C2525     1.0  0.47439  0.95484  0.74598  1.0000
  H   H4498     1.0  0.43862  0.95650  0.79516  1.0000
  H   H4499     1.0  0.48527  0.89292  0.76831  1.0000
  H   H4500     1.0  0.44651  0.80801  0.98126  1.0000
  Fe  Fe289     1.0  0.49547  0.76899  0.96759  1.0000
  H   H4501     1.0  0.43737  0.97411  0.77937  1.0000
  C   C2526     1.0  0.47748  0.87562  0.78819  1.0000
  H   H4502     1.0  0.44601  0.78766  0.98069  1.0000
  H   H4503     1.0  0.47244  0.94603  0.74834  1.0000
  H   H4504     1.0  0.49436  0.79416  0.92704  1.0000
  H   H4505     1.0  0.45433  0.89715  0.93727  1.0000
  S   S569      1.0  0.45585  0.75890  0.98081  1.0000
  H   H4506     1.0  0.46694  0.96487  0.80482  1.0000
  C   C2527     1.0  0.46580  0.90613  0.92251  1.0000
  H   H4507     1.0  0.46319  0.88825  0.92689  1.0000
  C   C2528     1.0  0.47992  0.92871  0.85016  1.0000
  H   H4508     1.0  0.47437  0.85847  0.98197  1.0000
  H   H4509     1.0  0.48901  0.97643  0.85960  1.0000
  H   H4510     1.0  0.47212  0.86887  0.79164  1.0000
  C   C2529     1.0  0.46181  0.96835  0.81246  1.0000
  H   H4511     1.0  0.46038  0.91484  0.92395  1.0000
  H   H4512     1.0  0.47621  0.97136  0.77363  1.0000
  C   C2530     1.0  0.45018  0.94459  0.75809  1.0000
  C   C2531     1.0  0.44559  0.96827  0.82948  1.0000
  H   H4513     1.0  0.47750  0.92335  0.76456  1.0000
  C   C2532     1.0  0.45923  0.98037  0.78238  1.0000
  C   C2533     1.0  0.43079  0.97461  0.78776  1.0000
  H   H4514     1.0  0.49067  0.94763  0.75200  1.0000
  H   H4515     1.0  0.45056  0.89962  0.92333  1.0000
  S   S570      1.0  0.46591  0.92167  0.81222  1.0000
  C   C2534     1.0  0.46957  0.97967  0.77175  1.0000
  H   H4516     1.0  0.46316  0.93606  0.91077  1.0000
  S   S571      1.0  0.44826  0.95266  0.81602  1.0000
  Fe  Fe290     1.0  0.46389  0.94118  0.80652  1.0000
  H   H4517     1.0  0.49503  0.95740  0.83778  1.0000
  H   H4518     1.0  0.48809  0.80772  0.91886  1.0000
  H   H4519     1.0  0.44645  0.98861  0.77193  1.0000
  H   H4520     1.0  0.49154  0.98612  0.78325  1.0000
  Fe  Fe291     1.0  0.47119  0.92196  0.79284  1.0000
  H   H4521     1.0  0.48226  0.97966  0.87404  1.0000
  C   C2535     1.0  0.45818  0.98196  0.82509  1.0000
  C   C2536     1.0  0.48146  0.82604  0.95541  1.0000
  H   H4522     1.0  0.43818  0.96470  0.83503  1.0000
  C   C2537     1.0  0.44487  0.95753  0.75272  1.0000
  S   S572      1.0  0.48244  0.94073  0.80648  1.0000
  H   H4523     1.0  0.48995  0.79678  0.96652  1.0000
  H   H4524     1.0  0.47828  0.89967  0.88912  1.0000
  C   C2538     1.0  0.45344  0.94444  0.89736  1.0000
  H   H4525     1.0  0.46024  0.96572  0.75658  1.0000
  H   H4526     1.0  0.44973  0.94220  0.89110  1.0000
  H   H4527     1.0  0.43084  0.99048  0.81568  1.0000
  C   C2539     1.0  0.45799  0.89723  0.92777  1.0000
  H   H4528     1.0  0.47143  0.95522  0.83513  1.0000
  C   C2540     1.0  0.44017  0.98398  0.74807  1.0000
  H   H4529     1.0  0.46256  0.98172  0.78936  1.0000
  H   H4530     1.0  0.45772  0.82890  0.97040  1.0000
  H   H4531     1.0  0.42376  0.96185  0.80286  1.0000
  N   N140      1.0  0.45302  0.96406  0.74292  1.0000
  H   H4532     1.0  0.47746  0.89737  0.90931  1.0000
  C   C2541     1.0  0.45990  0.93330  0.90456  1.0000
  H   H4533     1.0  0.43322  0.98027  0.75502  1.0000
  C   C2542     1.0  0.47700  0.95790  0.83931  1.0000
  H   H4534     1.0  0.48777  0.93605  0.91957  1.0000
  H   H4535     1.0  0.44684  0.98483  0.75222  1.0000
  Fe  Fe292     1.0  0.48478  0.92119  0.81080  1.0000
  C   C2543     1.0  0.45224  0.96375  0.81961  1.0000
  H   H4536     1.0  0.47936  0.78517  0.92460  1.0000
  C   C2544     1.0  0.47003  0.92633  0.89644  1.0000
  H   H4537     1.0  0.45337  0.92790  0.90953  1.0000
  C   C2545     1.0  0.47349  0.91767  0.76224  1.0000
  H   H4538     1.0  0.46621  0.97321  0.74241  1.0000
  H   H4539     1.0  0.49169  0.89710  0.86988  1.0000
  H   H4540     1.0  0.47369  0.96734  0.83958  1.0000
  H   H4541     1.0  0.48604  0.93659  0.89965  1.0000
  C   C2546     1.0  0.46329  0.90283  0.75625  1.0000
  H   H4542     1.0  0.47282  0.90352  0.92755  1.0000
  C   C2547     1.0  0.49561  0.88067  0.75073  1.0000
  H   H4543     1.0  0.46579  0.92364  0.89092  1.0000
  H   H4544     1.0  0.47297  0.79904  0.91598  1.0000
  H   H4545     1.0  0.44154  0.96193  0.76028  1.0000
  H   H4546     1.0  0.47144  0.88441  0.78825  1.0000
  H   H4547     1.0  0.48351  0.87410  0.79410  1.0000
  N   N141      1.0  0.47801  0.91580  0.90239  1.0000
  H   H4548     1.0  0.48758  0.88772  0.74957  1.0000
  H   H4549     1.0  0.47890  0.91332  0.87858  1.0000
  H   H4550     1.0  0.44609  0.94924  0.90333  1.0000
  C   C2548     1.0  0.43860  0.79329  0.98584  1.0000
  H   H4551     1.0  0.45418  0.93923  0.75131  1.0000
  H   H4552     1.0  0.42641  0.95818  0.78880  1.0000
  H   H4553     1.0  0.47118  0.93331  0.85382  1.0000
  H   H4554     1.0  0.47619  0.95291  0.84853  1.0000
  S   S573      1.0  0.46751  0.94162  0.78727  1.0000
  C   C2549     1.0  0.47084  0.90911  0.74747  1.0000
  C   C2550     1.0  0.49537  0.93174  0.91343  1.0000
  H   H4555     1.0  0.48570  0.97208  0.82040  1.0000
  H   H4556     1.0  0.44101  0.97450  0.79994  1.0000
  H   H4557     1.0  0.48132  0.92191  0.74367  1.0000
  C   C2551     1.0  0.48778  0.83023  0.96080  1.0000
  H   H4558     1.0  0.43666  0.94352  0.77439  1.0000
  H   H4559     1.0  0.45676  0.97173  0.78525  1.0000
  N   N142      1.0  0.43792  0.99214  0.78937  1.0000
  H   H4560     1.0  0.42628  0.98219  0.80283  1.0000
  C   C2552     1.0  0.48211  0.81396  0.95756  1.0000
  H   H4561     1.0  0.44480  0.92957  0.77095  1.0000
  H   H4562     1.0  0.46442  0.90641  0.90497  1.0000
  H   H4563     1.0  0.47437  0.92415  0.83692  1.0000
  H   H4564     1.0  0.47185  0.98129  0.80933  1.0000
  Fe  Fe293     1.0  0.48641  0.93920  0.78771  1.0000
  C   C2553     1.0  0.49117  0.92843  0.90432  1.0000
  H   H4565     1.0  0.45993  0.79109  0.99019  1.0000
  C   C2554     1.0  0.42983  0.96203  0.79406  1.0000
  C   C2555     1.0  0.45685  0.83291  0.97788  1.0000
  H   H4566     1.0  0.49063  0.96606  0.79582  1.0000
  C   C2556     1.0  0.44298  0.80206  0.98947  1.0000
  H   H4567     1.0  0.49030  0.74448  0.98928  1.0000
  H   H4568     1.0  0.49105  0.98348  0.75051  1.0000
  C   C2557     1.0  0.48445  0.87484  0.77569  1.0000
  H   H4569     1.0  0.46670  0.97988  0.76378  1.0000
  H   H4570     1.0  0.44868  0.99014  0.80164  1.0000
  C   C2558     1.0  0.49169  0.88447  0.77033  1.0000
  C   C2559     1.0  0.49016  0.97983  0.86670  1.0000
  C   C2560     1.0  0.46149  0.81310  0.99178  1.0000
  C   C2561     1.0  0.49498  0.81032  0.97082  1.0000
  C   C2562     1.0  0.48172  0.92354  0.84059  1.0000
  C   C2563     1.0  0.43412  0.98078  0.79551  1.0000
  S   S574      1.0  0.48748  0.93543  0.86614  1.0000
  C   C2564     1.0  0.49203  0.79327  0.91031  1.0000
  H   H4571     1.0  0.48951  0.91103  0.91445  1.0000
  C   C2565     1.0  0.49107  0.74907  0.92796  1.0000
  H   H4572     1.0  0.45054  0.84157  0.97678  1.0000
  H   H4573     1.0  0.48730  0.83956  0.95912  1.0000
  C   C2566     1.0  0.48986  0.95552  0.83263  1.0000
  H   H4574     1.0  0.49523  0.88553  0.77733  1.0000
  C   C2567     1.0  0.48947  0.92829  0.85469  1.0000
  H   H4575     1.0  0.49203  0.79871  0.90131  1.0000
  C   C2568     1.0  0.49296  0.91735  0.83598  1.0000
  H   H4576     1.0  0.47816  0.84280  0.98349  1.0000
  C   C2569     1.0  0.49440  0.82235  0.96864  1.0000
  H   H4577     1.0  0.47923  0.79461  0.98901  1.0000
  H   H4578     1.0  0.49253  0.91776  0.88721  1.0000
  C   C2570     1.0  0.49117  0.96312  0.81993  1.0000
  C   C2571     1.0  0.49223  0.99230  0.86201  1.0000
  H   H4579     1.0  0.49277  0.94605  0.83240  1.0000
  H   H4580     1.0  0.46553  0.83432  0.97766  1.0000
  H   H4581     1.0  0.49415  0.75401  0.90909  1.0000
  C   C2572     1.0  0.47387  0.84997  0.98835  1.0000
  C   C2573     1.0  0.48389  0.90605  0.88437  1.0000
  S   S575      1.0  0.49039  0.91947  0.79194  1.0000
  C   C2574     1.0  0.49163  0.74748  0.91684  1.0000
  H   H4582     1.0  0.49440  0.97825  0.83018  1.0000
  S   S576      1.0  0.49544  0.91049  0.82423  1.0000
  H   H4583     1.0  0.49197  0.81801  0.92980  1.0000
  H   H4584     1.0  0.49020  0.86590  0.77589  1.0000
  C   C2575     1.0  0.48773  0.91093  0.89290  1.0000
  H   H4585     1.0  0.49256  0.87230  0.75412  1.0000
  H   H4586     1.0  0.49435  0.90377  0.89695  1.0000
  C   C2576     1.0  0.49459  0.89977  0.87643  1.0000
  S   S577      1.0  0.49582  0.76109  0.92886  1.0000
  C   C2577     1.0  0.49520  0.79967  0.91799  1.0000
  H   H4587     1.0  0.52575  0.04051  0.11213  1.0000
  H   H4588     1.0  0.51810  0.17109  0.04211  1.0000
  C   C2578     1.0  0.52277  0.01708  0.20266  1.0000
  S   S578      1.0  0.55064  0.01539  0.18319  1.0000
  C   C2579     1.0  0.55126  0.20452  0.00611  1.0000
  C   C2580     1.0  0.53633  0.17851  0.08143  1.0000
  C   C2581     1.0  0.58169  0.19189  0.06357  1.0000
  H   H4589     1.0  0.54734  0.03620  0.10492  1.0000
  S   S579      1.0  0.55106  0.02107  0.21323  1.0000
  C   C2582     1.0  0.53612  0.17244  0.03549  1.0000
  H   H4590     1.0  0.51865  0.04470  0.04756  1.0000
  H   H4591     1.0  0.52102  0.00037  0.06887  1.0000
  H   H4592     1.0  0.54018  0.03172  0.09657  1.0000
  S   S580      1.0  0.58000  0.11568  0.04567  1.0000
  H   H4593     1.0  0.52790  0.99801  0.16448  1.0000
  H   H4594     1.0  0.55924  0.04724  0.10402  1.0000
  C   C2583     1.0  0.51996  0.02005  0.21469  1.0000
  S   S581      1.0  0.53228  0.08327  0.04427  1.0000
  H   H4595     1.0  0.59857  0.17512  0.03747  1.0000
  Fe  Fe294     1.0  0.57560  0.15870  0.02901  1.0000
  H   H4596     1.0  0.64476  0.19350  0.01789  1.0000
  Fe  Fe295     1.0  0.55889  0.01117  0.19870  1.0000
  H   H4597     1.0  0.51752  0.01832  0.05274  1.0000
  S   S582      1.0  0.53097  0.01313  0.12235  1.0000
  H   H4598     1.0  0.50152  0.04999  0.24059  1.0000
  H   H4599     1.0  0.50342  0.04012  0.06993  1.0000
  S   S583      1.0  0.54474  0.00102  0.09946  1.0000
  Fe  Fe296     1.0  0.54871  0.00219  0.11597  1.0000
  S   S584      1.0  0.56564  0.00751  0.11359  1.0000
  Fe  Fe297     1.0  0.52659  0.01091  0.10642  1.0000
  H   H4600     1.0  0.54878  0.21447  0.02466  1.0000
  H   H4601     1.0  0.51174  0.20854  0.00705  1.0000
  H   H4602     1.0  0.51514  0.01702  0.16963  1.0000
  H   H4603     1.0  0.59159  0.99474  0.14221  1.0000
  Fe  Fe298     1.0  0.49982  0.16620  0.05921  1.0000
  S   S585      1.0  0.57569  0.02271  0.15479  1.0000
  H   H4604     1.0  0.55716  0.13029  0.05510  1.0000
  H   H4605     1.0  0.56129  0.17128  0.08005  1.0000
  H   H4606     1.0  0.58035  0.20678  0.07094  1.0000
  H   H4607     1.0  0.52727  0.12687  0.07279  1.0000
  H   H4608     1.0  0.62397  0.16713  0.02193  1.0000
  H   H4609     1.0  0.55040  0.13410  0.02969  1.0000
  H   H4610     1.0  0.55802  0.07529  0.04875  1.0000
  H   H4611     1.0  0.51625  0.99952  0.18483  1.0000
  H   H4612     1.0  0.53577  0.19695  0.07706  1.0000
  C   C2584     1.0  0.61842  0.17697  1.00000  1.0000
  H   H4613     1.0  0.61535  0.00328  0.21515  1.0000
  Fe  Fe299     1.0  0.52241  0.08251  0.01663  1.0000
  H   H4614     1.0  0.53987  0.15799  0.06737  1.0000
  S   S586      1.0  0.57571  0.23276  0.06037  1.0000
  H   H4615     1.0  0.61766  0.99554  0.19586  1.0000
  C   C2585     1.0  0.54366  0.14653  0.00818  1.0000
  H   H4616     1.0  0.50878  0.21582  0.08239  1.0000
  N   N143      1.0  0.51756  0.03464  0.16146  1.0000
  H   H4617     1.0  0.57897  0.18096  0.04947  1.0000
  C   C2586     1.0  0.52647  0.04436  0.02368  1.0000
  H   H4618     1.0  0.56728  0.18824  0.07835  1.0000
  Fe  Fe300     1.0  0.59736  0.15007  0.03920  1.0000
  C   C2587     1.0  0.52422  0.03346  0.08209  1.0000
  C   C2588     1.0  0.53437  0.02688  0.07605  1.0000
  C   C2589     1.0  0.54009  0.03192  0.06479  1.0000
  C   C2590     1.0  0.53577  0.04361  0.05954  1.0000
  C   C2591     1.0  0.52577  0.05033  0.06566  1.0000
  C   C2592     1.0  0.52000  0.04524  0.07692  1.0000
  H   H4619     1.0  0.53762  0.01778  0.07987  1.0000
  H   H4620     1.0  0.52961  0.17968  0.08965  1.0000
  H   H4621     1.0  0.52243  0.05939  0.06168  1.0000
  H   H4622     1.0  0.55112  0.19752  0.01432  1.0000
  C   C2593     1.0  0.57248  0.11131  0.03788  1.0000
  H   H4623     1.0  0.63983  0.14485  0.01384  1.0000
  C   C2594     1.0  0.52086  0.12897  0.04114  1.0000
  H   H4624     1.0  0.57186  0.06523  0.05025  1.0000
  C   C2595     1.0  0.55734  0.10195  0.03761  1.0000
  C   C2596     1.0  0.56405  0.10458  0.04385  1.0000
  C   C2597     1.0  0.52310  0.12681  0.02884  1.0000
  C   C2598     1.0  0.54751  0.13295  0.05839  1.0000
  H   H4625     1.0  0.55056  0.09714  0.04223  1.0000
  H   H4626     1.0  0.56252  0.10170  0.05331  1.0000
  C   C2599     1.0  0.56140  0.02265  0.21989  1.0000
  H   H4627     1.0  0.52632  0.10701  0.07873  1.0000
  Fe  Fe301     1.0  0.51409  0.08854  0.04081  1.0000
  Fe  Fe302     1.0  0.55313  0.99585  0.18649  1.0000
  S   S587      1.0  0.60965  0.15095  0.99614  1.0000
  C   C2600     1.0  0.56862  0.03063  0.21414  1.0000
  H   H4628     1.0  0.51464  0.01736  0.20006  1.0000
  H   H4629     1.0  0.54059  0.14830  0.03102  1.0000
  C   C2601     1.0  0.57474  0.11470  0.02566  1.0000
  C   C2602     1.0  0.54174  0.03953  0.09842  1.0000
  C   C2603     1.0  0.52560  0.10635  0.07002  1.0000
  C   C2604     1.0  0.55682  0.06105  0.06422  1.0000
  H   H4630     1.0  0.59513  0.19863  0.06639  1.0000
  C   C2605     1.0  0.54721  0.16975  0.03804  1.0000
  H   H4631     1.0  0.58717  0.14614  0.07570  1.0000
  H   H4632     1.0  0.54167  0.04820  0.08066  1.0000
  S   S588      1.0  0.50803  0.22767  0.04148  1.0000
  C   C2606     1.0  0.60559  0.17564  0.04095  1.0000
  H   H4633     1.0  0.50143  0.03148  0.16021  1.0000
  C   C2607     1.0  0.50968  0.19646  0.06791  1.0000
  C   C2608     1.0  0.57254  0.01849  0.14354  1.0000
  C   C2609     1.0  0.56347  0.01265  0.14582  1.0000
  C   C2610     1.0  0.56097  0.00959  0.13659  1.0000
  C   C2611     1.0  0.56778  0.01206  0.12518  1.0000
  C   C2612     1.0  0.57705  0.01757  0.12301  1.0000
  C   C2613     1.0  0.57928  0.02098  0.13211  1.0000
  C   C2614     1.0  0.54856  0.16445  0.04952  1.0000
  Fe  Fe303     1.0  0.52591  0.99584  0.13098  1.0000
  H   H4634     1.0  0.58256  0.01919  0.11427  1.0000
  H   H4635     1.0  0.58638  0.02538  0.13034  1.0000
  C   C2615     1.0  0.61872  0.18679  0.04223  1.0000
  C   C2616     1.0  0.62398  0.17695  0.04972  1.0000
  C   C2617     1.0  0.61998  0.16652  0.05291  1.0000
  H   H4636     1.0  0.64370  0.13958  0.03354  1.0000
  C   C2618     1.0  0.50045  0.20805  0.06940  1.0000
  H   H4637     1.0  0.58449  0.00257  0.22685  1.0000
  H   H4638     1.0  0.63116  0.17740  0.05307  1.0000
  H   H4639     1.0  0.62413  0.15891  0.05866  1.0000
  S   S589      1.0  0.61130  0.22660  0.01467  1.0000
  H   H4640     1.0  0.54418  0.14126  0.05248  1.0000
  H   H4641     1.0  0.58762  0.18314  0.06334  1.0000
  C   C2619     1.0  0.57564  0.19669  0.03057  1.0000
  H   H4642     1.0  0.52503  0.08536  0.08702  1.0000
  H   H4643     1.0  0.54900  0.19861  0.06010  1.0000
  C   C2620     1.0  0.51317  0.03901  0.17276  1.0000
  H   H4644     1.0  0.50665  0.05554  0.14597  1.0000
  H   H4645     1.0  0.56698  0.20356  0.04609  1.0000
  H   H4646     1.0  0.57419  0.20577  0.02520  1.0000
  H   H4647     1.0  0.58476  0.19428  0.03186  1.0000
  H   H4648     1.0  0.55843  0.04306  0.06371  1.0000
  H   H4649     1.0  0.56668  0.05623  0.08385  1.0000
  H   H4650     1.0  0.54576  0.13440  0.06741  1.0000
  C   C2621     1.0  0.50550  0.00029  0.15646  1.0000
  H   H4651     1.0  0.51372  0.14019  0.99707  1.0000
  H   H4652     1.0  0.54757  0.18841  0.08373  1.0000
  C   C2622     1.0  0.52318  0.11726  0.05029  1.0000
  H   H4653     1.0  0.55636  0.02689  0.07963  1.0000
  H   H4654     1.0  0.55813  0.06631  0.06965  1.0000
  C   C2623     1.0  0.52397  0.08506  0.07833  1.0000
  H   H4655     1.0  0.51696  0.09629  0.06377  1.0000
  C   C2624     1.0  0.58593  0.19782  0.07063  1.0000
  H   H4656     1.0  0.53511  0.13338  0.99847  1.0000
  H   H4657     1.0  0.60107  0.01073  0.22157  1.0000
  H   H4658     1.0  0.56032  0.16677  0.06767  1.0000
  H   H4659     1.0  0.54242  0.16986  0.08335  1.0000
  H   H4660     1.0  0.56011  0.05853  0.21952  1.0000
  H   H4661     1.0  0.57171  0.04615  0.06399  1.0000
  H   H4662     1.0  0.56844  0.03293  0.10226  1.0000
  H   H4663     1.0  0.57743  0.02679  0.06768  1.0000
  H   H4664     1.0  0.51676  0.02973  0.21345  1.0000
  H   H4665     1.0  0.51219  0.05041  0.08158  1.0000
  C   C2625     1.0  0.57527  0.02331  0.07731  1.0000
  H   H4666     1.0  0.58069  0.03971  0.21596  1.0000
  S   S590      1.0  0.51570  0.16082  0.06698  1.0000
  Fe  Fe304     1.0  0.58575  0.13257  0.03594  1.0000
  C   C2626     1.0  0.54909  0.22551  0.05196  1.0000
  H   H4667     1.0  0.54712  0.18495  0.05959  1.0000
  H   H4668     1.0  0.53690  0.15490  0.00818  1.0000
  C   C2627     1.0  0.53880  0.16202  0.05849  1.0000
  H   H4669     1.0  0.52450  0.13586  0.05929  1.0000
  H   H4670     1.0  0.54781  0.02669  0.06006  1.0000
  H   H4671     1.0  0.55580  0.14571  0.03140  1.0000
  H   H4672     1.0  0.50839  0.13127  0.08144  1.0000
  H   H4673     1.0  0.57761  0.04364  0.08116  1.0000
  S   S591      1.0  0.55934  0.17278  0.02675  1.0000
  H   H4674     1.0  0.54581  0.11511  0.06353  1.0000
  H   H4675     1.0  0.52070  0.18630  0.00141  1.0000
  C   C2628     1.0  0.57791  0.16410  0.07005  1.0000
  C   C2629     1.0  0.53596  0.19353  0.99805  1.0000
  H   H4676     1.0  0.58189  0.02453  0.08128  1.0000
  N   N144      1.0  0.56011  0.04260  0.08119  1.0000
  H   H4677     1.0  0.53222  0.11223  0.04712  1.0000
  C   C2630     1.0  0.54162  0.12349  0.05827  1.0000
  H   H4678     1.0  0.52659  0.13477  0.04073  1.0000
  H   H4679     1.0  0.58570  0.19253  0.07974  1.0000
  C   C2631     1.0  0.50317  0.20969  0.08807  1.0000
  C   C2632     1.0  0.49826  0.04192  0.06314  1.0000
  S   S592      1.0  0.54290  0.04945  0.04525  1.0000
  H   H4680     1.0  0.58626  0.04056  0.09841  1.0000
  C   C2633     1.0  0.54101  0.22410  0.06277  1.0000
  C   C2634     1.0  0.52778  0.16434  0.05585  1.0000
  S   S593      1.0  0.60688  0.15231  0.05153  1.0000
  C   C2635     1.0  0.52553  0.99554  0.23909  1.0000
  H   H4681     1.0  0.61624  0.19294  0.00620  1.0000
  H   H4682     1.0  0.61313  0.01069  0.19722  1.0000
  Fe  Fe305     1.0  0.61055  0.21584  0.03297  1.0000
  H   H4683     1.0  0.53249  0.12260  0.02587  1.0000
  S   S594      1.0  0.57915  0.14693  0.04600  1.0000
  C   C2636     1.0  0.56519  0.17155  0.07056  1.0000
  C   C2637     1.0  0.56264  0.22887  0.06132  1.0000
  S   S595      1.0  0.51916  0.09921  0.02262  1.0000
  H   H4684     1.0  0.51992  0.02649  0.06156  1.0000
  C   C2638     1.0  0.52649  0.16944  0.04431  1.0000
  C   C2639     1.0  0.55938  0.10573  0.02537  1.0000
  S   S596      1.0  0.57733  0.00989  0.18788  1.0000
  H   H4685     1.0  0.53691  0.04045  0.16629  1.0000
  H   H4686     1.0  0.54937  0.06045  0.21115  1.0000
  H   H4687     1.0  0.52826  0.01727  0.21774  1.0000
  H   H4688     1.0  0.51521  0.05199  0.23054  1.0000
  N   N145      1.0  0.56369  0.18410  0.06364  1.0000
  H   H4689     1.0  0.56113  0.06101  0.04550  1.0000
  H   H4690     1.0  0.57054  0.11393  0.01000  1.0000
  C   C2640     1.0  0.49811  0.21335  0.10010  1.0000
  H   H4691     1.0  0.53501  0.17655  0.02664  1.0000
  H   H4692     1.0  0.54328  0.99688  0.23826  1.0000
  C   C2641     1.0  0.56931  0.18421  0.05084  1.0000
  H   H4693     1.0  0.50305  0.11775  0.06615  1.0000
  C   C2642     1.0  0.55055  0.06121  0.21963  1.0000
  H   H4694     1.0  0.56349  0.20069  0.06733  1.0000
  C   C2643     1.0  0.50780  0.03703  0.15518  1.0000
  C   C2644     1.0  0.54396  0.22453  0.07293  1.0000
  C   C2645     1.0  0.54270  0.18866  0.07718  1.0000
  H   H4695     1.0  0.58160  0.11941  0.02097  1.0000
  H   H4696     1.0  0.51158  0.13368  0.04331  1.0000
  H   H4697     1.0  0.50925  0.09984  0.07774  1.0000
  H   H4698     1.0  0.54416  0.22670  0.01318  1.0000
  S   S597      1.0  0.60676  0.23147  0.04087  1.0000
  C   C2646     1.0  0.57550  0.03317  0.22026  1.0000
  H   H4699     1.0  0.51135  0.04878  0.17091  1.0000
  H   H4700     1.0  0.55308  0.12529  0.00285  1.0000
  H   H4701     1.0  0.52016  0.03600  0.17787  1.0000
  C   C2647     1.0  0.52234  0.02154  0.16440  1.0000
  H   H4702     1.0  0.52334  0.18888  0.05448  1.0000
  H   H4703     1.0  0.52740  0.02355  0.19601  1.0000
  C   C2648     1.0  0.52692  0.04095  0.15351  1.0000
  C   C2649     1.0  0.53855  0.03802  0.15772  1.0000
  C   C2650     1.0  0.52826  0.01565  0.15372  1.0000
  C   C2651     1.0  0.56232  0.06589  0.05140  1.0000
  C   C2652     1.0  0.51267  0.04200  0.04389  1.0000
  H   H4704     1.0  0.52352  0.05063  0.15240  1.0000
  C   C2653     1.0  0.54738  0.04476  0.14888  1.0000
  C   C2654     1.0  0.53415  0.00281  0.15770  1.0000
  S   S598      1.0  0.60443  0.13476  0.03033  1.0000
  C   C2655     1.0  0.54966  0.14375  0.02735  1.0000
  H   H4705     1.0  0.52864  0.01922  0.17023  1.0000
  C   C2656     1.0  0.55183  0.22020  0.01607  1.0000
  H   H4706     1.0  0.58290  0.16403  0.06090  1.0000
  H   H4707     1.0  0.56326  0.16024  0.99403  1.0000
  H   H4708     1.0  0.57337  0.14735  0.07225  1.0000
  H   H4709     1.0  0.52912  0.03934  0.14447  1.0000
  H   H4710     1.0  0.54697  0.22486  0.04415  1.0000
  H   H4711     1.0  0.54279  0.02853  0.15871  1.0000
  H   H4712     1.0  0.59266  0.00923  0.20599  1.0000
  H   H4713     1.0  0.52160  0.01588  0.14898  1.0000
  H   H4714     1.0  0.53513  0.01999  0.14742  1.0000
  C   C2657     1.0  0.51691  0.99489  0.19366  1.0000
  H   H4715     1.0  0.51734  0.11195  0.04981  1.0000
  C   C2658     1.0  0.50207  0.03506  0.18123  1.0000
  H   H4716     1.0  0.50739  0.05034  0.03968  1.0000
  C   C2659     1.0  0.63558  0.16161  0.99429  1.0000
  C   C2660     1.0  0.50816  0.04708  0.23298  1.0000
  H   H4717     1.0  0.60665  0.01389  0.23820  1.0000
  H   H4718     1.0  0.55538  0.04295  0.15236  1.0000
  H   H4719     1.0  0.55005  0.04187  0.14040  1.0000
  H   H4720     1.0  0.54361  0.05438  0.14735  1.0000
  C   C2661     1.0  0.56269  0.02938  0.08303  1.0000
  C   C2662     1.0  0.50337  0.99851  0.16866  1.0000
  C   C2663     1.0  0.57536  0.02755  0.23204  1.0000
  H   H4721     1.0  0.62807  0.14322  0.03449  1.0000
  C   C2664     1.0  0.55284  0.14797  0.01400  1.0000
  C   C2665     1.0  0.55063  0.18913  0.06456  1.0000
  S   S599      1.0  0.51569  0.07232  0.03462  1.0000
  H   H4722     1.0  0.55784  0.19810  0.04057  1.0000
  H   H4723     1.0  0.61261  0.17115  0.00054  1.0000
  C   C2666     1.0  0.64473  0.19113  0.00971  1.0000
  S   S600      1.0  0.54120  0.07625  0.01822  1.0000
  H   H4724     1.0  0.52859  0.00819  0.20284  1.0000
  C   C2667     1.0  0.51692  0.19732  0.05528  1.0000
  C   C2668     1.0  0.50472  0.12435  0.08035  1.0000
  H   H4725     1.0  0.54719  0.06258  0.06498  1.0000
  H   H4726     1.0  0.62049  0.15735  0.01588  1.0000
  N   N146      1.0  0.52135  0.11836  0.06280  1.0000
  C   C2669     1.0  0.61095  0.16578  0.04832  1.0000
  H   H4727     1.0  0.50040  0.01149  0.14070  1.0000
  H   H4728     1.0  0.57463  0.19059  0.02579  1.0000
  H   H4729     1.0  0.54727  0.04423  0.22806  1.0000
  S   S601      1.0  0.51644  0.02707  0.09588  1.0000
  C   C2670     1.0  0.60764  0.00724  0.18358  1.0000
  C   C2671     1.0  0.51585  0.00576  0.07545  1.0000
  H   H4730     1.0  0.51332  0.21979  0.09952  1.0000
  C   C2672     1.0  0.54386  0.05322  0.22978  1.0000
  H   H4731     1.0  0.56846  0.03527  0.20515  1.0000
  H   H4732     1.0  0.53471  0.09517  0.99479  1.0000
  C   C2673     1.0  0.56675  0.19633  0.04232  1.0000
  H   H4733     1.0  0.57008  0.00834  0.07525  1.0000
  C   C2674     1.0  0.56853  0.19136  0.06865  1.0000
  H   H4734     1.0  0.52766  0.99519  0.22967  1.0000
  H   H4735     1.0  0.59595  0.99954  0.15881  1.0000
  H   H4736     1.0  0.57727  0.05513  0.09945  1.0000
  H   H4737     1.0  0.51387  0.20457  0.10703  1.0000
  S   S602      1.0  0.52711  0.22199  0.06370  1.0000
  H   H4738     1.0  0.58257  0.16743  0.07461  1.0000
  H   H4739     1.0  0.62173  0.00906  0.23066  1.0000
  C   C2675     1.0  0.52820  0.12663  0.06348  1.0000
  S   S603      1.0  0.58294  0.03165  0.24008  1.0000
  H   H4740     1.0  0.55710  0.16224  0.05151  1.0000
  H   H4741     1.0  0.54719  0.07053  0.22042  1.0000
  S   S604      1.0  0.58069  0.14418  0.01933  1.0000
  N   N147      1.0  0.50493  0.03499  0.05369  1.0000
  H   H4742     1.0  0.50329  0.05893  0.05667  1.0000
  H   H4743     1.0  0.51757  0.12109  0.02866  1.0000
  H   H4744     1.0  0.50218  0.01853  0.22023  1.0000
  C   C2676     1.0  0.52051  0.03579  0.03385  1.0000
  C   C2677     1.0  0.56766  0.04253  0.09920  1.0000
  H   H4745     1.0  0.53738  0.99843  0.15013  1.0000
  H   H4746     1.0  0.54354  0.12266  0.04904  1.0000
  H   H4747     1.0  0.58290  0.19707  0.05443  1.0000
  Fe  Fe306     1.0  0.53763  0.09231  0.02541  1.0000
  H   H4748     1.0  0.52384  0.04978  0.09810  1.0000
  C   C2678     1.0  0.54737  0.04721  0.08676  1.0000
  H   H4749     1.0  0.53110  0.05387  0.10699  1.0000
  H   H4750     1.0  0.53929  0.13954  0.01421  1.0000
  S   S605      1.0  0.59174  0.21499  0.03632  1.0000
  H   H4751     1.0  0.55290  0.15743  0.01223  1.0000
  S   S606      1.0  0.59323  0.16319  0.02303  1.0000
  H   H4752     1.0  0.54615  0.05620  0.08817  1.0000
  H   H4753     1.0  0.56124  0.02508  0.09249  1.0000
  C   C2679     1.0  0.56837  0.11171  0.01944  1.0000
  S   S607      1.0  0.55061  0.10380  0.01713  1.0000
  H   H4754     1.0  0.57651  0.04318  0.11214  1.0000
  H   H4755     1.0  0.60564  0.19357  0.03183  1.0000
  Fe  Fe307     1.0  0.53420  0.06770  0.03689  1.0000
  C   C2680     1.0  0.50682  0.01606  0.07027  1.0000
  C   C2681     1.0  0.57643  0.01008  0.07922  1.0000
  C   C2682     1.0  0.57755  0.04556  0.10244  1.0000
  C   C2683     1.0  0.56212  0.04767  0.06808  1.0000
  H   H4756     1.0  0.56634  0.17795  0.04778  1.0000
  C   C2684     1.0  0.56833  0.04649  0.08583  1.0000
  S   S608      1.0  0.57086  0.99326  0.17457  1.0000
  C   C2685     1.0  0.52989  0.04640  0.10424  1.0000
  C   C2686     1.0  0.60946  0.18615  0.03792  1.0000
  Fe  Fe308     1.0  0.56918  0.01235  0.17271  1.0000
  H   H4757     1.0  0.52761  0.02860  0.03707  1.0000
  H   H4758     1.0  0.55836  0.01058  0.15469  1.0000
  Fe  Fe309     1.0  0.59205  0.22692  0.01857  1.0000
  H   H4759     1.0  0.50528  0.12278  0.00403  1.0000
  S   S609      1.0  0.62417  0.19963  0.03790  1.0000
  H   H4760     1.0  0.56187  0.14321  0.01085  1.0000
  H   H4761     1.0  0.58547  0.00592  0.07502  1.0000
  C   C2687     1.0  0.51811  0.09722  0.07216  1.0000
  H   H4762     1.0  0.57356  0.15070  0.08581  1.0000
  C   C2688     1.0  0.61134  0.18608  0.00755  1.0000
  H   H4763     1.0  0.59527  0.99545  0.20217  1.0000
  C   C2689     1.0  0.55686  0.13241  0.99627  1.0000
  H   H4764     1.0  0.50389  0.02537  0.18444  1.0000
  H   H4765     1.0  0.63510  0.15359  0.03651  1.0000
  C   C2690     1.0  0.57793  0.15131  0.07636  1.0000
  C   C2691     1.0  0.61049  0.99689  0.23350  1.0000
  H   H4766     1.0  0.52081  0.13530  0.02264  1.0000
  H   H4767     1.0  0.50422  0.21621  0.11400  1.0000
  C   C2692     1.0  0.55999  0.22777  0.05126  1.0000
  H   H4768     1.0  0.55770  0.22510  0.01726  1.0000
  H   H4769     1.0  0.50098  0.17485  0.99398  1.0000
  C   C2693     1.0  0.51338  0.03387  0.23607  1.0000
  H   H4770     1.0  0.65400  0.18804  0.00519  1.0000
  H   H4771     1.0  0.52195  0.20428  0.05287  1.0000
  C   C2694     1.0  0.60702  0.00183  0.22147  1.0000
  C   C2695     1.0  0.55844  0.21293  0.00681  1.0000
  Fe  Fe310     1.0  0.58793  0.23133  0.04296  1.0000
  C   C2696     1.0  0.51289  0.02404  0.05915  1.0000
  H   H4772     1.0  0.55587  0.01074  0.23607  1.0000
  H   H4773     1.0  0.53177  0.17833  0.07477  1.0000
  H   H4774     1.0  0.53775  0.22336  0.08131  1.0000
  H   H4775     1.0  0.60078  0.01554  0.18287  1.0000
  H   H4776     1.0  0.51219  0.00489  0.22233  1.0000
  H   H4777     1.0  0.60859  0.22040  0.99625  1.0000
  H   H4778     1.0  0.52194  0.00899  0.07843  1.0000
  C   C2697     1.0  0.59957  0.19244  0.00420  1.0000
  H   H4779     1.0  0.64050  0.19914  0.00400  1.0000
  H   H4780     1.0  0.51529  0.03211  0.03022  1.0000
  H   H4781     1.0  0.53249  0.17634  0.00781  1.0000
  C   C2698     1.0  0.50843  0.12315  0.06735  1.0000
  S   S610      1.0  0.49969  0.17777  0.01676  1.0000
  H   H4782     1.0  0.50774  0.11599  0.08637  1.0000
  C   C2699     1.0  0.49804  0.04073  0.19189  1.0000
  H   H4783     1.0  0.64639  0.15552  0.01572  1.0000
  C   C2700     1.0  0.50672  0.20685  0.01630  1.0000
  C   C2701     1.0  0.51038  0.01401  0.22342  1.0000
  S   S611      1.0  0.58353  0.22423  0.00555  1.0000
  H   H4784     1.0  0.53470  0.10240  0.06567  1.0000
  H   H4785     1.0  0.51591  0.19445  0.07363  1.0000
  S   S612      1.0  0.52210  0.22955  0.00763  1.0000
  C   C2702     1.0  0.62756  0.16190  0.01503  1.0000
  H   H4786     1.0  0.57392  0.19996  0.99326  1.0000
  H   H4787     1.0  0.51129  0.03436  0.14657  1.0000
  S   S613      1.0  0.51622  0.08240  0.00083  1.0000
  N   N148      1.0  0.50859  0.01409  0.23619  1.0000
  H   H4788     1.0  0.64191  0.17408  0.01921  1.0000
  H   H4789     1.0  0.52206  0.15217  0.00383  1.0000
  H   H4790     1.0  0.53217  0.03967  0.01671  1.0000
  H   H4791     1.0  0.50204  0.99805  0.24178  1.0000
  H   H4792     1.0  0.50112  0.11503  0.04047  1.0000
  H   H4793     1.0  0.56451  0.13253  0.99933  1.0000
  H   H4794     1.0  0.54197  0.20937  0.00678  1.0000
  H   H4795     1.0  0.61575  0.00881  0.17689  1.0000
  H   H4796     1.0  0.60942  0.18174  0.01692  1.0000
  H   H4797     1.0  0.56986  0.18747  0.00378  1.0000
  H   H4798     1.0  0.55107  0.18254  0.00488  1.0000
  H   H4799     1.0  0.64761  0.17280  0.99876  1.0000
  Fe  Fe311     1.0  0.59870  0.14767  0.01459  1.0000
  H   H4800     1.0  0.51981  0.05162  0.01977  1.0000
  C   C2703     1.0  0.59924  0.00071  0.20552  1.0000
  N   N149      1.0  0.62999  0.16964  0.00289  1.0000
  H   H4801     1.0  0.62885  0.18499  0.01740  1.0000
  H   H4802     1.0  0.52114  0.03195  0.22895  1.0000
  H   H4803     1.0  0.59387  0.18619  0.00595  1.0000
  H   H4804     1.0  0.50512  0.21531  0.06519  1.0000
  C   C2704     1.0  0.63828  0.17736  0.00164  1.0000
  H   H4805     1.0  0.50944  0.20105  0.08971  1.0000
  H   H4806     1.0  0.50354  0.10996  0.00065  1.0000
  N   N150      1.0  0.54775  0.14385  0.99607  1.0000
  H   H4807     1.0  0.60319  0.99402  0.24054  1.0000
  H   H4808     1.0  0.53206  0.04816  0.02674  1.0000
  H   H4809     1.0  0.51840  0.07876  0.07971  1.0000
  C   C2705     1.0  0.50691  0.99543  0.20282  1.0000
  C   C2706     1.0  0.63610  0.14684  0.03154  1.0000
  C   C2707     1.0  0.56148  0.01685  0.23155  1.0000
  Fe  Fe312     1.0  0.51716  0.23645  0.02403  1.0000
  C   C2708     1.0  0.63789  0.18151  0.01279  1.0000
  H   H4810     1.0  0.51114  0.19924  0.04904  1.0000
  H   H4811     1.0  0.53164  0.19792  0.00553  1.0000
  C   C2709     1.0  0.55471  0.22708  0.07218  1.0000
  Fe  Fe313     1.0  0.51935  0.23415  0.04876  1.0000
  H   H4812     1.0  0.50550  0.13212  0.06216  1.0000
  H   H4813     1.0  0.57478  0.00595  0.08875  1.0000
  C   C2710     1.0  0.63825  0.15213  0.01837  1.0000
  H   H4814     1.0  0.59496  0.19911  0.00960  1.0000
  C   C2711     1.0  0.52568  0.15142  0.99453  1.0000
  C   C2712     1.0  0.61410  0.00614  0.23723  1.0000
  C   C2713     1.0  0.56871  0.01903  0.23749  1.0000
  H   H4815     1.0  0.56617  0.22899  0.04288  1.0000
  H   H4816     1.0  0.56071  0.21902  0.99824  1.0000
  C   C2714     1.0  0.53041  0.18316  0.99999  1.0000
  H   H4817     1.0  0.50876  0.19724  0.02003  1.0000
  H   H4818     1.0  0.56681  0.20771  0.00927  1.0000
  H   H4819     1.0  0.50188  0.02096  0.07729  1.0000
  H   H4820     1.0  0.55402  0.00506  0.13828  1.0000
  C   C2715     1.0  0.61025  0.00338  0.19584  1.0000
  H   H4821     1.0  0.60088  0.19704  0.99481  1.0000
  C   C2716     1.0  0.49871  0.01002  0.15017  1.0000
  C   C2717     1.0  0.50801  0.21347  0.10546  1.0000
  H   H4822     1.0  0.53271  0.08183  0.07284  1.0000
  H   H4823     1.0  0.53440  0.05609  0.22955  1.0000
  H   H4824     1.0  0.49851  0.00055  0.20114  1.0000
  H   H4825     1.0  0.50535  0.18897  0.07014  1.0000
  H   H4826     1.0  0.49909  0.14057  0.01860  1.0000
  H   H4827     1.0  0.50521  0.03867  0.19661  1.0000
  H   H4828     1.0  0.63060  0.15468  0.99614  1.0000
  H   H4829     1.0  0.54171  0.00223  0.16137  1.0000
  H   H4830     1.0  0.50951  0.21128  0.02155  1.0000
  C   C2718     1.0  0.54942  0.18957  0.99699  1.0000
  S   S614      1.0  0.49879  0.15651  0.04650  1.0000
  C   C2719     1.0  0.56870  0.19323  0.99505  1.0000
  N   N151      1.0  0.55584  0.19906  0.99548  1.0000
  H   H4831     1.0  0.49737  0.05366  0.16053  1.0000
  S   S615      1.0  0.49828  0.09214  0.05539  1.0000
  H   H4832     1.0  0.64457  0.15674  0.99548  1.0000
  H   H4833     1.0  0.49760  0.03155  0.23262  1.0000
  H   H4834     1.0  0.55682  0.22783  0.07997  1.0000
  C   C2720     1.0  0.50089  0.04999  0.15252  1.0000
  H   H4835     1.0  0.50137  0.02455  0.04381  1.0000
  S   S616      1.0  0.51982  0.99452  0.11576  1.0000
  H   H4836     1.0  0.51687  0.11530  0.99387  1.0000
  H   H4837     1.0  0.57714  0.99474  0.21544  1.0000
  H   H4838     1.0  0.60466  0.00030  0.18162  1.0000
  H   H4839     1.0  0.50063  0.01229  0.06806  1.0000
  C   C2721     1.0  0.51961  0.00824  0.24084  1.0000
  H   H4840     1.0  0.59086  0.99633  0.10564  1.0000
  C   C2722     1.0  0.53730  0.14188  0.99304  1.0000
  C   C2723     1.0  0.50718  0.11797  0.99692  1.0000
  H   H4841     1.0  0.59557  0.13547  0.99544  1.0000
  N   N152      1.0  0.60143  0.99436  0.21758  1.0000
  H   H4842     1.0  0.51128  0.00006  0.08320  1.0000
  H   H4843     1.0  0.52653  0.01331  0.23676  1.0000
  C   C2724     1.0  0.50409  0.02651  0.23812  1.0000
  S   S617      1.0  0.52973  0.24135  0.03113  1.0000
  C   C2725     1.0  0.58963  0.99363  0.22581  1.0000
  H   H4844     1.0  0.63681  0.18529  0.99448  1.0000
  H   H4845     1.0  0.50398  0.04933  0.22537  1.0000
  H   H4846     1.0  0.61113  0.99417  0.15182  1.0000
  H   H4847     1.0  0.49640  0.19042  0.08970  1.0000
  C   C2726     1.0  0.49653  0.03123  0.04920  1.0000
  Fe  Fe314     1.0  0.60543  0.24230  0.02283  1.0000
  H   H4848     1.0  0.55532  0.04970  0.24170  1.0000
  H   H4849     1.0  0.56687  0.10965  0.99204  1.0000
  H   H4850     1.0  0.49656  0.22598  0.00230  1.0000
  C   C2727     1.0  0.52094  0.24294  0.99756  1.0000
  H   H4851     1.0  0.53348  0.17931  0.99208  1.0000
  C   C2728     1.0  0.54578  0.05356  0.24177  1.0000
  H   H4852     1.0  0.54431  0.06301  0.24183  1.0000
  H   H4853     1.0  0.55078  0.06266  0.25809  1.0000
  S   S618      1.0  0.55636  0.02923  0.29802  1.0000
  H   H4854     1.0  0.55417  0.99898  0.36790  1.0000
  H   H4855     1.0  0.53579  0.01378  0.25165  1.0000
  S   S619      1.0  0.50204  0.02543  0.27403  1.0000
  H   H4856     1.0  0.99035  0.23992  0.41987  1.0000
  H   H4857     1.0  0.77064  0.02105  0.48139  1.0000
  C   C2729     1.0  0.99340  0.17483  0.42366  1.0000
  C   C2730     1.0  0.98356  0.13108  0.47527  1.0000
  C   C2731     1.0  0.98075  0.19103  0.45491  1.0000
  S   S620      1.0  0.91825  0.19000  0.46650  1.0000
  H   H4858     1.0  0.50246  0.06646  0.25961  1.0000
  H   H4859     1.0  0.54342  0.00130  0.33170  1.0000
  H   H4860     1.0  0.85310  0.05797  0.48520  1.0000
  H   H4861     1.0  0.74572  0.99774  0.40942  1.0000
  H   H4862     1.0  0.49846  0.05708  0.27380  1.0000
  C   C2732     1.0  0.52543  0.05361  0.25322  1.0000
  H   H4863     1.0  0.74851  0.00591  0.43956  1.0000
  H   H4864     1.0  0.50175  0.05150  0.26072  1.0000
  Fe  Fe315     1.0  0.73208  0.04732  0.41704  1.0000
  S   S621      1.0  0.73924  0.03472  0.43197  1.0000
  S   S622      1.0  0.73472  0.06576  0.41267  1.0000
  Fe  Fe316     1.0  0.72243  0.02911  0.41195  1.0000
  S   S623      1.0  0.72909  0.01508  0.42643  1.0000
  S   S624      1.0  0.71337  0.02387  0.40096  1.0000
  Fe  Fe317     1.0  0.72224  0.02901  0.43696  1.0000
  S   S625      1.0  0.71180  0.02602  0.45559  1.0000
  Fe  Fe318     1.0  0.74546  0.02220  0.41987  1.0000
  S   S626      1.0  0.76340  0.01011  0.41724  1.0000
  S   S627      1.0  0.71434  0.04271  0.42295  1.0000
  S   S628      1.0  0.73942  0.03518  0.40448  1.0000
  Fe  Fe319     1.0  0.81615  0.05602  0.43543  1.0000
  S   S629      1.0  0.82017  0.03706  0.43458  1.0000
  S   S630      1.0  0.82992  0.06432  0.43708  1.0000
  Fe  Fe320     1.0  0.79061  0.06026  0.43308  1.0000
  S   S631      1.0  0.79272  0.04158  0.43221  1.0000
  S   S632      1.0  0.77360  0.07395  0.43295  1.0000
  Fe  Fe321     1.0  0.80241  0.03721  0.44657  1.0000
  S   S633      1.0  0.79983  0.02244  0.46210  1.0000
  Fe  Fe322     1.0  0.81015  0.04348  0.42028  1.0000
  S   S634      1.0  0.81643  0.03755  0.40324  1.0000
  S   S635      1.0  0.79891  0.05578  0.44849  1.0000
  S   S636      1.0  0.80749  0.06257  0.42001  1.0000
  H   H4865     1.0  0.91181  0.99376  0.45200  1.0000
  H   H4866     1.0  0.90937  0.17576  0.45802  1.0000
  H   H4867     1.0  0.70250  0.00874  0.39493  1.0000
  H   H4868     1.0  0.49725  0.06028  0.31846  1.0000
  H   H4869     1.0  0.97795  0.05769  0.47220  1.0000
  Fe  Fe323     1.0  0.88364  0.03705  0.46796  1.0000
  H   H4870     1.0  0.51766  0.00804  0.25044  1.0000
  S   S637      1.0  0.87366  0.03192  0.45769  1.0000
  Fe  Fe324     1.0  0.90083  0.04818  0.47334  1.0000
  H   H4871     1.0  0.97905  0.07248  0.46489  1.0000
  S   S638      1.0  0.91130  0.06251  0.46604  1.0000
  C   C2733     1.0  0.81018  0.99315  0.44882  1.0000
  H   H4872     1.0  0.95913  0.16205  0.47668  1.0000
  C   C2734     1.0  0.79746  0.00061  0.45018  1.0000
  C   C2735     1.0  0.54781  0.02184  0.33232  1.0000
  S   S639      1.0  0.90341  0.03297  0.46484  1.0000
  S   S640      1.0  0.88115  0.05325  0.47468  1.0000
  S   S641      1.0  0.93696  0.21300  0.44569  1.0000
  H   H4873     1.0  0.75962  0.01363  0.38061  1.0000
  H   H4874     1.0  0.83719  0.01724  0.47768  1.0000
  H   H4875     1.0  0.95547  0.13449  0.44263  1.0000
  H   H4876     1.0  0.96665  0.17399  0.47103  1.0000
  H   H4877     1.0  0.62403  0.00197  0.42578  1.0000
  C   C2736     1.0  0.97388  0.06997  0.48407  1.0000
  C   C2737     1.0  0.68833  0.00012  0.42334  1.0000
  H   H4878     1.0  0.94907  0.17907  0.49045  1.0000
  C   C2738     1.0  0.91870  0.06678  0.47431  1.0000
  C   C2739     1.0  0.92195  0.07769  0.47020  1.0000
  C   C2740     1.0  0.96803  0.14454  0.44203  1.0000
  H   H4879     1.0  0.91987  0.08333  0.46209  1.0000
  H   H4880     1.0  0.61294  0.00187  0.43925  1.0000
  H   H4881     1.0  0.71543  0.07243  0.47147  1.0000
  Fe  Fe325     1.0  0.56787  0.01910  0.28454  1.0000
  H   H4882     1.0  0.74303  0.07080  0.37631  1.0000
  H   H4883     1.0  0.54426  0.06867  0.27689  1.0000
  C   C2741     1.0  0.54322  0.05998  0.27660  1.0000
  C   C2742     1.0  0.74631  0.04830  0.45925  1.0000
  H   H4884     1.0  0.79384  0.00056  0.45968  1.0000
  H   H4885     1.0  0.55094  0.02737  0.33611  1.0000
  C   C2743     1.0  0.80432  0.02478  0.47353  1.0000
  C   C2744     1.0  0.80931  0.03433  0.47175  1.0000
  C   C2745     1.0  0.81110  0.03730  0.48132  1.0000
  H   H4886     1.0  0.93228  0.00353  0.46940  1.0000
  H   H4887     1.0  0.97477  0.14341  0.44698  1.0000
  H   H4888     1.0  0.89295  0.06560  0.48730  1.0000
  H   H4889     1.0  0.81169  0.03952  0.46305  1.0000
  H   H4890     1.0  0.81442  0.04501  0.47999  1.0000
  H   H4891     1.0  0.87245  0.00209  0.39834  1.0000
  C   C2746     1.0  0.97062  0.16196  0.45933  1.0000
  C   C2747     1.0  0.84172  0.05536  0.44345  1.0000
  C   C2748     1.0  0.85079  0.06030  0.44357  1.0000
  C   C2749     1.0  0.86041  0.05332  0.44842  1.0000
  C   C2750     1.0  0.86109  0.04130  0.45297  1.0000
  C   C2751     1.0  0.85198  0.03638  0.45292  1.0000
  C   C2752     1.0  0.84226  0.04340  0.44832  1.0000
  H   H4892     1.0  0.85042  0.06955  0.43982  1.0000
  H   H4893     1.0  0.86746  0.05716  0.44830  1.0000
  H   H4894     1.0  0.85244  0.02710  0.45647  1.0000
  H   H4895     1.0  0.83522  0.03955  0.44848  1.0000
  C   C2753     1.0  0.82621  0.02375  0.40442  1.0000
  C   C2754     1.0  0.83544  0.02142  0.39484  1.0000
  H   H4896     1.0  0.81791  0.01693  0.42228  1.0000
  H   H4897     1.0  0.83636  0.02805  0.38677  1.0000
  C   C2755     1.0  0.74530  0.06761  0.41891  1.0000
  C   C2756     1.0  0.74497  0.07885  0.42003  1.0000
  C   C2757     1.0  0.75353  0.08064  0.42462  1.0000
  C   C2758     1.0  0.76262  0.07125  0.42789  1.0000
  C   C2759     1.0  0.76292  0.06001  0.42683  1.0000
  C   C2760     1.0  0.75426  0.05816  0.42240  1.0000
  H   H4898     1.0  0.73811  0.08620  0.41730  1.0000
  H   H4899     1.0  0.75325  0.08938  0.42539  1.0000
  H   H4900     1.0  0.76993  0.05278  0.42926  1.0000
  H   H4901     1.0  0.75480  0.04952  0.42127  1.0000
  C   C2761     1.0  0.97518  0.16639  0.43276  1.0000
  C   C2762     1.0  0.69212  0.00695  0.42847  1.0000
  C   C2763     1.0  0.69983  0.01419  0.42163  1.0000
  C   C2764     1.0  0.70361  0.01485  0.40953  1.0000
  C   C2765     1.0  0.69966  0.00818  0.40431  1.0000
  H   H4902     1.0  0.99117  0.04625  0.48532  1.0000
  H   H4903     1.0  0.68905  0.00668  0.43779  1.0000
  H   H4904     1.0  0.70271  0.01940  0.42572  1.0000
  H   H4905     1.0  0.94029  0.18363  0.44760  1.0000
  H   H4906     1.0  0.96922  0.12569  0.44622  1.0000
  H   H4907     1.0  0.71457  0.06142  0.43428  1.0000
  H   H4908     1.0  0.84485  0.99668  0.48864  1.0000
  H   H4909     1.0  0.49836  0.00634  0.25281  1.0000
  C   C2766     1.0  0.52172  0.04352  0.30405  1.0000
  C   C2767     1.0  0.53368  0.04069  0.30406  1.0000
  C   C2768     1.0  0.84512  0.99842  0.47916  1.0000
  C   C2769     1.0  0.53688  0.02501  0.29406  1.0000
  C   C2770     1.0  0.52479  0.02773  0.29423  1.0000
  H   H4910     1.0  0.50038  0.00762  0.34525  1.0000
  C   C2771     1.0  0.88597  0.08298  0.47816  1.0000
  H   H4911     1.0  0.54274  0.01784  0.29022  1.0000
  H   H4912     1.0  0.52133  0.02270  0.29047  1.0000
  H   H4913     1.0  0.66646  0.00950  0.44668  1.0000
  H   H4914     1.0  0.98899  0.17499  0.46544  1.0000
  S   S642      1.0  0.98526  0.10181  0.47020  1.0000
  C   C2772     1.0  0.51729  0.03717  0.29901  1.0000
  H   H4915     1.0  0.51597  0.05085  0.30767  1.0000
  C   C2773     1.0  0.60565  0.99400  0.29955  1.0000
  H   H4916     1.0  0.98504  0.12353  0.48275  1.0000
  H   H4917     1.0  0.95959  0.21643  0.47812  1.0000
  H   H4918     1.0  0.97616  0.13796  0.47865  1.0000
  C   C2774     1.0  0.73488  0.01201  0.48232  1.0000
  C   C2775     1.0  0.73999  0.01250  0.47038  1.0000
  C   C2776     1.0  0.73290  0.01663  0.46213  1.0000
  C   C2777     1.0  0.72070  0.02017  0.46584  1.0000
  C   C2778     1.0  0.71557  0.01933  0.47782  1.0000
  H   H4919     1.0  0.54701  0.01036  0.25982  1.0000
  H   H4920     1.0  0.74942  0.00974  0.46749  1.0000
  H   H4921     1.0  0.73684  0.01707  0.45294  1.0000
  H   H4922     1.0  0.56892  0.01423  0.24637  1.0000
  C   C2779     1.0  0.56303  0.00043  0.36296  1.0000
  H   H4923     1.0  0.95130  0.23131  0.42894  1.0000
  C   C2780     1.0  0.74819  0.06273  0.38111  1.0000
  H   H4924     1.0  0.66112  0.00860  0.42418  1.0000
  H   H4925     1.0  0.79946  0.99363  0.40943  1.0000
  H   H4926     1.0  0.93456  0.18503  0.42413  1.0000
  H   H4927     1.0  0.95700  0.07909  0.47058  1.0000
  H   H4928     1.0  0.81597  0.05195  0.36537  1.0000
  N   N153      1.0  0.64615  0.01731  0.43564  1.0000
  C   C2781     1.0  0.64902  0.00775  0.44611  1.0000
  C   C2782     1.0  0.65742  0.01746  0.42630  1.0000
  C   C2783     1.0  0.64168  0.02927  0.43863  1.0000
  H   H4929     1.0  0.62309  0.01235  0.44655  1.0000
  H   H4930     1.0  0.74662  0.05773  0.45668  1.0000
  C   C2784     1.0  0.65644  0.02645  0.41449  1.0000
  H   H4931     1.0  0.95204  0.15507  0.45089  1.0000
  H   H4932     1.0  0.88372  0.99970  0.43781  1.0000
  C   C2785     1.0  0.88886  0.00044  0.44369  1.0000
  H   H4933     1.0  0.65283  0.99916  0.44341  1.0000
  H   H4934     1.0  0.64098  0.00649  0.45297  1.0000
  H   H4935     1.0  0.72835  0.07269  0.46025  1.0000
  H   H4936     1.0  0.66425  0.01938  0.42945  1.0000
  C   C2786     1.0  0.78536  0.06571  0.47547  1.0000
  H   H4937     1.0  0.63907  0.03603  0.43095  1.0000
  H   H4938     1.0  0.81911  0.00564  0.45047  1.0000
  H   H4939     1.0  0.96502  0.22845  0.41824  1.0000
  C   C2787     1.0  0.50191  0.01123  0.33562  1.0000
  H   H4940     1.0  0.53500  0.06677  0.26180  1.0000
  H   H4941     1.0  0.65435  0.03558  0.41576  1.0000
  H   H4942     1.0  0.50581  0.05470  0.32968  1.0000
  S   S643      1.0  0.50241  0.04163  0.29851  1.0000
  C   C2788     1.0  0.91977  0.15817  0.46168  1.0000
  N   N154      1.0  0.53822  0.04746  0.25264  1.0000
  C   C2789     1.0  0.96075  0.21519  0.48690  1.0000
  Fe  Fe326     1.0  0.94215  0.12142  0.47820  1.0000
  H   H4943     1.0  0.76312  0.00008  0.39109  1.0000
  C   C2790     1.0  0.79315  0.99827  0.43215  1.0000
  H   H4944     1.0  0.97372  0.23555  0.43064  1.0000
  H   H4945     1.0  0.74130  0.06407  0.47385  1.0000
  S   S644      1.0  0.93255  0.13583  0.46582  1.0000
  H   H4946     1.0  0.75740  0.03177  0.46633  1.0000
  H   H4947     1.0  0.91923  0.05107  0.48797  1.0000
  S   S645      1.0  0.59727  0.99358  0.33865  1.0000
  H   H4948     1.0  0.87948  0.09114  0.47998  1.0000
  C   C2791     1.0  0.98016  0.17763  0.42881  1.0000
  C   C2792     1.0  0.49683  0.05864  0.32803  1.0000
  H   H4949     1.0  0.93823  0.17165  0.44297  1.0000
  H   H4950     1.0  0.76531  0.04274  0.45692  1.0000
  H   H4951     1.0  0.53767  0.03447  0.24375  1.0000
  H   H4952     1.0  0.94809  0.00140  0.46693  1.0000
  C   C2793     1.0  0.76062  0.99695  0.42650  1.0000
  H   H4953     1.0  0.64888  0.03204  0.44039  1.0000
  C   C2794     1.0  0.73174  0.06677  0.47758  1.0000
  H   H4954     1.0  0.79904  0.00975  0.48591  1.0000
  H   H4955     1.0  0.51849  0.03265  0.34556  1.0000
  C   C2795     1.0  0.54036  0.03488  0.25160  1.0000
  H   H4956     1.0  0.90603  0.24213  0.47326  1.0000
  C   C2796     1.0  0.97214  0.21259  0.48885  1.0000
  H   H4957     1.0  0.53243  0.00838  0.26736  1.0000
  C   C2797     1.0  0.97388  0.06706  0.47240  1.0000
  C   C2798     1.0  0.98224  0.19941  0.44439  1.0000
  H   H4958     1.0  0.88301  0.07940  0.47231  1.0000
  H   H4959     1.0  0.52455  0.06314  0.24905  1.0000
  H   H4960     1.0  0.95743  0.18594  0.43216  1.0000
  C   C2799     1.0  0.96200  0.17036  0.45184  1.0000
  H   H4961     1.0  0.85088  0.00896  0.38836  1.0000
  H   H4962     1.0  0.97865  0.18180  0.43627  1.0000
  H   H4963     1.0  0.99396  0.07611  0.47568  1.0000
  H   H4964     1.0  0.86038  0.07464  0.48695  1.0000
  H   H4965     1.0  0.62291  0.03040  0.44636  1.0000
  H   H4966     1.0  0.81814  0.06278  0.46280  1.0000
  H   H4967     1.0  0.63242  0.99886  0.44311  1.0000
  H   H4968     1.0  0.87335  0.00911  0.45433  1.0000
  H   H4969     1.0  0.97457  0.15938  0.47636  1.0000
  H   H4970     1.0  0.97264  0.14423  0.43277  1.0000
  H   H4971     1.0  0.52675  0.03871  0.33137  1.0000
  H   H4972     1.0  0.76879  0.05245  0.48894  1.0000
  N   N155      1.0  0.83519  0.05630  0.48801  1.0000
  H   H4973     1.0  0.78548  0.00053  0.42799  1.0000
  H   H4974     1.0  0.99269  0.14344  0.46248  1.0000
  C   C2800     1.0  0.54276  0.06000  0.26416  1.0000
  C   C2801     1.0  0.84248  0.00198  0.40611  1.0000
  H   H4975     1.0  0.96180  0.06820  0.46173  1.0000
  H   H4976     1.0  0.73650  0.04455  0.47738  1.0000
  H   H4977     1.0  0.67041  0.01588  0.40343  1.0000
  H   H4978     1.0  0.70108  0.00658  0.45429  1.0000
  H   H4979     1.0  0.53530  0.01605  0.34872  1.0000
  H   H4980     1.0  0.56489  0.99464  0.34247  1.0000
  C   C2802     1.0  0.81702  0.06990  0.46737  1.0000
  H   H4981     1.0  0.98150  0.15937  0.43733  1.0000
  N   N156      1.0  0.55657  0.01028  0.33145  1.0000
  S   S646      1.0  0.58905  0.00219  0.26142  1.0000
  C   C2803     1.0  0.87972  0.00613  0.39794  1.0000
  C   C2804     1.0  0.80235  0.01743  0.48466  1.0000
  H   H4982     1.0  0.64955  0.02549  0.41072  1.0000
  H   H4983     1.0  0.81318  0.07832  0.46187  1.0000
  S   S647      1.0  0.60842  0.99510  0.28435  1.0000
  H   H4984     1.0  0.84521  0.05769  0.47009  1.0000
  Fe  Fe327     1.0  0.49621  0.00871  0.28375  1.0000
  H   H4985     1.0  0.98106  0.12818  0.46861  1.0000
  C   C2805     1.0  0.65910  0.99957  0.46326  1.0000
  H   H4986     1.0  0.53078  0.01702  0.33548  1.0000
  H   H4987     1.0  0.78751  0.07445  0.47137  1.0000
  H   H4988     1.0  0.79373  0.05896  0.47548  1.0000
  H   H4989     1.0  0.75677  0.01373  0.39589  1.0000
  H   H4990     1.0  0.51880  0.05877  0.27037  1.0000
  C   C2806     1.0  0.99329  0.19873  0.43664  1.0000
  C   C2807     1.0  0.83544  0.00929  0.47634  1.0000
  H   H4991     1.0  0.72967  0.06047  0.48600  1.0000
  H   H4992     1.0  0.71104  0.00018  0.44248  1.0000
  H   H4993     1.0  0.52168  0.05011  0.24792  1.0000
  H   H4994     1.0  0.53492  0.05830  0.28286  1.0000
  H   H4995     1.0  0.61923  0.00278  0.29808  1.0000
  H   H4996     1.0  0.89276  0.00826  0.43971  1.0000
  H   H4997     1.0  0.55161  0.04232  0.26272  1.0000
  C   C2808     1.0  0.62845  0.04247  0.45232  1.0000
  S   S648      1.0  0.88145  0.02548  0.48593  1.0000
  H   H4998     1.0  0.61481  0.00221  0.31944  1.0000
  C   C2809     1.0  0.99552  0.09800  0.47911  1.0000
  H   H4999     1.0  0.97008  0.15275  0.46068  1.0000
  H   H5000     1.0  0.93855  0.00602  0.47999  1.0000
  H   H5001     1.0  0.89464  0.08512  0.47348  1.0000
  C   C2810     1.0  0.84840  0.00181  0.44054  1.0000
  C   C2811     1.0  0.95859  0.15629  0.44238  1.0000
  H   H5002     1.0  0.85849  0.00874  0.47192  1.0000
  C   C2812     1.0  0.96144  0.06977  0.47041  1.0000
  C   C2813     1.0  0.76505  0.02568  0.44174  1.0000
  C   C2814     1.0  0.74427  0.00704  0.39134  1.0000
  H   H5003     1.0  0.72072  0.04175  0.49076  1.0000
  H   H5004     1.0  0.75098  0.05588  0.37583  1.0000
  H   H5005     1.0  0.51818  0.04411  0.27127  1.0000
  C   C2815     1.0  0.75672  0.00863  0.38966  1.0000
  H   H5006     1.0  0.93703  0.19705  0.42856  1.0000
  H   H5007     1.0  0.54699  0.02701  0.32332  1.0000
  C   C2816     1.0  0.55169  0.00359  0.32589  1.0000
  N   N157      1.0  0.96284  0.16747  0.44028  1.0000
  H   H5008     1.0  0.74237  0.05963  0.38963  1.0000
  C   C2817     1.0  0.71334  0.05133  0.47514  1.0000
  H   H5009     1.0  0.97019  0.04714  0.49017  1.0000
  C   C2818     1.0  0.98877  0.23654  0.48979  1.0000
  H   H5010     1.0  0.76421  0.06872  0.37438  1.0000
  H   H5011     1.0  0.88777  0.99903  0.39857  1.0000
  H   H5012     1.0  0.75795  0.02372  0.44957  1.0000
  H   H5013     1.0  0.81284  0.99695  0.46434  1.0000
  H   H5014     1.0  0.73829  0.01588  0.39117  1.0000
  C   C2819     1.0  0.96242  0.13391  0.44718  1.0000
  H   H5015     1.0  0.93021  0.08984  0.47326  1.0000
  H   H5016     1.0  0.53723  0.04343  0.27147  1.0000
  H   H5017     1.0  0.83421  0.07322  0.45993  1.0000
  H   H5018     1.0  0.98332  0.24096  0.44256  1.0000
  C   C2820     1.0  0.93066  0.07415  0.48696  1.0000
  H   H5019     1.0  0.63206  0.02370  0.45697  1.0000
  C   C2821     1.0  0.84231  0.07476  0.48737  1.0000
  H   H5020     1.0  0.77107  0.00357  0.44367  1.0000
  C   C2822     1.0  0.85738  0.00010  0.47148  1.0000
  C   C2823     1.0  0.70637  0.99817  0.45183  1.0000
  H   H5021     1.0  0.84370  0.07811  0.47771  1.0000
  C   C2824     1.0  0.50666  0.00082  0.32955  1.0000
  C   C2825     1.0  0.92896  0.15069  0.46673  1.0000
  C   C2826     1.0  0.73489  0.04610  0.46848  1.0000
  H   H5022     1.0  0.49909  0.02641  0.24737  1.0000
  H   H5023     1.0  0.61446  0.01565  0.42912  1.0000
  H   H5024     1.0  0.96305  0.17947  0.45054  1.0000
  S   S649      1.0  0.92106  0.21840  0.47098  1.0000
  H   H5025     1.0  0.68918  0.99549  0.40721  1.0000
  Fe  Fe328     1.0  0.96619  0.10576  0.47979  1.0000
  H   H5026     1.0  0.65427  0.01789  0.45556  1.0000
  H   H5027     1.0  0.84991  0.08816  0.48915  1.0000
  H   H5028     1.0  0.81068  0.06842  0.47592  1.0000
  S   S650      1.0  0.57465  0.99963  0.28915  1.0000
  H   H5029     1.0  0.82749  0.07785  0.47325  1.0000
  H   H5030     1.0  0.85734  0.03948  0.48566  1.0000
  C   C2827     1.0  0.53386  0.02664  0.26188  1.0000
  C   C2828     1.0  0.99526  0.06647  0.47940  1.0000
  H   H5031     1.0  0.92477  0.19045  0.43667  1.0000
  C   C2829     1.0  0.75220  0.99760  0.43692  1.0000
  C   C2830     1.0  0.54131  0.03166  0.29880  1.0000
  S   S651      1.0  0.56254  0.01876  0.26858  1.0000
  C   C2831     1.0  0.77723  0.00523  0.44796  1.0000
  C   C2832     1.0  0.72266  0.05716  0.45449  1.0000
  H   H5032     1.0  0.53711  0.04584  0.30772  1.0000
  H   H5033     1.0  0.71867  0.07468  0.43406  1.0000
  S   S652      1.0  0.97028  0.21018  0.44016  1.0000
  H   H5034     1.0  0.99445  0.20523  0.42850  1.0000
  H   H5035     1.0  0.91680  0.19687  0.48956  1.0000
  C   C2833     1.0  0.52746  0.03340  0.34032  1.0000
  H   H5036     1.0  0.97969  0.21173  0.48159  1.0000
  H   H5037     1.0  0.63599  0.04308  0.45540  1.0000
  H   H5038     1.0  0.70487  0.99853  0.47455  1.0000
  H   H5039     1.0  0.98212  0.23664  0.46493  1.0000
  C   C2834     1.0  0.95486  0.17746  0.43368  1.0000
  C   C2835     1.0  0.93989  0.00040  0.47370  1.0000
  C   C2836     1.0  0.75888  0.06548  0.38312  1.0000
  H   H5040     1.0  0.81461  0.99464  0.43939  1.0000
  C   C2837     1.0  0.77705  0.01853  0.44393  1.0000
  C   C2838     1.0  0.72449  0.06719  0.46871  1.0000
  C   C2839     1.0  0.72956  0.07884  0.48032  1.0000
  C   C2840     1.0  0.83585  0.05854  0.47496  1.0000
  C   C2841     1.0  0.66808  0.02476  0.40541  1.0000
  N   N158      1.0  0.77803  0.05542  0.39093  1.0000
  C   C2842     1.0  0.78223  0.04521  0.40032  1.0000
  C   C2843     1.0  0.77658  0.06695  0.39426  1.0000
  C   C2844     1.0  0.76606  0.05451  0.39031  1.0000
  C   C2845     1.0  0.78608  0.05502  0.37896  1.0000
  C   C2846     1.0  0.79918  0.05465  0.37780  1.0000
  C   C2847     1.0  0.78412  0.03280  0.39803  1.0000
  H   H5041     1.0  0.74664  0.04556  0.45115  1.0000
  C   C2848     1.0  0.78567  0.06776  0.40060  1.0000
  C   C2849     1.0  0.78459  0.08049  0.40099  1.0000
  C   C2850     1.0  0.80668  0.05187  0.36605  1.0000
  C   C2851     1.0  0.78844  0.02326  0.40803  1.0000
  H   H5042     1.0  0.77590  0.04565  0.40893  1.0000
  H   H5043     1.0  0.79068  0.04564  0.40179  1.0000
  H   H5044     1.0  0.77633  0.07429  0.38636  1.0000
  H   H5045     1.0  0.76792  0.06908  0.40044  1.0000
  H   H5046     1.0  0.76038  0.05270  0.39930  1.0000
  N   N159      1.0  0.78914  0.99703  0.44536  1.0000
  H   H5047     1.0  0.80643  0.04300  0.36544  1.0000
  H   H5048     1.0  0.78304  0.06283  0.37230  1.0000
  H   H5049     1.0  0.80290  0.04785  0.38480  1.0000
  H   H5050     1.0  0.80014  0.06337  0.37804  1.0000
  H   H5051     1.0  0.77579  0.03120  0.39742  1.0000
  H   H5052     1.0  0.79083  0.03165  0.38982  1.0000
  H   H5053     1.0  0.75558  0.07275  0.38793  1.0000
  H   H5054     1.0  0.78403  0.06264  0.40981  1.0000
  H   H5055     1.0  0.79487  0.06420  0.39644  1.0000
  H   H5056     1.0  0.78697  0.08581  0.39198  1.0000
  H   H5057     1.0  0.77547  0.08443  0.40524  1.0000
  H   H5058     1.0  0.79062  0.08081  0.40620  1.0000
  H   H5059     1.0  0.80352  0.05854  0.35860  1.0000
  H   H5060     1.0  0.78176  0.02377  0.41637  1.0000
  H   H5061     1.0  0.78974  0.01450  0.40614  1.0000
  H   H5062     1.0  0.79693  0.02416  0.40900  1.0000
  H   H5063     1.0  0.73004  0.06070  0.44798  1.0000
  H   H5064     1.0  0.61660  0.00237  0.24586  1.0000
  H   H5065     1.0  0.67529  0.02583  0.40868  1.0000
  C   C2852     1.0  0.91662  0.17012  0.46183  1.0000
  H   H5066     1.0  0.95569  0.17592  0.42482  1.0000
  S   S653      1.0  0.95186  0.10462  0.47218  1.0000
  H   H5067     1.0  0.64216  0.00885  0.42409  1.0000
  H   H5068     1.0  0.95366  0.15694  0.43568  1.0000
  H   H5069     1.0  0.72018  0.08178  0.48460  1.0000
  C   C2853     1.0  0.55819  0.00295  0.34338  1.0000
  H   H5070     1.0  0.53568  0.02638  0.27036  1.0000
  C   C2854     1.0  0.77281  0.01191  0.48010  1.0000
  C   C2855     1.0  0.71201  0.06923  0.43823  1.0000
  C   C2856     1.0  0.61936  0.00683  0.43292  1.0000
  H   H5071     1.0  0.51668  0.03186  0.24422  1.0000
  H   H5072     1.0  0.85650  0.00126  0.46232  1.0000
  H   H5073     1.0  0.71247  0.04337  0.47292  1.0000
  H   H5074     1.0  0.73366  0.03752  0.46805  1.0000
  C   C2857     1.0  0.92286  0.17486  0.46668  1.0000
  C   C2858     1.0  0.71294  0.04852  0.48847  1.0000
  H   H5075     1.0  0.97977  0.16294  0.45509  1.0000
  C   C2859     1.0  0.88703  0.07386  0.48960  1.0000
  C   C2860     1.0  0.93218  0.16747  0.47172  1.0000
  H   H5076     1.0  0.63270  0.02273  0.42545  1.0000
  H   H5077     1.0  0.96591  0.23667  0.45637  1.0000
  H   H5078     1.0  0.70340  0.07453  0.43636  1.0000
  S   S654      1.0  0.95714  0.12337  0.48408  1.0000
  H   H5079     1.0  0.95304  0.17037  0.45743  1.0000
  C   C2861     1.0  0.90980  0.99837  0.46844  1.0000
  H   H5080     1.0  0.76491  0.03517  0.43969  1.0000
  H   H5081     1.0  0.77004  0.07278  0.48733  1.0000
  H   H5082     1.0  0.76340  0.02362  0.43410  1.0000
  C   C2862     1.0  0.71106  0.06545  0.45149  1.0000
  Fe  Fe329     1.0  0.57129  0.99974  0.27190  1.0000
  N   N160      1.0  0.72395  0.05554  0.46690  1.0000
  N   N161      1.0  0.98469  0.06378  0.48898  1.0000
  H   H5083     1.0  0.78105  0.01070  0.47331  1.0000
  H   H5084     1.0  0.87510  0.00226  0.47918  1.0000
  H   H5085     1.0  0.88602  0.00396  0.46077  1.0000
  H   H5086     1.0  0.55078  0.05312  0.27938  1.0000
  C   C2863     1.0  0.51708  0.05305  0.26565  1.0000
  C   C2864     1.0  0.75732  0.04129  0.46385  1.0000
  Fe  Fe330     1.0  0.95275  0.21072  0.45288  1.0000
  H   H5087     1.0  0.85711  0.99645  0.44210  1.0000
  C   C2865     1.0  0.84364  0.01063  0.39574  1.0000
  H   H5088     1.0  0.96000  0.24019  0.43976  1.0000
  H   H5089     1.0  0.78365  0.02045  0.43568  1.0000
  C   C2866     1.0  0.88095  0.00168  0.45576  1.0000
  H   H5090     1.0  0.53119  0.03797  0.34464  1.0000
  N   N162      1.0  0.86024  0.02817  0.41777  1.0000
  C   C2867     1.0  0.85745  0.01926  0.42906  1.0000
  C   C2868     1.0  0.86815  0.03526  0.41889  1.0000
  C   C2869     1.0  0.84878  0.03662  0.41583  1.0000
  C   C2870     1.0  0.86554  0.02254  0.40727  1.0000
  C   C2871     1.0  0.87662  0.01244  0.40805  1.0000
  C   C2872     1.0  0.84977  0.01105  0.42906  1.0000
  C   C2873     1.0  0.84979  0.04698  0.40492  1.0000
  C   C2874     1.0  0.87745  0.02887  0.42640  1.0000
  C   C2875     1.0  0.88555  0.03677  0.42562  1.0000
  H   H5091     1.0  0.73507  0.07834  0.48641  1.0000
  C   C2876     1.0  0.69212  0.00070  0.41123  1.0000
  C   C2877     1.0  0.83806  0.05590  0.40486  1.0000
  H   H5092     1.0  0.85292  0.02384  0.43642  1.0000
  H   H5093     1.0  0.86557  0.01339  0.43157  1.0000
  H   H5094     1.0  0.87287  0.03927  0.41004  1.0000
  H   H5095     1.0  0.86279  0.04281  0.42304  1.0000
  H   H5096     1.0  0.84427  0.04046  0.42372  1.0000
  H   H5097     1.0  0.84262  0.03201  0.41467  1.0000
  H   H5098     1.0  0.85879  0.01926  0.40528  1.0000
  H   H5099     1.0  0.86813  0.02920  0.39924  1.0000
  H   H5100     1.0  0.87540  0.00572  0.41634  1.0000
  H   H5101     1.0  0.88426  0.01605  0.40729  1.0000
  H   H5102     1.0  0.84082  0.01611  0.42812  1.0000
  H   H5103     1.0  0.85383  0.00625  0.42185  1.0000
  H   H5104     1.0  0.85231  0.04368  0.39670  1.0000
  H   H5105     1.0  0.85635  0.05179  0.40472  1.0000
  H   H5106     1.0  0.87302  0.02649  0.43578  1.0000
  H   H5107     1.0  0.88299  0.02075  0.42364  1.0000
  H   H5108     1.0  0.89179  0.03211  0.43145  1.0000
  H   H5109     1.0  0.89068  0.03904  0.41647  1.0000
  H   H5110     1.0  0.88035  0.04497  0.42858  1.0000
  H   H5111     1.0  0.84356  0.00610  0.44803  1.0000
  C   C2878     1.0  0.96754  0.16454  0.47158  1.0000
  Fe  Fe331     1.0  0.94411  0.09562  0.49040  1.0000
  Fe  Fe332     1.0  0.59173  0.00391  0.27823  1.0000
  H   H5112     1.0  0.62691  0.04983  0.44469  1.0000
  C   C2879     1.0  0.74015  0.99859  0.40320  1.0000
  H   H5113     1.0  0.83531  0.05985  0.41271  1.0000
  H   H5114     1.0  0.83893  0.06306  0.39688  1.0000
  H   H5115     1.0  0.83115  0.05164  0.40480  1.0000
  C   C2880     1.0  0.94162  0.17980  0.43991  1.0000
  H   H5116     1.0  0.83303  0.05153  0.47289  1.0000
  C   C2881     1.0  0.56831  0.01229  0.32360  1.0000
  Fe  Fe333     1.0  0.58052  0.02127  0.25878  1.0000
  H   H5117     1.0  0.95613  0.06400  0.47732  1.0000
  C   C2882     1.0  0.56244  0.00856  0.35090  1.0000
  H   H5118     1.0  0.98191  0.23352  0.48777  1.0000
  H   H5119     1.0  0.50879  0.00395  0.31984  1.0000
  C   C2883     1.0  0.57167  0.02393  0.32286  1.0000
  C   C2884     1.0  0.58429  0.02399  0.31593  1.0000
  H   H5120     1.0  0.84913  0.03664  0.47696  1.0000
  H   H5121     1.0  0.72412  0.99639  0.39535  1.0000
  H   H5122     1.0  0.78565  0.04739  0.37585  1.0000
  H   H5123     1.0  0.54935  0.00922  0.31753  1.0000
  H   H5124     1.0  0.70512  0.05803  0.47398  1.0000
  H   H5125     1.0  0.57560  0.00490  0.32617  1.0000
  H   H5126     1.0  0.56875  0.01230  0.31431  1.0000
  H   H5127     1.0  0.91495  0.15467  0.45773  1.0000
  C   C2885     1.0  0.65759  0.00952  0.45248  1.0000
  C   C2886     1.0  0.93409  0.18862  0.43175  1.0000
  H   H5128     1.0  0.50888  0.01625  0.33304  1.0000
  H   H5129     1.0  0.55643  0.01705  0.35237  1.0000
  H   H5130     1.0  0.57145  0.00992  0.34659  1.0000
  H   H5131     1.0  0.94242  0.14958  0.47560  1.0000
  H   H5132     1.0  0.73131  0.00337  0.40718  1.0000
  H   H5133     1.0  0.49607  0.03928  0.32231  1.0000
  C   C2887     1.0  0.72267  0.01542  0.48606  1.0000
  H   H5134     1.0  0.56582  0.03150  0.31821  1.0000
  H   H5135     1.0  0.57089  0.02540  0.33166  1.0000
  H   H5136     1.0  0.58607  0.03280  0.31455  1.0000
  H   H5137     1.0  0.59058  0.01746  0.32090  1.0000
  H   H5138     1.0  0.58575  0.02194  0.30719  1.0000
  H   H5139     1.0  0.88137  0.01237  0.38932  1.0000
  H   H5140     1.0  0.96791  0.24060  0.47433  1.0000
  C   C2888     1.0  0.84964  0.03616  0.48605  1.0000
  C   C2889     1.0  0.92151  0.05955  0.48479  1.0000
  Fe  Fe334     1.0  0.90084  0.02235  0.48334  1.0000
  H   H5141     1.0  0.76690  0.04692  0.38647  1.0000
  H   H5142     1.0  0.77907  0.02157  0.45081  1.0000
  H   H5143     1.0  0.79837  0.00975  0.44580  1.0000
  H   H5144     1.0  0.72328  0.04850  0.45258  1.0000
  C   C2890     1.0  0.92782  0.08140  0.47652  1.0000
  H   H5145     1.0  0.76563  0.01067  0.47695  1.0000
  C   C2891     1.0  0.93521  0.15532  0.47179  1.0000
  H   H5146     1.0  0.83224  0.99770  0.42369  1.0000
  H   H5147     1.0  0.93692  0.17109  0.47562  1.0000
  Fe  Fe335     1.0  0.92962  0.22868  0.45396  1.0000
  H   H5148     1.0  0.95846  0.13340  0.45670  1.0000
  C   C2892     1.0  0.82889  0.07055  0.46891  1.0000
  C   C2893     1.0  0.84417  0.06125  0.49033  1.0000
  H   H5149     1.0  0.70374  0.06078  0.45528  1.0000
  C   C2894     1.0  0.83308  0.00421  0.41562  1.0000
  Fe  Fe336     1.0  0.93001  0.20240  0.46343  1.0000
  C   C2895     1.0  0.62810  0.00793  0.43924  1.0000
  H   H5150     1.0  0.70873  0.07351  0.45501  1.0000
  H   H5151     1.0  0.75760  0.04419  0.47164  1.0000
  C   C2896     1.0  0.82503  0.01516  0.41484  1.0000
  C   C2897     1.0  0.63745  0.01454  0.43057  1.0000
  H   H5152     1.0  0.74372  0.00432  0.38358  1.0000
  C   C2898     1.0  0.81742  0.99680  0.45507  1.0000
  H   H5153     1.0  0.91074  0.00728  0.46439  1.0000
  H   H5154     1.0  0.77322  0.00350  0.45757  1.0000
  H   H5155     1.0  0.94646  0.23960  0.48015  1.0000
  C   C2899     1.0  0.50417  0.05730  0.26483  1.0000
  H   H5156     1.0  0.97230  0.19173  0.46100  1.0000
  H   H5157     1.0  0.70611  0.02193  0.48070  1.0000
  C   C2900     1.0  0.99461  0.13595  0.46984  1.0000
  C   C2901     1.0  0.53517  0.02113  0.33961  1.0000
  C   C2902     1.0  0.99016  0.18159  0.45739  1.0000
  C   C2903     1.0  0.63085  0.03063  0.44898  1.0000
  H   H5158     1.0  0.79755  0.00578  0.42821  1.0000
  H   H5159     1.0  0.62048  0.04336  0.45956  1.0000
  S   S655      1.0  0.58521  0.02351  0.27453  1.0000
  H   H5160     1.0  0.72125  0.99814  0.45785  1.0000
  H   H5161     1.0  0.97286  0.07968  0.48221  1.0000
  H   H5162     1.0  0.65068  0.99978  0.46995  1.0000
  C   C2904     1.0  0.77438  0.00326  0.49166  1.0000
  S   S656      1.0  0.94650  0.19863  0.46995  1.0000
  C   C2905     1.0  0.53751  0.01404  0.26004  1.0000
  H   H5163     1.0  0.51482  0.99529  0.33232  1.0000
  H   H5164     1.0  0.95186  0.23745  0.41354  1.0000
  Fe  Fe337     1.0  0.93793  0.21536  0.47639  1.0000
  H   H5165     1.0  0.52432  0.02958  0.26229  1.0000
  H   H5166     1.0  0.78036  0.06394  0.47003  1.0000
  H   H5167     1.0  0.97558  0.16366  0.42459  1.0000
  S   S657      1.0  0.94578  0.22700  0.46009  1.0000
  H   H5168     1.0  0.66581  0.00056  0.46727  1.0000
  C   C2906     1.0  0.61236  0.99860  0.30400  1.0000
  C   C2907     1.0  0.54246  0.04766  0.26310  1.0000
  H   H5169     1.0  0.54993  0.03085  0.25030  1.0000
  H   H5170     1.0  0.83460  0.01087  0.46713  1.0000
  C   C2908     1.0  0.49934  0.00718  0.24322  1.0000
  H   H5171     1.0  0.56643  0.00442  0.36814  1.0000
  H   H5172     1.0  0.96571  0.06835  0.49060  1.0000
  H   H5173     1.0  0.54996  0.00015  0.34864  1.0000
  H   H5174     1.0  0.81163  0.99752  0.41220  1.0000
  H   H5175     1.0  0.66729  0.03142  0.39712  1.0000
  H   H5176     1.0  0.84329  0.99580  0.44002  1.0000
  C   C2909     1.0  0.95685  0.23513  0.42054  1.0000
  C   C2910     1.0  0.60988  0.99825  0.31607  1.0000
  H   H5177     1.0  0.73192  0.08542  0.47213  1.0000
  H   H5178     1.0  0.50010  0.99529  0.33200  1.0000
  C   C2911     1.0  0.77805  0.06564  0.48800  1.0000
  H   H5179     1.0  0.97594  0.18411  0.42190  1.0000
  H   H5180     1.0  0.96873  0.18317  0.48581  1.0000
  H   H5181     1.0  0.82692  0.00785  0.48226  1.0000
  H   H5182     1.0  0.85968  0.01834  0.48683  1.0000
  H   H5183     1.0  0.50151  0.03438  0.33517  1.0000
  S   S658      1.0  0.90929  0.00334  0.48935  1.0000
  H   H5184     1.0  0.91469  0.99511  0.42037  1.0000
  C   C2912     1.0  0.92753  0.06319  0.49102  1.0000
  C   C2913     1.0  0.99186  0.09819  0.49106  1.0000
  C   C2914     1.0  0.90861  0.99434  0.48060  1.0000
  H   H5185     1.0  0.99551  0.17012  0.41644  1.0000
  H   H5186     1.0  0.71175  0.99631  0.49093  1.0000
  H   H5187     1.0  0.72892  0.99364  0.47479  1.0000
  H   H5188     1.0  0.71232  0.05664  0.49129  1.0000
  H   H5189     1.0  0.56826  0.99309  0.31704  1.0000
  H   H5190     1.0  0.81986  0.07050  0.49123  1.0000
  C   C2915     1.0  0.87364  0.99315  0.48223  1.0000
  S   S659      1.0  0.89983  0.03711  0.49166  1.0000
  C   C2916     1.0  0.85129  0.07844  0.49140  1.0000
  H   H5191     1.0  0.83342  0.07904  0.49174  1.0000
  S   S660      1.0  0.78390  0.01585  0.55945  1.0000
  H   H5192     1.0  0.85873  0.07262  0.53383  1.0000
  H   H5193     1.0  0.65000  0.03331  0.53219  1.0000
  H   H5194     1.0  0.63771  0.00313  0.56220  1.0000
  Fe  Fe338     1.0  0.82610  0.00438  0.53545  1.0000
  S   S661      1.0  0.96626  0.22847  0.57652  1.0000
  H   H5195     1.0  0.68877  0.00530  0.52637  1.0000
  H   H5196     1.0  0.96732  0.07198  0.52707  1.0000
  S   S662      1.0  0.56626  0.06438  0.71980  1.0000
  C   C2917     1.0  0.90334  0.08539  0.51172  1.0000
  H   H5197     1.0  0.92010  0.07937  0.51715  1.0000
  H   H5198     1.0  0.50840  0.01259  0.73192  1.0000
  C   C2918     1.0  0.61993  0.01499  0.71605  1.0000
  H   H5199     1.0  0.90144  0.05509  0.50526  1.0000
  H   H5200     1.0  0.68368  0.00237  0.54996  1.0000
  C   C2919     1.0  0.49986  0.03159  0.65457  1.0000
  H   H5201     1.0  0.76832  0.04675  0.53176  1.0000
  H   H5202     1.0  0.97581  0.05740  0.51449  1.0000
  H   H5203     1.0  0.96965  0.17809  0.50098  1.0000
  C   C2920     1.0  0.87991  0.07639  0.51798  1.0000
  Fe  Fe339     1.0  0.88050  0.04118  0.49244  1.0000
  S   S663      1.0  0.54818  0.01825  0.59635  1.0000
  H   H5204     1.0  0.92035  0.15671  0.51218  1.0000
  H   H5205     1.0  0.51429  0.10333  0.69180  1.0000
  H   H5206     1.0  0.57197  0.02509  0.60528  1.0000
  H   H5207     1.0  0.78391  0.05594  0.53256  1.0000
  Fe  Fe340     1.0  0.55350  0.04366  0.67008  1.0000
  S   S664      1.0  0.53926  0.03597  0.68347  1.0000
  S   S665      1.0  0.56903  0.04701  0.67426  1.0000
  Fe  Fe341     1.0  0.54310  0.04461  0.64947  1.0000
  S   S666      1.0  0.52792  0.03707  0.66119  1.0000
  S   S667      1.0  0.54586  0.05074  0.62992  1.0000
  Fe  Fe342     1.0  0.52710  0.04904  0.67265  1.0000
  S   S668      1.0  0.51104  0.06142  0.68035  1.0000
  Fe  Fe343     1.0  0.54161  0.02479  0.67071  1.0000
  S   S669      1.0  0.54227  0.00548  0.67667  1.0000
  S   S670      1.0  0.54121  0.05764  0.66015  1.0000
  S   S671      1.0  0.55684  0.03148  0.65805  1.0000
  H   H5208     1.0  0.59783  0.99482  0.56305  1.0000
  C   C2921     1.0  0.51630  0.09664  0.68646  1.0000
  C   C2922     1.0  0.51738  0.03112  0.61550  1.0000
  H   H5209     1.0  0.86882  0.06632  0.51508  1.0000
  C   C2923     1.0  0.83808  0.04315  0.49263  1.0000
  C   C2924     1.0  0.89222  0.07809  0.49757  1.0000
  H   H5210     1.0  0.63238  0.00105  0.58269  1.0000
  Fe  Fe344     1.0  0.97862  0.16543  0.52470  1.0000
  H   H5211     1.0  0.96796  0.12445  0.50063  1.0000
  S   S672      1.0  0.97874  0.15385  0.51295  1.0000
  Fe  Fe345     1.0  0.97121  0.18151  0.54234  1.0000
  Fe  Fe346     1.0  0.73312  0.01998  0.53083  1.0000
  S   S673      1.0  0.95756  0.18907  0.55686  1.0000
  Fe  Fe347     1.0  0.98535  0.18920  0.51828  1.0000
  C   C2925     1.0  0.49743  0.04554  0.68417  1.0000
  H   H5212     1.0  0.60524  0.03910  0.71713  1.0000
  C   C2926     1.0  0.78588  0.04659  0.53197  1.0000
  S   S674      1.0  0.96802  0.18391  0.52439  1.0000
  H   H5213     1.0  0.58593  0.00658  0.65194  1.0000
  H   H5214     1.0  0.50436  0.02790  0.66201  1.0000
  H   H5215     1.0  0.54056  0.99452  0.70783  1.0000
  H   H5216     1.0  0.99401  0.14218  0.52926  1.0000
  C   C2927     1.0  0.86786  0.02242  0.51717  1.0000
  H   H5217     1.0  0.98083  0.03124  0.51090  1.0000
  H   H5218     1.0  0.98571  0.19252  0.56817  1.0000
  H   H5219     1.0  0.88356  0.05292  0.52932  1.0000
  Fe  Fe348     1.0  0.94933  0.11299  0.50157  1.0000
  C   C2928     1.0  0.86846  0.07537  0.51556  1.0000
  S   S675      1.0  0.94883  0.11692  0.51892  1.0000
  H   H5220     1.0  0.53071  0.99358  0.66736  1.0000
  C   C2929     1.0  0.75355  0.03441  0.54972  1.0000
  H   H5221     1.0  0.85831  0.99868  0.49588  1.0000
  H   H5222     1.0  0.60895  0.00643  0.60056  1.0000
  H   H5223     1.0  0.99074  0.21127  0.56689  1.0000
  H   H5224     1.0  0.94031  0.13751  0.50249  1.0000
  C   C2930     1.0  0.76809  0.01204  0.54922  1.0000
  H   H5225     1.0  0.58745  0.02121  0.59859  1.0000
  H   H5226     1.0  0.75220  0.06123  0.50339  1.0000
  H   H5227     1.0  0.60450  0.00368  0.62568  1.0000
  H   H5228     1.0  0.98923  0.16148  0.56719  1.0000
  C   C2931     1.0  0.76561  0.04001  0.51049  1.0000
  C   C2932     1.0  0.89284  0.05843  0.51099  1.0000
  H   H5229     1.0  0.84971  0.07819  0.52314  1.0000
  S   S676      1.0  0.71872  0.01141  0.54279  1.0000
  S   S677      1.0  0.98771  0.20462  0.50329  1.0000
  H   H5230     1.0  0.53721  0.02999  0.73116  1.0000
  H   H5231     1.0  0.75620  0.06381  0.52642  1.0000
  H   H5232     1.0  0.93379  0.19414  0.49867  1.0000
  C   C2933     1.0  0.49779  0.05731  0.68250  1.0000
  H   H5233     1.0  0.92618  0.24084  0.49293  1.0000
  H   H5234     1.0  0.59211  0.99406  0.50451  1.0000
  Fe  Fe349     1.0  0.55596  0.99887  0.59948  1.0000
  C   C2934     1.0  0.58144  0.00832  0.61412  1.0000
  H   H5235     1.0  0.76202  0.03773  0.52009  1.0000
  C   C2935     1.0  0.98374  0.23009  0.52296  1.0000
  H   H5236     1.0  0.99035  0.23141  0.49850  1.0000
  C   C2936     1.0  0.60081  0.00868  0.51162  1.0000
  C   C2937     1.0  0.68031  0.01136  0.52757  1.0000
  H   H5237     1.0  0.52087  0.01080  0.63177  1.0000
  C   C2938     1.0  0.92761  0.17781  0.50439  1.0000
  H   H5238     1.0  0.84294  0.04383  0.52112  1.0000
  H   H5239     1.0  0.60905  0.00887  0.50470  1.0000
  C   C2939     1.0  0.73935  0.06993  0.52197  1.0000
  C   C2940     1.0  0.56614  0.00188  0.67429  1.0000
  H   H5240     1.0  0.95944  0.16605  0.49551  1.0000
  H   H5241     1.0  0.90274  0.03440  0.51752  1.0000
  H   H5242     1.0  0.98897  0.22080  0.58473  1.0000
  C   C2941     1.0  0.51298  0.00589  0.65587  1.0000
  S   S678      1.0  0.82374  0.00324  0.51820  1.0000
  H   H5243     1.0  0.49959  0.06935  0.71798  1.0000
  S   S679      1.0  0.73964  0.03259  0.53654  1.0000
  H   H5244     1.0  0.55259  0.00021  0.72696  1.0000
  H   H5245     1.0  0.78711  0.04891  0.50858  1.0000
  C   C2942     1.0  0.94698  0.17364  0.50977  1.0000
  H   H5246     1.0  0.86893  0.00393  0.52463  1.0000
  H   H5247     1.0  0.87714  0.02127  0.51309  1.0000
  H   H5248     1.0  0.96422  0.22465  0.53433  1.0000
  H   H5249     1.0  0.99350  0.20321  0.54952  1.0000
  H   H5250     1.0  0.62324  0.00720  0.60143  1.0000
  H   H5251     1.0  0.61678  0.00956  0.57216  1.0000
  H   H5252     1.0  0.58490  0.99869  0.67246  1.0000
  H   H5253     1.0  0.80637  0.07421  0.51010  1.0000
  C   C2943     1.0  0.96043  0.20011  0.56186  1.0000
  C   C2944     1.0  0.95454  0.20190  0.57313  1.0000
  C   C2945     1.0  0.95647  0.21059  0.57744  1.0000
  C   C2946     1.0  0.96416  0.21778  0.57048  1.0000
  C   C2947     1.0  0.96997  0.21617  0.55910  1.0000
  C   C2948     1.0  0.96813  0.20732  0.55481  1.0000
  H   H5254     1.0  0.94852  0.19646  0.57861  1.0000
  H   H5255     1.0  0.95193  0.21177  0.58623  1.0000
  H   H5256     1.0  0.97588  0.22171  0.55364  1.0000
  H   H5257     1.0  0.97248  0.20624  0.54600  1.0000
  H   H5258     1.0  0.99490  0.12709  0.52898  1.0000
  H   H5259     1.0  0.90708  0.19602  0.50398  1.0000
  H   H5260     1.0  0.57730  0.01387  0.59685  1.0000
  H   H5261     1.0  0.86685  0.08154  0.50722  1.0000
  H   H5262     1.0  0.69386  0.05032  0.49386  1.0000
  C   C2949     1.0  0.98858  0.13109  0.54595  1.0000
  H   H5263     1.0  0.88700  0.03645  0.51948  1.0000
  C   C2950     1.0  0.63316  0.01043  0.71530  1.0000
  C   C2951     1.0  0.66999  0.00794  0.52804  1.0000
  H   H5264     1.0  0.52723  0.01200  0.69795  1.0000
  C   C2952     1.0  0.96394  0.21099  0.50972  1.0000
  H   H5265     1.0  0.94028  0.23133  0.52534  1.0000
  H   H5266     1.0  0.49637  0.05119  0.71760  1.0000
  H   H5267     1.0  0.94508  0.21392  0.51512  1.0000
  H   H5268     1.0  0.96518  0.20901  0.51859  1.0000
  C   C2953     1.0  0.97123  0.14266  0.51567  1.0000
  C   C2954     1.0  0.97292  0.13707  0.50649  1.0000
  C   C2955     1.0  0.96646  0.12878  0.50769  1.0000
  C   C2956     1.0  0.95812  0.12609  0.51802  1.0000
  C   C2957     1.0  0.95685  0.13120  0.52749  1.0000
  C   C2958     1.0  0.96341  0.13951  0.52631  1.0000
  C   C2959     1.0  0.90127  0.07273  0.51455  1.0000
  H   H5269     1.0  0.60096  0.01333  0.51824  1.0000
  H   H5270     1.0  0.95055  0.12899  0.53559  1.0000
  H   H5271     1.0  0.96219  0.14368  0.53349  1.0000
  H   H5272     1.0  0.89505  0.09195  0.51382  1.0000
  H   H5273     1.0  0.73466  0.06981  0.53128  1.0000
  H   H5274     1.0  0.98431  0.22668  0.53231  1.0000
  C   C2960     1.0  0.77551  0.02945  0.50703  1.0000
  H   H5275     1.0  0.96095  0.22853  0.52022  1.0000
  C   C2961     1.0  0.57943  0.01771  0.60305  1.0000
  H   H5276     1.0  0.74807  0.04315  0.54976  1.0000
  H   H5277     1.0  0.99003  0.13635  0.55134  1.0000
  N   N163      1.0  0.76920  0.05165  0.50690  1.0000
  C   C2962     1.0  0.56828  0.01189  0.69943  1.0000
  H   H5278     1.0  0.50300  0.03176  0.71900  1.0000
  H   H5279     1.0  0.94243  0.24104  0.56753  1.0000
  H   H5280     1.0  0.77377  0.00342  0.54893  1.0000
  H   H5281     1.0  0.82672  0.06267  0.51052  1.0000
  H   H5282     1.0  0.92897  0.14556  0.52141  1.0000
  H   H5283     1.0  0.58367  0.02704  0.68866  1.0000
  H   H5284     1.0  0.76539  0.03663  0.55880  1.0000
  C   C2963     1.0  0.49650  0.02936  0.72727  1.0000
  H   H5285     1.0  0.89847  0.24205  0.53014  1.0000
  H   H5286     1.0  0.56488  0.01126  0.67271  1.0000
  C   C2964     1.0  0.75126  0.06120  0.52154  1.0000
  C   C2965     1.0  0.54782  0.02661  0.60619  1.0000
  C   C2966     1.0  0.54719  0.02189  0.61825  1.0000
  C   C2967     1.0  0.54631  0.02925  0.62579  1.0000
  C   C2968     1.0  0.54643  0.04117  0.62117  1.0000
  C   C2969     1.0  0.54711  0.04575  0.60916  1.0000
  C   C2970     1.0  0.54765  0.03856  0.60175  1.0000
  H   H5287     1.0  0.54708  0.01270  0.62176  1.0000
  H   H5288     1.0  0.54551  0.02577  0.63513  1.0000
  H   H5289     1.0  0.54712  0.05496  0.60556  1.0000
  H   H5290     1.0  0.54800  0.04228  0.59249  1.0000
  H   H5291     1.0  0.94239  0.15878  0.49874  1.0000
  H   H5292     1.0  0.53553  0.10148  0.71718  1.0000
  C   C2971     1.0  0.85111  0.01393  0.52866  1.0000
  C   C2972     1.0  0.94063  0.23265  0.53395  1.0000
  S   S680      1.0  0.69199  0.02764  0.52838  1.0000
  H   H5293     1.0  0.95298  0.16739  0.51527  1.0000
  H   H5294     1.0  0.66803  0.03927  0.53144  1.0000
  C   C2973     1.0  0.89399  0.03754  0.52306  1.0000
  C   C2974     1.0  0.57773  0.99721  0.63989  1.0000
  H   H5295     1.0  0.70225  0.03540  0.49381  1.0000
  C   C2975     1.0  0.75097  0.02695  0.54433  1.0000
  C   C2976     1.0  0.52651  0.00990  0.70759  1.0000
  H   H5296     1.0  0.58960  0.04442  0.72094  1.0000
  H   H5297     1.0  0.50551  0.03884  0.68348  1.0000
  S   S681      1.0  0.79540  0.01031  0.52877  1.0000
  C   C2977     1.0  0.77798  0.05200  0.51340  1.0000
  H   H5298     1.0  0.58332  0.00469  0.70826  1.0000
  C   C2978     1.0  0.84388  0.02526  0.52775  1.0000
  H   H5299     1.0  0.83094  0.03928  0.49237  1.0000
  H   H5300     1.0  0.52439  0.09764  0.67953  1.0000
  H   H5301     1.0  0.88824  0.08762  0.49722  1.0000
  H   H5302     1.0  0.98365  0.07858  0.49600  1.0000
  H   H5303     1.0  0.63500  0.00154  0.72105  1.0000
  H   H5304     1.0  0.98494  0.22256  0.51892  1.0000
  C   C2979     1.0  0.56631  0.05956  0.70736  1.0000
  C   C2980     1.0  0.55965  0.05162  0.70792  1.0000
  C   C2981     1.0  0.56002  0.04804  0.69770  1.0000
  C   C2982     1.0  0.56741  0.05203  0.68703  1.0000
  C   C2983     1.0  0.57414  0.05982  0.68654  1.0000
  C   C2984     1.0  0.57335  0.06381  0.69657  1.0000
  H   H5305     1.0  0.55403  0.04843  0.71613  1.0000
  H   H5306     1.0  0.55478  0.04207  0.69806  1.0000
  H   H5307     1.0  0.57991  0.06291  0.67833  1.0000
  H   H5308     1.0  0.57850  0.06996  0.69601  1.0000
  H   H5309     1.0  0.96870  0.02975  0.50612  1.0000
  C   C2985     1.0  0.54816  0.00984  0.70430  1.0000
  H   H5310     1.0  0.60435  0.00252  0.54147  1.0000
  C   C2986     1.0  0.85185  0.02321  0.49221  1.0000
  C   C2987     1.0  0.89227  0.05040  0.52346  1.0000
  N   N164      1.0  0.89132  0.07139  0.51022  1.0000
  H   H5311     1.0  0.84417  0.01947  0.49331  1.0000
  H   H5312     1.0  0.58832  0.04138  0.70154  1.0000
  H   H5313     1.0  0.49776  0.09867  0.68689  1.0000
  H   H5314     1.0  0.99027  0.12166  0.55046  1.0000
  N   N165      1.0  0.58608  0.00537  0.63449  1.0000
  H   H5315     1.0  0.59734  0.03447  0.73779  1.0000
  H   H5316     1.0  0.98506  0.16792  0.57989  1.0000
  H   H5317     1.0  0.71869  0.01502  0.49530  1.0000
  H   H5318     1.0  0.97924  0.13396  0.54522  1.0000
  C   C2988     1.0  0.96155  0.23227  0.52733  1.0000
  C   C2989     1.0  0.59996  0.99600  0.51757  1.0000
  H   H5319     1.0  0.75821  0.04055  0.50652  1.0000
  Fe  Fe350     1.0  0.79959  0.01049  0.54542  1.0000
  H   H5320     1.0  0.81662  0.05686  0.49264  1.0000
  H   H5321     1.0  0.87994  0.07235  0.52741  1.0000
  H   H5322     1.0  0.89992  0.06951  0.52426  1.0000
  H   H5323     1.0  0.91470  0.20783  0.49783  1.0000
  C   C2990     1.0  0.96350  0.18229  0.49500  1.0000
  H   H5324     1.0  0.50585  0.03596  0.64698  1.0000
  C   C2991     1.0  0.55651  0.99680  0.67668  1.0000
  C   C2992     1.0  0.61323  0.01643  0.72872  1.0000
  C   C2993     1.0  0.93236  0.21447  0.54414  1.0000
  C   C2994     1.0  0.77087  0.01969  0.55427  1.0000
  H   H5325     1.0  0.60673  0.00186  0.58286  1.0000
  C   C2995     1.0  0.97703  0.03286  0.50313  1.0000
  H   H5326     1.0  0.53427  0.02080  0.72368  1.0000
  H   H5327     1.0  0.60442  0.99571  0.64765  1.0000
  H   H5328     1.0  0.92403  0.19277  0.51295  1.0000
  Fe  Fe351     1.0  0.80952  0.99388  0.52904  1.0000
  C   C2996     1.0  0.51426  0.01784  0.63585  1.0000
  H   H5329     1.0  0.77745  0.06124  0.51362  1.0000
  C   C2997     1.0  0.67960  0.02269  0.52879  1.0000
  C   C2998     1.0  0.97450  0.04597  0.49746  1.0000
  H   H5330     1.0  0.91224  0.23141  0.53032  1.0000
  C   C2999     1.0  0.61616  0.99661  0.55954  1.0000
  H   H5331     1.0  0.85683  0.08789  0.52605  1.0000
  C   C3000     1.0  0.55803  0.00618  0.72066  1.0000
  C   C3001     1.0  0.55300  0.01880  0.72296  1.0000
  H   H5332     1.0  0.50576  0.99728  0.61020  1.0000
  H   H5333     1.0  0.88614  0.05677  0.50747  1.0000
  C   C3002     1.0  0.53831  0.00301  0.71062  1.0000
  H   H5334     1.0  0.99257  0.06529  0.50231  1.0000
  C   C3003     1.0  0.99477  0.18752  0.56908  1.0000
  H   H5335     1.0  0.61637  0.01731  0.59001  1.0000
  C   C3004     1.0  0.75799  0.01558  0.54449  1.0000
  C   C3005     1.0  0.55677  0.99435  0.64735  1.0000
  H   H5336     1.0  0.54463  0.01920  0.70489  1.0000
  C   C3006     1.0  0.58772  0.01811  0.69315  1.0000
  H   H5337     1.0  0.56374  0.02109  0.69599  1.0000
  H   H5338     1.0  0.92142  0.24192  0.51121  1.0000
  C   C3007     1.0  0.91545  0.19835  0.49851  1.0000
  C   C3008     1.0  0.77720  0.04459  0.52619  1.0000
  H   H5339     1.0  0.64004  0.99497  0.55116  1.0000
  H   H5340     1.0  0.55433  0.02566  0.71482  1.0000
  C   C3009     1.0  0.95258  0.21378  0.50777  1.0000
  H   H5341     1.0  0.61677  0.00845  0.73501  1.0000
  H   H5342     1.0  0.52237  0.03593  0.61816  1.0000
  H   H5343     1.0  0.51961  0.02249  0.63828  1.0000
  C   C3010     1.0  0.93101  0.14242  0.50431  1.0000
  H   H5344     1.0  0.57552  0.01929  0.70969  1.0000
  H   H5345     1.0  0.97917  0.13928  0.49835  1.0000
  H   H5346     1.0  0.57635  0.01836  0.64474  1.0000
  C   C3011     1.0  0.82285  0.06094  0.49444  1.0000
  S   S682      1.0  0.98792  0.18783  0.53610  1.0000
  H   H5347     1.0  0.92860  0.14740  0.49586  1.0000
  H   H5348     1.0  0.50960  0.08388  0.70146  1.0000
  H   H5349     1.0  0.58935  0.00156  0.61147  1.0000
  H   H5350     1.0  0.91385  0.09488  0.51575  1.0000
  H   H5351     1.0  0.99137  0.04694  0.49958  1.0000
  H   H5352     1.0  0.92981  0.05745  0.49901  1.0000
  H   H5353     1.0  0.62064  0.00391  0.55455  1.0000
  C   C3012     1.0  0.59836  0.99805  0.63137  1.0000
  C   C3013     1.0  0.84861  0.03513  0.52170  1.0000
  H   H5354     1.0  0.53711  0.00119  0.72027  1.0000
  H   H5355     1.0  0.49792  0.03274  0.73419  1.0000
  H   H5356     1.0  0.59115  0.01230  0.68674  1.0000
  C   C3014     1.0  0.98603  0.05059  0.49276  1.0000
  H   H5357     1.0  0.98323  0.02774  0.49672  1.0000
  H   H5358     1.0  0.77977  0.01042  0.51134  1.0000
  S   S683      1.0  0.81293  0.02151  0.53643  1.0000
  H   H5359     1.0  0.89925  0.05086  0.52741  1.0000
  C   C3015     1.0  0.97461  0.07338  0.51926  1.0000
  H   H5360     1.0  0.60986  0.99480  0.72713  1.0000
  H   H5361     1.0  0.63673  0.01651  0.71796  1.0000
  H   H5362     1.0  0.77934  0.03506  0.52635  1.0000
  H   H5363     1.0  0.87900  0.08591  0.51723  1.0000
  H   H5364     1.0  0.76415  0.01699  0.51269  1.0000
  H   H5365     1.0  0.80181  0.06098  0.51098  1.0000
  H   H5366     1.0  0.69512  0.99661  0.55803  1.0000
  C   C3016     1.0  0.86054  0.03371  0.51614  1.0000
  C   C3017     1.0  0.94250  0.22033  0.54231  1.0000
  H   H5367     1.0  0.50695  0.00329  0.66443  1.0000
  C   C3018     1.0  0.75828  0.06132  0.50871  1.0000
  H   H5368     1.0  0.95067  0.21438  0.53859  1.0000
  H   H5369     1.0  0.95328  0.23381  0.54948  1.0000
  H   H5370     1.0  0.78325  0.06769  0.49303  1.0000
  Fe  Fe352     1.0  0.97607  0.24259  0.56571  1.0000
  C   C3019     1.0  0.86319  0.01259  0.52364  1.0000
  Fe  Fe353     1.0  0.80991  0.01966  0.51985  1.0000
  H   H5371     1.0  0.59908  0.00809  0.56595  1.0000
  C   C3020     1.0  0.59579  0.00735  0.73603  1.0000
  H   H5372     1.0  0.50207  0.03415  0.62920  1.0000
  H   H5373     1.0  0.90844  0.23805  0.51040  1.0000
  H   H5374     1.0  0.59858  0.00253  0.71896  1.0000
  C   C3021     1.0  0.68837  0.99425  0.55512  1.0000
  H   H5375     1.0  0.77174  0.01703  0.52347  1.0000
  C   C3022     1.0  0.85781  0.07875  0.52526  1.0000
  H   H5376     1.0  0.51761  0.01172  0.65758  1.0000
  H   H5377     1.0  0.69265  0.00170  0.50533  1.0000
  H   H5378     1.0  0.53835  0.01467  0.73763  1.0000
  H   H5379     1.0  0.95895  0.19121  0.49653  1.0000
  C   C3023     1.0  0.98702  0.16987  0.57013  1.0000
  H   H5380     1.0  0.55799  0.01996  0.72875  1.0000
  H   H5381     1.0  0.59189  0.99628  0.52472  1.0000
  H   H5382     1.0  0.99099  0.23473  0.51838  1.0000
  H   H5383     1.0  0.98263  0.10109  0.49491  1.0000
  H   H5384     1.0  0.93050  0.17679  0.49510  1.0000
  S   S684      1.0  0.81304  0.99331  0.54635  1.0000
  C   C3024     1.0  0.92966  0.16861  0.52458  1.0000
  C   C3025     1.0  0.76336  0.03073  0.55482  1.0000
  H   H5385     1.0  0.51978  0.00456  0.71182  1.0000
  H   H5386     1.0  0.54273  0.08959  0.72723  1.0000
  C   C3026     1.0  0.93644  0.15972  0.53366  1.0000
  H   H5387     1.0  0.61869  0.02358  0.70975  1.0000
  H   H5388     1.0  0.56650  0.00281  0.72350  1.0000
  C   C3027     1.0  0.53996  0.02110  0.72919  1.0000
  H   H5389     1.0  0.52346  0.01824  0.71073  1.0000
  C   C3028     1.0  0.92881  0.15888  0.54613  1.0000
  S   S685      1.0  0.55254  0.03898  0.74015  1.0000
  H   H5390     1.0  0.63776  0.00980  0.70611  1.0000
  S   S686      1.0  0.74405  0.00382  0.52453  1.0000
  H   H5391     1.0  0.94676  0.15179  0.51203  1.0000
  H   H5392     1.0  0.92096  0.16644  0.52621  1.0000
  C   C3029     1.0  0.50616  0.09937  0.68032  1.0000
  C   C3030     1.0  0.50829  0.02645  0.62602  1.0000
  H   H5393     1.0  0.96800  0.05063  0.50404  1.0000
  C   C3031     1.0  0.60283  0.00185  0.55998  1.0000
  C   C3032     1.0  0.95030  0.24211  0.54332  1.0000
  H   H5394     1.0  0.83868  0.04098  0.50198  1.0000
  C   C3033     1.0  0.59480  0.02562  0.72094  1.0000
  H   H5395     1.0  0.94440  0.16246  0.53361  1.0000
  H   H5396     1.0  0.93911  0.15081  0.53182  1.0000
  H   H5397     1.0  0.87828  0.07194  0.49387  1.0000
  H   H5398     1.0  0.84485  0.05798  0.49968  1.0000
  H   H5399     1.0  0.60420  0.03738  0.69767  1.0000
  S   S687      1.0  0.93689  0.21738  0.49442  1.0000
  H   H5400     1.0  0.50342  0.02200  0.62278  1.0000
  H   H5401     1.0  0.59684  0.05191  0.70007  1.0000
  H   H5402     1.0  0.90977  0.06715  0.51080  1.0000
  H   H5403     1.0  0.82214  0.04933  0.51214  1.0000
  N   N166      1.0  0.55967  0.00503  0.70823  1.0000
  H   H5404     1.0  0.93160  0.21338  0.53562  1.0000
  H   H5405     1.0  0.52991  0.99749  0.64592  1.0000
  H   H5406     1.0  0.93393  0.15254  0.55243  1.0000
  H   H5407     1.0  0.92610  0.16758  0.54857  1.0000
  H   H5408     1.0  0.92086  0.15572  0.54686  1.0000
  N   N167      1.0  0.52845  0.07962  0.69957  1.0000
  C   C3034     1.0  0.51772  0.08408  0.69433  1.0000
  C   C3035     1.0  0.52849  0.06739  0.70717  1.0000
  C   C3036     1.0  0.52757  0.08760  0.70751  1.0000
  C   C3037     1.0  0.53977  0.07996  0.69034  1.0000
  C   C3038     1.0  0.54160  0.07450  0.67968  1.0000
  C   C3039     1.0  0.53745  0.08396  0.71447  1.0000
  C   C3040     1.0  0.52427  0.05883  0.70277  1.0000
  C   C3041     1.0  0.52587  0.04656  0.71071  1.0000
  C   C3042     1.0  0.55155  0.07857  0.66974  1.0000
  C   C3043     1.0  0.53550  0.09240  0.72244  1.0000
  C   C3044     1.0  0.91174  0.08605  0.51866  1.0000
  H   H5409     1.0  0.51749  0.07820  0.68892  1.0000
  H   H5410     1.0  0.53741  0.06300  0.70873  1.0000
  H   H5411     1.0  0.52271  0.06785  0.71608  1.0000
  H   H5412     1.0  0.51894  0.08826  0.71399  1.0000
  H   H5413     1.0  0.52781  0.09670  0.70237  1.0000
  H   H5414     1.0  0.54083  0.08919  0.68687  1.0000
  H   H5415     1.0  0.54750  0.07532  0.69431  1.0000
  H   H5416     1.0  0.53371  0.07695  0.67594  1.0000
  H   H5417     1.0  0.54417  0.06479  0.68230  1.0000
  H   H5418     1.0  0.54619  0.08412  0.70841  1.0000
  H   H5419     1.0  0.53779  0.07501  0.72010  1.0000
  H   H5420     1.0  0.51474  0.06195  0.70287  1.0000
  H   H5421     1.0  0.52910  0.05805  0.69374  1.0000
  H   H5422     1.0  0.52259  0.04074  0.70740  1.0000
  H   H5423     1.0  0.53530  0.04278  0.71075  1.0000
  H   H5424     1.0  0.52080  0.04690  0.71984  1.0000
  H   H5425     1.0  0.55366  0.07370  0.66265  1.0000
  H   H5426     1.0  0.54889  0.08810  0.66592  1.0000
  H   H5427     1.0  0.55966  0.07692  0.67297  1.0000
  H   H5428     1.0  0.59313  0.01341  0.50763  1.0000
  H   H5429     1.0  0.54748  0.99904  0.64991  1.0000
  C   C3045     1.0  0.98430  0.06894  0.49908  1.0000
  C   C3046     1.0  0.92578  0.19103  0.50406  1.0000
  H   H5430     1.0  0.93407  0.20562  0.55000  1.0000
  H   H5431     1.0  0.58597  0.00927  0.73832  1.0000
  S   S688      1.0  0.93334  0.11239  0.49603  1.0000
  C   C3047     1.0  0.61762  0.00815  0.59529  1.0000
  H   H5432     1.0  0.75597  0.00970  0.54050  1.0000
  H   H5433     1.0  0.50769  0.99875  0.63761  1.0000
  Fe  Fe354     1.0  0.72892  0.99572  0.53517  1.0000
  C   C3048     1.0  0.77253  0.01776  0.51403  1.0000
  S   S689      1.0  0.80947  0.03489  0.50458  1.0000
  C   C3049     1.0  0.95100  0.21558  0.49641  1.0000
  H   H5434     1.0  0.74053  0.07899  0.51761  1.0000
  H   H5435     1.0  0.97905  0.17554  0.56704  1.0000
  Fe  Fe355     1.0  0.71057  0.01692  0.52710  1.0000
  C   C3050     1.0  0.61618  0.00085  0.57819  1.0000
  C   C3051     1.0  0.82077  0.05885  0.50801  1.0000
  H   H5436     1.0  0.85034  0.07536  0.50107  1.0000
  H   H5437     1.0  0.90738  0.08806  0.50223  1.0000
  C   C3052     1.0  0.60074  0.00844  0.54777  1.0000
  C   C3053     1.0  0.62352  0.99939  0.58729  1.0000
  C   C3054     1.0  0.57746  0.99475  0.67427  1.0000
  S   S690      1.0  0.86611  0.04608  0.50769  1.0000
  C   C3055     1.0  0.57871  0.01315  0.70362  1.0000
  C   C3056     1.0  0.80812  0.06452  0.51332  1.0000
  C   C3057     1.0  0.60028  0.99848  0.72784  1.0000
  C   C3058     1.0  0.66863  0.03052  0.53047  1.0000
  H   H5438     1.0  0.97346  0.08298  0.51554  1.0000
  S   S691      1.0  0.99484  0.24135  0.56568  1.0000
  H   H5439     1.0  0.98991  0.19984  0.58684  1.0000
  H   H5440     1.0  0.92393  0.21974  0.54835  1.0000
  H   H5441     1.0  0.91876  0.17571  0.50744  1.0000
  H   H5442     1.0  0.87487  0.00298  0.50034  1.0000
  C   C3059     1.0  0.65842  0.02714  0.53092  1.0000
  S   S692      1.0  0.64591  0.01221  0.53017  1.0000
  H   H5443     1.0  0.52703  0.09234  0.72900  1.0000
  H   H5444     1.0  0.89348  0.03198  0.53208  1.0000
  Fe  Fe356     1.0  0.73379  0.00948  0.51051  1.0000
  H   H5445     1.0  0.90163  0.07758  0.49295  1.0000
  H   H5446     1.0  0.78394  0.02978  0.50859  1.0000
  C   C3060     1.0  0.65905  0.01591  0.52961  1.0000
  S   S693      1.0  0.72436  0.02666  0.51555  1.0000
  C   C3061     1.0  0.58302  0.01384  0.62348  1.0000
  C   C3062     1.0  0.58519  0.01243  0.64324  1.0000
  H   H5447     1.0  0.54972  0.01005  0.69477  1.0000
  H   H5448     1.0  0.94300  0.22095  0.55108  1.0000
  C   C3063     1.0  0.56451  0.00328  0.64284  1.0000
  N   N168      1.0  0.50606  0.01249  0.64659  1.0000
  C   C3064     1.0  0.52253  0.99484  0.65309  1.0000
  C   C3065     1.0  0.59404  0.02047  0.63976  1.0000
  C   C3066     1.0  0.59266  0.02653  0.64970  1.0000
  C   C3067     1.0  0.97371  0.21022  0.50032  1.0000
  S   S694      1.0  0.93817  0.07831  0.49521  1.0000
  H   H5449     1.0  0.58998  0.01888  0.61900  1.0000
  H   H5450     1.0  0.57485  0.02063  0.62566  1.0000
  C   C3068     1.0  0.50079  0.00447  0.64311  1.0000
  Fe  Fe357     1.0  0.64743  0.99566  0.52460  1.0000
  H   H5451     1.0  0.59822  0.02093  0.71365  1.0000
  H   H5452     1.0  0.59526  0.01876  0.69616  1.0000
  H   H5453     1.0  0.83467  0.02647  0.53192  1.0000
  C   C3069     1.0  0.97442  0.06688  0.51021  1.0000
  H   H5454     1.0  0.56176  0.00937  0.63499  1.0000
  H   H5455     1.0  0.60498  0.01608  0.54447  1.0000
  H   H5456     1.0  0.80285  0.01453  0.50284  1.0000
  C   C3070     1.0  0.95452  0.17492  0.49705  1.0000
  H   H5457     1.0  0.96558  0.06996  0.50817  1.0000
  H   H5458     1.0  0.61691  0.00887  0.71296  1.0000
  H   H5459     1.0  0.60328  0.01545  0.63784  1.0000
  H   H5460     1.0  0.59247  0.02746  0.63188  1.0000
  H   H5461     1.0  0.59907  0.03223  0.64707  1.0000
  H   H5462     1.0  0.58366  0.03215  0.65163  1.0000
  H   H5463     1.0  0.59430  0.01993  0.65782  1.0000
  H   H5464     1.0  0.97205  0.24256  0.51257  1.0000
  H   H5465     1.0  0.56265  0.00826  0.64978  1.0000
  H   H5466     1.0  0.59114  0.01173  0.54826  1.0000
  H   H5467     1.0  0.98307  0.07006  0.52216  1.0000
  S   S695      1.0  0.97993  0.16225  0.54350  1.0000
  S   S696      1.0  0.84521  0.00141  0.53588  1.0000
  H   H5468     1.0  0.78521  0.04103  0.54101  1.0000
  H   H5469     1.0  0.74948  0.05248  0.52620  1.0000
  H   H5470     1.0  0.70174  0.04239  0.50522  1.0000
  H   H5471     1.0  0.57374  0.00419  0.61748  1.0000
  Fe  Fe358     1.0  0.55657  0.05638  0.73765  1.0000
  C   C3071     1.0  0.59651  0.04248  0.70303  1.0000
  H   H5472     1.0  0.73382  0.06742  0.51761  1.0000
  H   H5473     1.0  0.76631  0.00546  0.49848  1.0000
  H   H5474     1.0  0.85356  0.02209  0.50100  1.0000
  H   H5475     1.0  0.51291  0.03728  0.60861  1.0000
  H   H5476     1.0  0.99438  0.18469  0.57867  1.0000
  S   S697      1.0  0.71926  0.00023  0.52066  1.0000
  H   H5477     1.0  0.52359  0.02378  0.61165  1.0000
  C   C3072     1.0  0.97189  0.23861  0.52202  1.0000
  H   H5478     1.0  0.79504  0.04407  0.52692  1.0000
  C   C3073     1.0  0.70203  0.04388  0.49570  1.0000
  H   H5479     1.0  0.76049  0.07008  0.50557  1.0000
  H   H5480     1.0  0.67042  0.99918  0.52728  1.0000
  H   H5481     1.0  0.80670  0.06250  0.52305  1.0000
  H   H5482     1.0  0.57191  0.00807  0.69149  1.0000
  C   C3074     1.0  0.92916  0.15082  0.51230  1.0000
  H   H5483     1.0  0.61611  0.02372  0.73022  1.0000
  H   H5484     1.0  0.50518  0.10845  0.67486  1.0000
  N   N169      1.0  0.93590  0.16941  0.51181  1.0000
  N   N170      1.0  0.59994  0.01872  0.73143  1.0000
  C   C3075     1.0  0.80456  0.02013  0.49419  1.0000
  C   C3076     1.0  0.80844  0.03037  0.49258  1.0000
  H   H5485     1.0  0.93168  0.23749  0.53751  1.0000
  C   C3077     1.0  0.90818  0.24079  0.52710  1.0000
  H   H5486     1.0  0.92534  0.13599  0.50857  1.0000
  N   N171      1.0  0.94973  0.23967  0.53200  1.0000
  H   H5487     1.0  0.78184  0.00467  0.49412  1.0000
  S   S698      1.0  0.95932  0.09548  0.49759  1.0000
  H   H5488     1.0  0.58509  0.02636  0.72314  1.0000
  H   H5489     1.0  0.92764  0.17729  0.52692  1.0000
  H   H5490     1.0  0.50792  0.09317  0.67448  1.0000
  H   H5491     1.0  0.77680  0.02961  0.49755  1.0000
  H   H5492     1.0  0.94494  0.18208  0.51265  1.0000
  C   C3078     1.0  0.49915  0.01595  0.73095  1.0000
  H   H5493     1.0  0.90766  0.08459  0.52822  1.0000
  C   C3079     1.0  0.59674  0.03833  0.71607  1.0000
  C   C3080     1.0  0.93914  0.15766  0.50845  1.0000
  H   H5494     1.0  0.52528  0.99665  0.74079  1.0000
  S   S699      1.0  0.99572  0.17107  0.51728  1.0000
  C   C3081     1.0  0.77472  0.05359  0.49387  1.0000
  H   H5495     1.0  0.65890  0.99516  0.55428  1.0000
  C   C3082     1.0  0.49615  0.02178  0.65153  1.0000
  S   S700      1.0  0.74386  0.00708  0.49246  1.0000
  H   H5496     1.0  0.78303  0.04682  0.49212  1.0000
  C   C3083     1.0  0.87366  0.99382  0.50289  1.0000
  H   H5497     1.0  0.49787  0.01211  0.72423  1.0000
  C   C3084     1.0  0.64056  0.99418  0.56033  1.0000
  C   C3085     1.0  0.59490  0.02579  0.74090  1.0000
  H   H5498     1.0  0.59154  0.19086  0.98112  1.0000
  H   H5499     1.0  0.63037  0.20645  0.95215  1.0000
  S   S701      1.0  0.54390  0.10719  0.95184  1.0000
  H   H5500     1.0  0.59763  0.02454  0.76923  1.0000
  Fe  Fe359     1.0  0.58966  0.18683  0.92907  1.0000
  S   S702      1.0  0.58470  0.17976  0.94853  1.0000
  H   H5501     1.0  0.56304  0.04887  0.87082  1.0000
  Fe  Fe360     1.0  0.57319  0.17591  0.92318  1.0000
  S   S703      1.0  0.56651  0.16775  0.94190  1.0000
  S   S704      1.0  0.56766  0.17608  0.90690  1.0000
  Fe  Fe361     1.0  0.56624  0.18483  0.94595  1.0000
  C   C3086     1.0  0.50088  0.11810  0.88953  1.0000
  Fe  Fe362     1.0  0.58529  0.16310  0.94356  1.0000
  S   S705      1.0  0.59146  0.14532  0.95459  1.0000
  H   H5502     1.0  0.55317  0.04653  0.78475  1.0000
  S   S706      1.0  0.59213  0.16957  0.92431  1.0000
  Fe  Fe363     1.0  0.53794  0.09708  0.91555  1.0000
  S   S707      1.0  0.55185  0.10372  0.91918  1.0000
  S   S708      1.0  0.54059  0.07940  0.91091  1.0000
  S   S709      1.0  0.53064  0.12653  0.92613  1.0000
  Fe  Fe364     1.0  0.54322  0.12151  0.91001  1.0000
  S   S710      1.0  0.55334  0.13425  0.89673  1.0000
  Fe  Fe365     1.0  0.53842  0.10832  0.93521  1.0000
  S   S711      1.0  0.53050  0.11451  0.90495  1.0000
  Fe  Fe366     1.0  0.52227  0.05494  0.86431  1.0000
  H   H5503     1.0  0.56490  0.10865  0.95858  1.0000
  S   S712      1.0  0.52521  0.07110  0.86827  1.0000
  Fe  Fe367     1.0  0.52988  0.04208  0.84401  1.0000
  S   S713      1.0  0.51541  0.03227  0.85107  1.0000
  S   S714      1.0  0.54364  0.03846  0.82771  1.0000
  H   H5504     1.0  0.53661  0.15938  0.96436  1.0000
  Fe  Fe368     1.0  0.51971  0.02949  0.86851  1.0000
  C   C3087     1.0  0.53846  0.02263  0.79837  1.0000
  S   S715      1.0  0.51803  0.05948  0.84641  1.0000
  S   S716      1.0  0.53527  0.03801  0.86123  1.0000
  H   H5505     1.0  0.59179  0.19822  0.86901  1.0000
  H   H5506     1.0  0.50015  0.08488  0.77937  1.0000
  H   H5507     1.0  0.53397  0.19946  0.98975  1.0000
  H   H5508     1.0  0.51835  0.17012  0.92408  1.0000
  C   C3088     1.0  0.53646  0.07718  0.89893  1.0000
  C   C3089     1.0  0.53514  0.06597  0.89917  1.0000
  C   C3090     1.0  0.53164  0.06392  0.88992  1.0000
  C   C3091     1.0  0.52952  0.07307  0.88027  1.0000
  H   H5509     1.0  0.53676  0.05884  0.90660  1.0000
  H   H5510     1.0  0.53062  0.05527  0.89025  1.0000
  C   C3092     1.0  0.59024  0.12596  0.93483  1.0000
  H   H5511     1.0  0.54536  0.10491  0.97553  1.0000
  C   C3093     1.0  0.53309  0.05746  0.81254  1.0000
  C   C3094     1.0  0.54140  0.04677  0.81379  1.0000
  C   C3095     1.0  0.54872  0.04297  0.80372  1.0000
  H   H5512     1.0  0.56769  0.13454  0.93279  1.0000
  H   H5513     1.0  0.55669  0.08498  0.83675  1.0000
  H   H5514     1.0  0.52746  0.06050  0.82025  1.0000
  H   H5515     1.0  0.55532  0.03483  0.80463  1.0000
  H   H5516     1.0  0.53282  0.01332  0.78919  1.0000
  C   C3096     1.0  0.53441  0.08629  0.88924  1.0000
  C   C3097     1.0  0.59680  0.14655  0.96611  1.0000
  C   C3098     1.0  0.60340  0.15487  0.96422  1.0000
  C   C3099     1.0  0.60743  0.15599  0.97350  1.0000
  C   C3100     1.0  0.50285  0.11890  0.97740  1.0000
  H   H5517     1.0  0.50384  0.07549  0.89386  1.0000
  C   C3101     1.0  0.59416  0.13940  0.97733  1.0000
  H   H5518     1.0  0.60559  0.16028  0.95554  1.0000
  H   H5519     1.0  0.61274  0.16226  0.97198  1.0000
  H   H5520     1.0  0.58591  0.21298  0.86182  1.0000
  H   H5521     1.0  0.51317  0.09412  0.91847  1.0000
  C   C3102     1.0  0.54027  0.18642  0.96316  1.0000
  C   C3103     1.0  0.54308  0.17442  0.96342  1.0000
  H   H5522     1.0  0.53366  0.20674  0.92611  1.0000
  H   H5523     1.0  0.55204  0.16966  0.96241  1.0000
  C   C3104     1.0  0.52264  0.17471  0.96573  1.0000
  C   C3105     1.0  0.56445  0.16356  0.90496  1.0000
  C   C3106     1.0  0.56621  0.16235  0.89344  1.0000
  C   C3107     1.0  0.56287  0.15324  0.89121  1.0000
  C   C3108     1.0  0.55750  0.14530  0.90043  1.0000
  C   C3109     1.0  0.55556  0.14649  0.91204  1.0000
  C   C3110     1.0  0.55922  0.15554  0.91433  1.0000
  H   H5524     1.0  0.57014  0.16855  0.88616  1.0000
  H   H5525     1.0  0.56436  0.15240  0.88223  1.0000
  H   H5526     1.0  0.55136  0.14041  0.91922  1.0000
  H   H5527     1.0  0.55766  0.15653  0.92325  1.0000
  H   H5528     1.0  0.59098  0.12494  0.91246  1.0000
  H   H5529     1.0  0.58276  0.04830  0.81185  1.0000
  H   H5530     1.0  0.54181  0.02103  0.80642  1.0000
  H   H5531     1.0  0.51948  0.14637  0.98184  1.0000
  C   C3111     1.0  0.52550  0.00104  0.86222  1.0000
  C   C3112     1.0  0.52007  0.00035  0.87410  1.0000
  H   H5532     1.0  0.49786  0.21280  0.90977  1.0000
  C   C3113     1.0  0.51538  0.03253  0.75384  1.0000
  C   C3114     1.0  0.59503  0.20302  0.88805  1.0000
  H   H5533     1.0  0.52905  0.00860  0.85718  1.0000
  C   C3115     1.0  0.53940  0.06037  0.79120  1.0000
  C   C3116     1.0  0.51000  0.07770  0.92950  1.0000
  C   C3117     1.0  0.52438  0.14182  0.94937  1.0000
  H   H5534     1.0  0.62136  0.22010  0.95454  1.0000
  H   H5535     1.0  0.59051  0.20781  0.95098  1.0000
  H   H5536     1.0  0.54491  0.00043  0.87472  1.0000
  H   H5537     1.0  0.60260  0.22720  0.95071  1.0000
  C   C3118     1.0  0.51126  0.19671  0.90840  1.0000
  C   C3119     1.0  0.54261  0.22520  0.97217  1.0000
  H   H5538     1.0  0.53742  0.22366  0.93188  1.0000
  H   H5539     1.0  0.58069  0.22991  0.96124  1.0000
  H   H5540     1.0  0.50500  0.09531  0.88449  1.0000
  C   C3120     1.0  0.57272  0.10270  0.95433  1.0000
  H   H5541     1.0  0.63125  0.17171  0.94216  1.0000
  H   H5542     1.0  0.57184  0.14005  0.94838  1.0000
  C   C3121     1.0  0.49691  0.10012  0.95390  1.0000
  H   H5543     1.0  0.49738  0.10469  0.94454  1.0000
  C   C3122     1.0  0.59524  0.02896  0.76063  1.0000
  C   C3123     1.0  0.50403  0.01315  0.83726  1.0000
  H   H5544     1.0  0.51000  0.00561  0.82157  1.0000
  H   H5545     1.0  0.51426  0.10277  0.89468  1.0000
  H   H5546     1.0  0.54690  0.07208  0.85048  1.0000
  C   C3124     1.0  0.50514  0.07620  0.77732  1.0000
  H   H5547     1.0  0.58846  0.13397  0.92781  1.0000
  C   C3125     1.0  0.58662  0.22349  0.87963  1.0000
  H   H5548     1.0  0.59260  0.22239  0.87099  1.0000
  H   H5549     1.0  0.61755  0.17881  0.93767  1.0000
  C   C3126     1.0  0.58146  0.11658  0.90615  1.0000
  N   N172      1.0  0.52400  0.23666  0.94025  1.0000
  H   H5550     1.0  0.57859  0.09476  0.97077  1.0000
  H   H5551     1.0  0.57539  0.13041  0.91556  1.0000
  H   H5552     1.0  0.52750  0.14313  0.89948  1.0000
  H   H5553     1.0  0.57749  0.09339  0.82388  1.0000
  H   H5554     1.0  0.56380  0.04776  0.85081  1.0000
  H   H5555     1.0  0.57878  0.22859  0.94749  1.0000
  C   C3127     1.0  0.61161  0.12726  0.92743  1.0000
  H   H5556     1.0  0.50692  0.14109  0.93051  1.0000
  S   S717      1.0  0.56917  0.01775  0.76419  1.0000
  H   H5557     1.0  0.50547  0.05406  0.77450  1.0000
  H   H5558     1.0  0.58232  0.12282  0.89747  1.0000
  H   H5559     1.0  0.50615  0.13328  0.98293  1.0000
  C   C3128     1.0  0.55605  0.99778  0.75195  1.0000
  H   H5560     1.0  0.52610  0.07279  0.80033  1.0000
  C   C3129     1.0  0.50167  0.12588  0.98674  1.0000
  H   H5561     1.0  0.54493  0.99414  0.77830  1.0000
  H   H5562     1.0  0.53548  0.23325  0.97273  1.0000
  C   C3130     1.0  0.49690  0.07597  0.81523  1.0000
  H   H5563     1.0  0.50608  0.18040  0.91198  1.0000
  H   H5564     1.0  0.50291  0.07275  0.93301  1.0000
  C   C3131     1.0  0.54933  0.00259  0.79397  1.0000
  H   H5565     1.0  0.49737  0.03684  0.75245  1.0000
  H   H5566     1.0  0.53942  0.09140  0.83163  1.0000
  H   H5567     1.0  0.51769  0.20175  0.90227  1.0000
  H   H5568     1.0  0.62019  0.20240  0.98445  1.0000
  C   C3132     1.0  0.50502  0.10679  0.89854  1.0000
  H   H5569     1.0  0.52902  0.09200  0.81652  1.0000
  C   C3133     1.0  0.61069  0.23100  0.97873  1.0000
  C   C3134     1.0  0.58706  0.23108  0.92090  1.0000
  C   C3135     1.0  0.50101  0.11768  0.95827  1.0000
  C   C3136     1.0  0.52560  0.08835  0.82596  1.0000
  C   C3137     1.0  0.55767  0.00728  0.75520  1.0000
  H   H5570     1.0  0.59994  0.22371  0.93863  1.0000
  H   H5571     1.0  0.49616  0.16062  0.93521  1.0000
  C   C3138     1.0  0.57095  0.11672  0.98570  1.0000
  H   H5572     1.0  0.58558  0.03259  0.76229  1.0000
  H   H5573     1.0  0.60148  0.20316  0.87946  1.0000
  H   H5574     1.0  0.50775  0.16313  0.90823  1.0000
  H   H5575     1.0  0.50732  0.02141  0.81856  1.0000
  H   H5576     1.0  0.50572  0.07144  0.81706  1.0000
  H   H5577     1.0  0.49768  0.20602  0.89842  1.0000
  H   H5578     1.0  0.55986  0.08781  0.81358  1.0000
  H   H5579     1.0  0.63186  0.19590  0.97353  1.0000
  C   C3139     1.0  0.62099  0.21108  0.95454  1.0000
  H   H5580     1.0  0.61824  0.21489  0.92652  1.0000
  C   C3140     1.0  0.55483  0.20798  0.98409  1.0000
  H   H5581     1.0  0.51220  0.07951  0.93701  1.0000
  H   H5582     1.0  0.50496  0.02111  0.83933  1.0000
  C   C3141     1.0  0.60550  0.23101  0.90652  1.0000
  C   C3142     1.0  0.53555  0.08387  0.83258  1.0000
  H   H5583     1.0  0.50845  0.00538  0.84298  1.0000
  H   H5584     1.0  0.58508  0.02782  0.74288  1.0000
  H   H5585     1.0  0.61591  0.21402  0.90380  1.0000
  C   C3143     1.0  0.59774  0.14090  0.98676  1.0000
  H   H5586     1.0  0.51977  0.22269  0.96288  1.0000
  H   H5587     1.0  0.54926  0.00133  0.88736  1.0000
  N   N173      1.0  0.52500  0.17644  0.90539  1.0000
  C   C3144     1.0  0.53483  0.18239  0.89801  1.0000
  C   C3145     1.0  0.52685  0.17127  0.91780  1.0000
  C   C3146     1.0  0.52555  0.16642  0.90001  1.0000
  H   H5588     1.0  0.51895  0.15383  0.91586  1.0000
  S   S718      1.0  0.60352  0.19711  0.91927  1.0000
  C   C3147     1.0  0.53462  0.18743  0.88484  1.0000
  C   C3148     1.0  0.56665  0.08487  0.81885  1.0000
  C   C3149     1.0  0.53287  0.17786  0.92282  1.0000
  C   C3150     1.0  0.53259  0.17264  0.93583  1.0000
  C   C3151     1.0  0.51706  0.15819  0.90706  1.0000
  C   C3152     1.0  0.54426  0.19430  0.87875  1.0000
  H   H5589     1.0  0.51884  0.09541  0.82980  1.0000
  H   H5590     1.0  0.54343  0.17605  0.89838  1.0000
  H   H5591     1.0  0.53513  0.18970  0.90162  1.0000
  H   H5592     1.0  0.61164  0.23573  0.89998  1.0000
  H   H5593     1.0  0.53261  0.16225  0.91840  1.0000
  H   H5594     1.0  0.53466  0.16082  0.89867  1.0000
  S   S719      1.0  0.49922  0.12406  0.92324  1.0000
  C   C3153     1.0  0.57606  0.20033  0.86336  1.0000
  H   H5595     1.0  0.57104  0.04049  0.81580  1.0000
  H   H5596     1.0  0.50716  0.02488  0.79425  1.0000
  C   C3154     1.0  0.55830  0.22339  0.91182  1.0000
  H   H5597     1.0  0.53633  0.18023  0.88019  1.0000
  C   C3155     1.0  0.51625  0.14813  0.99084  1.0000
  H   H5598     1.0  0.56787  0.06736  0.80897  1.0000
  H   H5599     1.0  0.57840  0.11753  0.98877  1.0000
  H   H5600     1.0  0.54225  0.17709  0.91819  1.0000
  H   H5601     1.0  0.52868  0.18730  0.92185  1.0000
  H   H5602     1.0  0.52336  0.17388  0.94094  1.0000
  H   H5603     1.0  0.53683  0.16312  0.93730  1.0000
  H   H5604     1.0  0.53739  0.17718  0.93905  1.0000
  H   H5605     1.0  0.58995  0.12935  0.94252  1.0000
  H   H5606     1.0  0.63096  0.21111  0.93237  1.0000
  C   C3156     1.0  0.50541  0.07735  0.76424  1.0000
  C   C3157     1.0  0.50137  0.02054  0.76486  1.0000
  H   H5607     1.0  0.55304  0.18854  0.87960  1.0000
  C   C3158     1.0  0.50177  0.22989  0.97013  1.0000
  C   C3159     1.0  0.56218  0.07831  0.83154  1.0000
  H   H5608     1.0  0.51220  0.11415  0.97516  1.0000
  Fe  Fe369     1.0  0.55736  0.03482  0.75754  1.0000
  H   H5609     1.0  0.58913  0.13291  0.97878  1.0000
  C   C3160     1.0  0.59190  0.21428  0.95507  1.0000
  H   H5610     1.0  0.49665  0.01332  0.85944  1.0000
  H   H5611     1.0  0.52603  0.19343  0.88376  1.0000
  C   C3161     1.0  0.50451  0.04370  0.79232  1.0000
  H   H5612     1.0  0.57451  0.11414  0.97708  1.0000
  H   H5613     1.0  0.58956  0.18688  0.88869  1.0000
  H   H5614     1.0  0.51653  0.21373  0.94838  1.0000
  H   H5615     1.0  0.54275  0.20198  0.88267  1.0000
  H   H5616     1.0  0.56279  0.21175  0.98048  1.0000
  H   H5617     1.0  0.50298  0.08405  0.79723  1.0000
  C   C3162     1.0  0.53231  0.06438  0.80127  1.0000
  H   H5618     1.0  0.58856  0.18949  0.90283  1.0000
  C   C3163     1.0  0.50693  0.05482  0.78283  1.0000
  C   C3164     1.0  0.52212  0.21616  0.93949  1.0000
  Fe  Fe370     1.0  0.54431  0.05845  0.76297  1.0000
  H   H5619     1.0  0.58313  0.21398  0.92929  1.0000
  H   H5620     1.0  0.61321  0.23515  0.93053  1.0000
  H   H5621     1.0  0.59467  0.01262  0.75765  1.0000
  C   C3165     1.0  0.58042  0.22365  0.95627  1.0000
  C   C3166     1.0  0.58359  0.20506  0.86830  1.0000
  H   H5622     1.0  0.51833  0.12194  0.88228  1.0000
  H   H5623     1.0  0.50235  0.14027  0.95187  1.0000
  H   H5624     1.0  0.56616  0.13498  0.97759  1.0000
  H   H5625     1.0  0.52979  0.02894  0.79940  1.0000
  H   H5626     1.0  0.50570  0.09455  0.95495  1.0000
  H   H5627     1.0  0.54463  0.02664  0.79065  1.0000
  C   C3167     1.0  0.50514  0.13563  0.96022  1.0000
  H   H5628     1.0  0.55480  0.00343  0.79947  1.0000
  H   H5629     1.0  0.52349  0.16980  0.89116  1.0000
  C   C3168     1.0  0.62468  0.20372  0.97503  1.0000
  N   N174      1.0  0.55565  0.06895  0.83302  1.0000
  H   H5630     1.0  0.52619  0.20160  0.96549  1.0000
  C   C3169     1.0  0.64431  0.15885  0.97333  1.0000
  H   H5631     1.0  0.57238  0.19011  0.97712  1.0000
  S   S720      1.0  0.50564  0.00294  0.78379  1.0000
  C   C3170     1.0  0.56094  0.05662  0.85290  1.0000
  H   H5632     1.0  0.57398  0.19204  0.86930  1.0000
  H   H5633     1.0  0.55366  0.00617  0.78477  1.0000
  C   C3171     1.0  0.54423  0.21874  0.98451  1.0000
  H   H5634     1.0  0.49796  0.11184  0.98195  1.0000
  H   H5635     1.0  0.53627  0.20033  0.94071  1.0000
  C   C3172     1.0  0.61348  0.19936  0.94555  1.0000
  H   H5636     1.0  0.56853  0.08786  0.96820  1.0000
  H   H5637     1.0  0.51428  0.07529  0.77803  1.0000
  H   H5638     1.0  0.52611  0.09350  0.95779  1.0000
  H   H5639     1.0  0.55656  0.05951  0.81282  1.0000
  H   H5640     1.0  0.55400  0.06356  0.86885  1.0000
  H   H5641     1.0  0.51028  0.06913  0.76120  1.0000
  H   H5642     1.0  0.62869  0.21141  0.97287  1.0000
  C   C3173     1.0  0.52788  0.09402  0.96583  1.0000
  H   H5643     1.0  0.57084  0.14746  0.98813  1.0000
  H   H5644     1.0  0.57453  0.07909  0.81446  1.0000
  H   H5645     1.0  0.53381  0.13831  0.94573  1.0000
  H   H5646     1.0  0.55732  0.23947  0.97918  1.0000
  H   H5647     1.0  0.53283  0.02582  0.75685  1.0000
  H   H5648     1.0  0.64484  0.16324  0.96392  1.0000
  H   H5649     1.0  0.57010  0.07451  0.83534  1.0000
  C   C3174     1.0  0.57623  0.21300  0.89874  1.0000
  C   C3175     1.0  0.52143  0.01431  0.76735  1.0000
  H   H5650     1.0  0.60771  0.21181  0.97090  1.0000
  C   C3176     1.0  0.58241  0.12232  0.91543  1.0000
  C   C3177     1.0  0.56502  0.05939  0.81462  1.0000
  H   H5651     1.0  0.57405  0.10012  0.80967  1.0000
  H   H5652     1.0  0.51811  0.03143  0.78289  1.0000
  H   H5653     1.0  0.52348  0.19882  0.93708  1.0000
  H   H5654     1.0  0.51060  0.19122  0.96784  1.0000
  S   S721      1.0  0.51232  0.16749  0.96519  1.0000
  H   H5655     1.0  0.56772  0.20688  0.86228  1.0000
  S   S722      1.0  0.50714  0.04605  0.87308  1.0000
  H   H5656     1.0  0.60563  0.11221  0.93896  1.0000
  C   C3178     1.0  0.59984  0.21254  0.91682  1.0000
  H   H5657     1.0  0.55082  0.22781  0.96662  1.0000
  H   H5658     1.0  0.56290  0.10220  0.82279  1.0000
  C   C3179     1.0  0.53093  0.08424  0.87999  1.0000
  H   H5659     1.0  0.50270  0.14257  0.96538  1.0000
  H   H5660     1.0  0.50831  0.15542  0.99088  1.0000
  H   H5661     1.0  0.54421  0.19754  0.86926  1.0000
  H   H5662     1.0  0.54052  0.06643  0.82899  1.0000
  C   C3180     1.0  0.61587  0.20567  0.96746  1.0000
  C   C3181     1.0  0.56538  0.22351  0.89921  1.0000
  C   C3182     1.0  0.58639  0.23408  0.98210  1.0000
  H   H5663     1.0  0.51167  0.08771  0.74706  1.0000
  N   N175      1.0  0.61452  0.21146  0.94550  1.0000
  H   H5664     1.0  0.58363  0.08547  0.96013  1.0000
  H   H5665     1.0  0.58160  0.21346  0.90458  1.0000
  H   H5666     1.0  0.54920  0.23407  0.93365  1.0000
  C   C3183     1.0  0.52847  0.19237  0.96535  1.0000
  H   H5667     1.0  0.57195  0.17719  0.98888  1.0000
  H   H5668     1.0  0.63934  0.22763  0.91873  1.0000
  Fe  Fe371     1.0  0.50399  0.04930  0.85500  1.0000
  C   C3184     1.0  0.55139  0.06456  0.84610  1.0000
  C   C3185     1.0  0.50861  0.03274  0.78717  1.0000
  H   H5669     1.0  0.51012  0.11221  0.95760  1.0000
  H   H5670     1.0  0.61089  0.13160  0.93463  1.0000
  H   H5671     1.0  0.58852  0.10849  0.90544  1.0000
  S   S723      1.0  0.53899  0.04131  0.76722  1.0000
  C   C3186     1.0  0.62207  0.22933  0.93076  1.0000
  H   H5672     1.0  0.54842  0.99877  0.74867  1.0000
  H   H5673     1.0  0.49807  0.09445  0.92619  1.0000
  H   H5674     1.0  0.55264  0.15262  0.97802  1.0000
  H   H5675     1.0  0.49869  0.08007  0.91322  1.0000
  C   C3187     1.0  0.51370  0.23145  0.96222  1.0000
  H   H5676     1.0  0.56332  0.17242  0.97413  1.0000
  C   C3188     1.0  0.55624  0.05501  0.86619  1.0000
  C   C3189     1.0  0.58138  0.11384  0.92772  1.0000
  C   C3190     1.0  0.51874  0.13167  0.95703  1.0000
  C   C3191     1.0  0.56358  0.05862  0.82793  1.0000
  H   H5677     1.0  0.53945  0.14106  0.98373  1.0000
  H   H5678     1.0  0.52134  0.08116  0.82667  1.0000
  C   C3192     1.0  0.59884  0.02011  0.75274  1.0000
  H   H5679     1.0  0.59938  0.20539  0.89371  1.0000
  H   H5680     1.0  0.54742  0.07685  0.81806  1.0000
  H   H5681     1.0  0.51516  0.08409  0.97708  1.0000
  H   H5682     1.0  0.60853  0.20008  0.93889  1.0000
  C   C3193     1.0  0.51964  0.18653  0.96650  1.0000
  H   H5683     1.0  0.53126  0.00734  0.80471  1.0000
  C   C3194     1.0  0.56916  0.16351  0.97543  1.0000
  C   C3195     1.0  0.52173  0.08865  0.97675  1.0000
  H   H5684     1.0  0.57020  0.09956  0.94786  1.0000
  C   C3196     1.0  0.56676  0.13311  0.95095  1.0000
  C   C3197     1.0  0.55381  0.13895  0.95462  1.0000
  C   C3198     1.0  0.53635  0.09997  0.96535  1.0000
  S   S724      1.0  0.55155  0.19410  0.95863  1.0000
  C   C3199     1.0  0.50989  0.01283  0.77077  1.0000
  C   C3200     1.0  0.56730  0.00597  0.75988  1.0000
  H   H5685     1.0  0.56182  0.12260  0.94195  1.0000
  S   S725      1.0  0.57112  0.19354  0.92697  1.0000
  C   C3201     1.0  0.63686  0.16753  0.98104  1.0000
  H   H5686     1.0  0.56938  0.12674  0.95875  1.0000
  H   H5687     1.0  0.64023  0.15122  0.97524  1.0000
  H   H5688     1.0  0.54838  0.13224  0.95793  1.0000
  H   H5689     1.0  0.55268  0.14344  0.96178  1.0000
  H   H5690     1.0  0.55076  0.14560  0.94710  1.0000
  C   C3202     1.0  0.53432  0.16855  0.96472  1.0000
  C   C3203     1.0  0.52413  0.02425  0.75896  1.0000
  H   H5691     1.0  0.52377  0.14812  0.95469  1.0000
  H   H5692     1.0  0.52151  0.12468  0.95199  1.0000
  H   H5693     1.0  0.60851  0.01684  0.75134  1.0000
  H   H5694     1.0  0.59335  0.20979  0.96398  1.0000
  C   C3204     1.0  0.51837  0.14855  0.90066  1.0000
  H   H5695     1.0  0.52806  0.00834  0.77180  1.0000
  C   C3205     1.0  0.62165  0.21615  0.93355  1.0000
  H   H5696     1.0  0.57337  0.11037  0.92941  1.0000
  C   C3206     1.0  0.52938  0.20482  0.93560  1.0000
  C   C3207     1.0  0.50601  0.08930  0.92118  1.0000
  H   H5697     1.0  0.55140  0.01555  0.75425  1.0000
  C   C3208     1.0  0.62518  0.19015  0.94305  1.0000
  H   H5698     1.0  0.61384  0.19706  0.96856  1.0000
  C   C3209     1.0  0.57682  0.20816  0.88034  1.0000
  H   H5699     1.0  0.60816  0.19544  0.95401  1.0000
  C   C3210     1.0  0.57614  0.09206  0.96394  1.0000
  C   C3211     1.0  0.54496  0.07369  0.82771  1.0000
  H   H5700     1.0  0.51200  0.19559  0.91752  1.0000
  C   C3212     1.0  0.59196  0.22787  0.99133  1.0000
  C   C3213     1.0  0.54756  0.04961  0.79246  1.0000
  H   H5701     1.0  0.56392  0.22367  0.91748  1.0000
  H   H5702     1.0  0.63061  0.18898  0.94941  1.0000
  S   S726      1.0  0.51902  0.01176  0.88094  1.0000
  C   C3214     1.0  0.62280  0.17818  0.94406  1.0000
  C   C3215     1.0  0.57050  0.09580  0.81885  1.0000
  H   H5703     1.0  0.61149  0.18212  0.88500  1.0000
  C   C3216     1.0  0.58292  0.10913  0.94831  1.0000
  H   H5704     1.0  0.57251  0.05672  0.82969  1.0000
  N   N176      1.0  0.58090  0.11904  0.93784  1.0000
  S   S727      1.0  0.53801  0.06892  0.77713  1.0000
  C   C3217     1.0  0.53716  0.01113  0.79667  1.0000
  H   H5705     1.0  0.62079  0.12213  0.92518  1.0000
  C   C3218     1.0  0.53007  0.22402  0.93978  1.0000
  H   H5706     1.0  0.55481  0.12688  0.98122  1.0000
  H   H5707     1.0  0.54459  0.05942  0.84776  1.0000
  C   C3219     1.0  0.56899  0.12720  0.94049  1.0000
  H   H5708     1.0  0.61793  0.17492  0.95308  1.0000
  C   C3220     1.0  0.60245  0.21967  0.94725  1.0000
  H   H5709     1.0  0.53439  0.21963  0.94732  1.0000
  Fe  Fe372     1.0  0.53468  0.04732  0.74939  1.0000
  H   H5710     1.0  0.54013  0.21948  0.96799  1.0000
  H   H5711     1.0  0.63032  0.19276  0.93399  1.0000
  H   H5712     1.0  0.58886  0.10607  0.92697  1.0000
  H   H5713     1.0  0.60970  0.13412  0.91956  1.0000
  H   H5714     1.0  0.56009  0.05055  0.83241  1.0000
  H   H5715     1.0  0.51228  0.08319  0.90498  1.0000
  H   H5716     1.0  0.51138  0.06317  0.79808  1.0000
  S   S728      1.0  0.52531  0.10008  0.93261  1.0000
  H   H5717     1.0  0.52238  0.12826  0.96506  1.0000
  H   H5718     1.0  0.54827  0.05131  0.86902  1.0000
  H   H5719     1.0  0.50937  0.12929  0.89401  1.0000
  H   H5720     1.0  0.57297  0.21938  0.96104  1.0000
  C   C3221     1.0  0.60310  0.11906  0.93133  1.0000
  C   C3222     1.0  0.57391  0.04871  0.81068  1.0000
  H   H5721     1.0  0.51799  0.07220  0.92487  1.0000
  C   C3223     1.0  0.59520  0.23723  0.91273  1.0000
  N   N177      1.0  0.58369  0.21193  0.88667  1.0000
  C   C3224     1.0  0.55206  0.15385  0.98692  1.0000
  C   C3225     1.0  0.50363  0.08713  0.91017  1.0000
  S   S729      1.0  0.56309  0.05162  0.75434  1.0000
  H   H5722     1.0  0.51619  0.22069  0.93336  1.0000
  H   H5723     1.0  0.55465  0.20357  0.97726  1.0000
  H   H5724     1.0  0.57315  0.20050  0.88602  1.0000
  H   H5725     1.0  0.62552  0.23128  0.93734  1.0000
  C   C3226     1.0  0.59291  0.23930  0.97139  1.0000
  C   C3227     1.0  0.60591  0.18188  0.89402  1.0000
  H   H5726     1.0  0.53154  0.08087  0.84200  1.0000
  Fe  Fe373     1.0  0.51869  0.11791  0.92211  1.0000
  H   H5727     1.0  0.57275  0.11433  0.90837  1.0000
  H   H5728     1.0  0.53560  0.09489  0.88884  1.0000
  H   H5729     1.0  0.51065  0.18632  0.89684  1.0000
  H   H5730     1.0  0.59089  0.10232  0.94570  1.0000
  H   H5731     1.0  0.58494  0.11225  0.95515  1.0000
  H   H5732     1.0  0.56881  0.06034  0.85064  1.0000
  C   C3228     1.0  0.50926  0.12637  0.88616  1.0000
  H   H5733     1.0  0.60434  0.11470  0.92404  1.0000
  C   C3229     1.0  0.53878  0.10036  0.97583  1.0000
  H   H5734     1.0  0.51656  0.05433  0.78104  1.0000
  H   H5735     1.0  0.52011  0.14650  0.94188  1.0000
  H   H5736     1.0  0.57450  0.04935  0.80124  1.0000
  C   C3230     1.0  0.56415  0.15576  0.98696  1.0000
  C   C3231     1.0  0.60445  0.14916  0.98481  1.0000
  H   H5737     1.0  0.56898  0.21523  0.87864  1.0000
  H   H5738     1.0  0.63020  0.23635  0.98863  1.0000
  H   H5739     1.0  0.60483  0.17274  0.89798  1.0000
  H   H5740     1.0  0.60193  0.22385  0.88562  1.0000
  S   S730      1.0  0.51829  0.04598  0.74533  1.0000
  C   C3232     1.0  0.60784  0.21873  0.90860  1.0000
  H   H5741     1.0  0.52940  0.09136  0.87253  1.0000
  H   H5742     1.0  0.57030  0.15949  0.96791  1.0000
  C   C3233     1.0  0.58938  0.21871  0.92295  1.0000
  H   H5743     1.0  0.62007  0.22985  0.97746  1.0000
  C   C3234     1.0  0.51301  0.18463  0.90547  1.0000
  C   C3235     1.0  0.52130  0.24290  0.92837  1.0000
  H   H5744     1.0  0.61042  0.18436  0.89943  1.0000
  C   C3236     1.0  0.59384  0.19016  0.89368  1.0000
  H   H5745     1.0  0.54555  0.16225  0.98769  1.0000
  H   H5746     1.0  0.57794  0.16438  0.97560  1.0000
  C   C3237     1.0  0.56183  0.12836  0.98441  1.0000
  H   H5747     1.0  0.50626  0.13428  0.87957  1.0000
  H   H5748     1.0  0.50352  0.03362  0.78059  1.0000
  H   H5749     1.0  0.55466  0.21537  0.91545  1.0000
  H   H5750     1.0  0.55280  0.18525  0.98935  1.0000
  C   C3238     1.0  0.60505  0.23783  0.96975  1.0000
  C   C3239     1.0  0.51074  0.01316  0.82453  1.0000
  H   H5751     1.0  0.52019  0.01260  0.82383  1.0000
  H   H5752     1.0  0.58297  0.99417  0.76469  1.0000
  H   H5753     1.0  0.58096  0.19842  0.85462  1.0000
  H   H5754     1.0  0.53583  0.21639  0.98957  1.0000
  H   H5755     1.0  0.57281  0.20491  0.90306  1.0000
  H   H5756     1.0  0.51438  0.23957  0.92682  1.0000
  C   C3240     1.0  0.52417  0.08903  0.98724  1.0000
  H   H5757     1.0  0.50543  0.10983  0.90620  1.0000
  C   C3241     1.0  0.50412  0.03045  0.75641  1.0000
  H   H5758     1.0  0.59860  0.00241  0.74433  1.0000
  H   H5759     1.0  0.56020  0.99548  0.87563  1.0000
  H   H5760     1.0  0.51613  0.15242  0.89193  1.0000
  C   C3242     1.0  0.55099  0.99595  0.88075  1.0000
  H   H5761     1.0  0.50076  0.12263  0.94909  1.0000
  H   H5762     1.0  0.52910  0.24092  0.92118  1.0000
  H   H5763     1.0  0.50052  0.11599  0.88134  1.0000
  C   C3243     1.0  0.50186  0.06614  0.79796  1.0000
  H   H5764     1.0  0.62712  0.23104  0.91172  1.0000
  H   H5765     1.0  0.59981  0.03631  0.75651  1.0000
  H   H5766     1.0  0.51702  0.23708  0.96574  1.0000
  C   C3244     1.0  0.53275  0.09486  0.98675  1.0000
  H   H5767     1.0  0.59204  0.17780  0.97661  1.0000
  C   C3245     1.0  0.49792  0.14459  0.92971  1.0000
  C   C3246     1.0  0.59287  0.22915  0.88539  1.0000
  S   S731      1.0  0.53835  0.06508  0.74590  1.0000
  H   H5768     1.0  0.51232  0.14270  0.90589  1.0000
  C   C3247     1.0  0.58814  0.18273  0.98376  1.0000
  N   N178      1.0  0.49865  0.12593  0.96640  1.0000
  N   N179      1.0  0.50005  0.06639  0.78607  1.0000
  H   H5769     1.0  0.64107  0.17509  0.97882  1.0000
  C   C3248     1.0  0.51152  0.08711  0.75639  1.0000
  H   H5770     1.0  0.50637  0.23364  0.94713  1.0000
  H   H5771     1.0  0.49909  0.04307  0.83398  1.0000
  N   N180      1.0  0.49756  0.09777  0.90239  1.0000
  H   H5772     1.0  0.50274  0.22592  0.97931  1.0000
  H   H5773     1.0  0.65337  0.15565  0.97488  1.0000
  H   H5774     1.0  0.57307  0.99523  0.78607  1.0000
  H   H5775     1.0  0.50930  0.04222  0.79934  1.0000
  H   H5776     1.0  0.62812  0.17059  0.97872  1.0000
  H   H5777     1.0  0.50674  0.09572  0.75868  1.0000
  C   C3249     1.0  0.51259  0.23736  0.94939  1.0000
  S   S732      1.0  0.49616  0.18644  0.93940  1.0000
  C   C3250     1.0  0.60417  0.22587  0.98944  1.0000
  H   H5778     1.0  0.52074  0.08518  0.75736  1.0000
  H   H5779     1.0  0.53236  0.99472  0.79025  1.0000
  C   C3251     1.0  0.57541  0.99517  0.76120  1.0000
  H   H5780     1.0  0.57894  0.23590  0.92549  1.0000
  H   H5781     1.0  0.57858  0.22997  0.87743  1.0000
  H   H5782     1.0  0.53419  0.23729  0.95188  1.0000
  H   H5783     1.0  0.61977  0.18216  0.99086  1.0000
  C   C3252     1.0  0.63015  0.23271  0.91878  1.0000
  C   C3253     1.0  0.49897  0.20425  0.90749  1.0000
  C   C3254     1.0  0.57474  0.18565  0.98572  1.0000
  H   H5784     1.0  0.54565  0.22503  0.98877  1.0000
  H   H5785     1.0  0.49753  0.05955  0.80488  1.0000
  H   H5786     1.0  0.57696  0.23552  0.98348  1.0000
  H   H5787     1.0  0.51203  0.23825  0.98719  1.0000
  H   H5788     1.0  0.55086  0.23122  0.91192  1.0000
  H   H5789     1.0  0.56807  0.23204  0.89583  1.0000
  H   H5790     1.0  0.49955  0.08312  0.87372  1.0000
  H   H5791     1.0  0.58809  0.22981  0.89450  1.0000
  H   H5792     1.0  0.55942  0.22319  0.89395  1.0000
  H   H5793     1.0  0.52702  0.16014  0.98912  1.0000
  H   H5794     1.0  0.49836  0.22392  0.96714  1.0000
  C   C3255     1.0  0.54386  0.24300  0.93446  1.0000
  H   H5795     1.0  0.64219  0.24098  0.97717  1.0000
  Fe  Fe374     1.0  0.49708  0.17980  0.95833  1.0000
  C   C3256     1.0  0.49714  0.07789  0.80218  1.0000
  C   C3257     1.0  0.59383  0.24156  0.87846  1.0000
  H   H5796     1.0  0.59891  0.24143  0.86930  1.0000
  C   C3258     1.0  0.49681  0.09456  0.89146  1.0000
  C   C3259     1.0  0.53194  0.24228  0.94336  1.0000
  H   H5797     1.0  0.49632  0.07976  0.76286  1.0000
  H   H5798     1.0  0.63007  0.24221  0.91684  1.0000
  H   H5799     1.0  0.59094  0.17709  0.99186  1.0000
  H   H5800     1.0  0.83196  0.47278  0.01503  1.0000
  H   H5801     1.0  0.55427  0.41358  0.99293  1.0000
  C   C3260     1.0  0.81675  0.44270  0.09267  1.0000
  H   H5802     1.0  0.66415  0.40908  0.12798  1.0000
  C   C3261     1.0  0.75292  0.45149  0.03683  1.0000
  H   H5803     1.0  0.79378  0.47005  0.99815  1.0000
  C   C3262     1.0  0.91866  0.49015  0.04744  1.0000
  H   H5804     1.0  0.84298  0.47162  0.10316  1.0000
  C   C3263     1.0  0.78445  0.46520  0.09049  1.0000
  Fe  Fe375     1.0  0.65052  0.40630  0.01263  1.0000
  S   S733      1.0  0.66527  0.41482  0.00159  1.0000
  S   S734      1.0  0.64606  0.40351  0.03243  1.0000
  C   C3264     1.0  0.59768  0.28227  0.07652  1.0000
  C   C3265     1.0  0.83679  0.46917  0.02210  1.0000
  H   H5805     1.0  0.71949  0.47465  0.08984  1.0000
  C   C3266     1.0  0.62000  0.36198  0.99355  1.0000
  S   S735      1.0  0.63739  0.41691  0.00155  1.0000
  S   S736      1.0  0.65582  0.39109  0.00368  1.0000
  C   C3267     1.0  0.93181  0.48272  0.99238  1.0000
  C   C3268     1.0  0.56398  0.26496  0.05380  1.0000
  H   H5806     1.0  0.78163  0.48863  0.00931  1.0000
  H   H5807     1.0  0.60858  0.28027  0.05959  1.0000
  Fe  Fe376     1.0  0.94834  0.44780  0.22989  1.0000
  H   H5808     1.0  0.84924  0.47490  0.08096  1.0000
  C   C3269     1.0  0.68618  0.47100  0.05511  1.0000
  H   H5809     1.0  0.93567  0.46418  0.01089  1.0000
  H   H5810     1.0  0.94891  0.42489  0.18489  1.0000
  H   H5811     1.0  0.80942  0.47176  0.01459  1.0000
  H   H5812     1.0  0.60020  0.28269  0.03071  1.0000
  C   C3270     1.0  0.98781  0.43769  0.19308  1.0000
  H   H5813     1.0  0.84994  0.46316  0.06378  1.0000
  Fe  Fe377     1.0  0.71755  0.41995  0.05673  1.0000
  S   S737      1.0  0.72704  0.42014  0.03806  1.0000
  S   S738      1.0  0.72673  0.41954  0.07071  1.0000
  Fe  Fe378     1.0  0.69448  0.41849  0.05203  1.0000
  S   S739      1.0  0.70245  0.41849  0.03307  1.0000
  S   S740      1.0  0.67561  0.41728  0.06019  1.0000
  Fe  Fe379     1.0  0.71789  0.40605  0.03952  1.0000
  S   S741      1.0  0.72692  0.38909  0.03393  1.0000
  Fe  Fe380     1.0  0.71057  0.43255  0.03374  1.0000
  S   S742      1.0  0.71014  0.44817  0.01889  1.0000
  S   S743      1.0  0.70945  0.40493  0.05854  1.0000
  S   S744      1.0  0.70151  0.43362  0.05231  1.0000
  H   H5814     1.0  0.99258  0.47159  0.18648  1.0000
  S   S745      1.0  0.73909  0.48387  0.01820  1.0000
  C   C3271     1.0  0.59346  0.27348  0.01465  1.0000
  H   H5815     1.0  0.75094  0.46004  0.03063  1.0000
  H   H5816     1.0  0.92581  0.45492  0.11975  1.0000
  H   H5817     1.0  0.87829  0.46329  0.00023  1.0000
  H   H5818     1.0  0.50386  0.34443  0.02800  1.0000
  H   H5819     1.0  0.60311  0.28757  0.07782  1.0000
  H   H5820     1.0  0.67405  0.45674  0.99436  1.0000
  H   H5821     1.0  0.62255  0.36080  0.01073  1.0000
  C   C3272     1.0  0.91638  0.43267  0.09586  1.0000
  H   H5822     1.0  0.90630  0.45280  0.19010  1.0000
  H   H5823     1.0  0.54492  0.33685  0.99792  1.0000
  N   N181      1.0  0.56048  0.26519  0.99364  1.0000
  C   C3273     1.0  0.98511  0.46943  0.15627  1.0000
  H   H5824     1.0  0.63063  0.37873  0.00483  1.0000
  H   H5825     1.0  0.85438  0.43352  0.00493  1.0000
  H   H5826     1.0  0.58190  0.25539  0.05097  1.0000
  Fe  Fe381     1.0  0.79319  0.43949  0.06502  1.0000
  S   S746      1.0  0.80389  0.42118  0.06970  1.0000
  S   S747      1.0  0.78374  0.44847  0.07999  1.0000
  Fe  Fe382     1.0  0.79556  0.43751  0.03986  1.0000
  S   S748      1.0  0.80670  0.41936  0.04292  1.0000
  S   S749      1.0  0.78988  0.44226  0.02279  1.0000
  Fe  Fe383     1.0  0.79325  0.41651  0.05983  1.0000
  S   S750      1.0  0.78242  0.40265  0.06522  1.0000
  Fe  Fe384     1.0  0.81590  0.42647  0.05213  1.0000
  S   S751      1.0  0.83578  0.42412  0.04625  1.0000
  S   S752      1.0  0.78200  0.43444  0.05640  1.0000
  S   S753      1.0  0.80551  0.44505  0.04790  1.0000
  H   H5827     1.0  0.85336  0.43888  0.01765  1.0000
  C   C3274     1.0  0.55608  0.25411  0.01538  1.0000
  Fe  Fe385     1.0  0.96794  0.46565  0.12695  1.0000
  H   H5828     1.0  0.60258  0.26195  0.03816  1.0000
  C   C3275     1.0  0.81122  0.48899  0.01400  1.0000
  Fe  Fe386     1.0  0.94396  0.46089  0.13981  1.0000
  H   H5829     1.0  0.59944  0.30561  0.02292  1.0000
  S   S754      1.0  0.93452  0.44786  0.15335  1.0000
  Fe  Fe387     1.0  0.94819  0.47184  0.11350  1.0000
  S   S755      1.0  0.94485  0.47201  0.09582  1.0000
  H   H5830     1.0  0.55906  0.34120  0.01522  1.0000
  S   S756      1.0  0.95697  0.45501  0.12422  1.0000
  S   S757      1.0  0.95547  0.47023  0.14348  1.0000
  Fe  Fe388     1.0  0.88741  0.47076  0.04930  1.0000
  S   S758      1.0  0.87787  0.46670  0.06809  1.0000
  H   H5831     1.0  0.71019  0.39543  0.01753  1.0000
  Fe  Fe389     1.0  0.90412  0.44712  0.05107  1.0000
  S   S759      1.0  0.89627  0.44110  0.07027  1.0000
  S   S760      1.0  0.91924  0.43513  0.04146  1.0000
  Fe  Fe390     1.0  0.87904  0.44906  0.06480  1.0000
  S   S761      1.0  0.86419  0.43965  0.07366  1.0000
  Fe  Fe391     1.0  0.89586  0.45916  0.07207  1.0000
  S   S762      1.0  0.89817  0.46410  0.08797  1.0000
  S   S763      1.0  0.88693  0.45390  0.04548  1.0000
  S   S764      1.0  0.90532  0.46440  0.05339  1.0000
  C   C3276     1.0  0.82139  0.44896  0.99311  1.0000
  C   C3277     1.0  0.93061  0.44988  0.16784  1.0000
  C   C3278     1.0  0.93905  0.44991  0.17366  1.0000
  H   H5832     1.0  0.58834  0.28560  0.08068  1.0000
  C   C3279     1.0  0.91947  0.43913  0.11268  1.0000
  C   C3280     1.0  0.75928  0.46995  0.05978  1.0000
  C   C3281     1.0  0.91885  0.45082  0.17385  1.0000
  H   H5833     1.0  0.94818  0.44908  0.16905  1.0000
  H   H5834     1.0  0.55810  0.33306  0.03031  1.0000
  H   H5835     1.0  0.86166  0.48460  0.04875  1.0000
  H   H5836     1.0  0.91232  0.45074  0.16942  1.0000
  C   C3282     1.0  0.93169  0.47028  0.09354  1.0000
  C   C3283     1.0  0.93205  0.46665  0.08339  1.0000
  C   C3284     1.0  0.92185  0.46488  0.08143  1.0000
  C   C3285     1.0  0.91116  0.46672  0.08964  1.0000
  C   C3286     1.0  0.91073  0.47063  0.09964  1.0000
  C   C3287     1.0  0.92091  0.47250  0.10154  1.0000
  H   H5837     1.0  0.94033  0.46502  0.07709  1.0000
  H   H5838     1.0  0.92231  0.46189  0.07368  1.0000
  H   H5839     1.0  0.90250  0.47214  0.10601  1.0000
  H   H5840     1.0  0.92045  0.47562  0.10919  1.0000
  C   C3288     1.0  0.54715  0.28741  0.03178  1.0000
  H   H5841     1.0  0.98979  0.47456  0.20540  1.0000
  H   H5842     1.0  0.58204  0.37443  0.01602  1.0000
  C   C3289     1.0  0.94476  0.44018  0.10825  1.0000
  N   N182      1.0  0.53568  0.32068  0.01780  1.0000
  H   H5843     1.0  0.58267  0.27413  0.03749  1.0000
  H   H5844     1.0  0.85393  0.46534  0.02517  1.0000
  C   C3290     1.0  0.78859  0.46058  0.08036  1.0000
  H   H5845     1.0  0.57144  0.35535  0.01368  1.0000
  C   C3291     1.0  0.55582  0.32373  0.01841  1.0000
  C   C3292     1.0  0.81063  0.41379  0.99594  1.0000
  N   N183      1.0  0.83355  0.46803  0.08515  1.0000
  H   H5846     1.0  0.74506  0.44762  0.03986  1.0000
  C   C3293     1.0  0.59912  0.28332  0.06338  1.0000
  H   H5847     1.0  0.95478  0.41006  0.18249  1.0000
  H   H5848     1.0  0.57445  0.24964  0.99560  1.0000
  H   H5849     1.0  0.79922  0.46246  0.06271  1.0000
  C   C3294     1.0  0.84309  0.42920  0.05385  1.0000
  C   C3295     1.0  0.84014  0.42733  0.06611  1.0000
  C   C3296     1.0  0.84685  0.43038  0.07203  1.0000
  C   C3297     1.0  0.85632  0.43566  0.06575  1.0000
  C   C3298     1.0  0.85910  0.43784  0.05347  1.0000
  C   C3299     1.0  0.85259  0.43446  0.04757  1.0000
  H   H5850     1.0  0.83292  0.42316  0.07104  1.0000
  H   H5851     1.0  0.84475  0.42856  0.08153  1.0000
  H   H5852     1.0  0.86628  0.44202  0.04854  1.0000
  H   H5853     1.0  0.85475  0.43609  0.03811  1.0000
  C   C3300     1.0  0.62285  0.25087  0.04520  1.0000
  C   C3301     1.0  0.83303  0.45778  0.02912  1.0000
  H   H5854     1.0  0.81098  0.36756  0.01404  1.0000
  H   H5855     1.0  0.88038  0.38466  0.02868  1.0000
  H   H5856     1.0  0.92002  0.43985  0.08920  1.0000
  H   H5857     1.0  0.79716  0.40375  0.00016  1.0000
  H   H5858     1.0  0.77361  0.48047  0.03584  1.0000
  C   C3302     1.0  0.92107  0.47949  0.01328  1.0000
  C   C3303     1.0  0.99299  0.42301  0.17592  1.0000
  S   S765      1.0  0.95974  0.45959  0.22930  1.0000
  H   H5859     1.0  0.96524  0.48294  0.18042  1.0000
  H   H5860     1.0  0.98334  0.44079  0.16884  1.0000
  C   C3304     1.0  0.79606  0.46594  0.07059  1.0000
  C   C3305     1.0  0.93147  0.44636  0.00150  1.0000
  C   C3306     1.0  0.92031  0.45182  0.00718  1.0000
  C   C3307     1.0  0.91640  0.44843  0.01946  1.0000
  C   C3308     1.0  0.92358  0.43945  0.02606  1.0000
  C   C3309     1.0  0.93462  0.43388  0.02034  1.0000
  C   C3310     1.0  0.93859  0.43741  0.00815  1.0000
  H   H5861     1.0  0.91487  0.45891  0.00221  1.0000
  H   H5862     1.0  0.90794  0.45285  0.02387  1.0000
  H   H5863     1.0  0.94022  0.42695  0.02538  1.0000
  H   H5864     1.0  0.94724  0.43317  0.00387  1.0000
  C   C3311     1.0  0.80193  0.44488  0.01134  1.0000
  N   N184      1.0  0.61341  0.48221  0.99908  1.0000
  Fe  Fe392     1.0  0.51610  0.25821  0.03214  1.0000
  H   H5865     1.0  0.89299  0.42900  0.00068  1.0000
  C   C3312     1.0  0.82083  0.45019  0.00436  1.0000
  C   C3313     1.0  0.81121  0.44795  0.01352  1.0000
  H   H5866     1.0  0.98860  0.45142  0.20083  1.0000
  H   H5867     1.0  0.57706  0.26179  0.06375  1.0000
  H   H5868     1.0  0.82784  0.45293  0.00597  1.0000
  H   H5869     1.0  0.81088  0.44889  0.02219  1.0000
  C   C3314     1.0  0.54225  0.32756  0.02125  1.0000
  H   H5870     1.0  0.66276  0.42473  0.12295  1.0000
  C   C3315     1.0  0.94238  0.47802  0.22187  1.0000
  C   C3316     1.0  0.61105  0.28112  0.00633  1.0000
  S   S766      1.0  0.96096  0.40636  0.22482  1.0000
  H   H5871     1.0  0.53956  0.32716  0.03087  1.0000
  C   C3317     1.0  0.92038  0.42724  0.13251  1.0000
  C   C3318     1.0  0.71845  0.45777  0.01884  1.0000
  H   H5872     1.0  0.65527  0.44711  0.03668  1.0000
  H   H5873     1.0  0.96198  0.43352  0.11274  1.0000
  H   H5874     1.0  0.74103  0.45541  0.09015  1.0000
  C   C3319     1.0  0.72608  0.46723  0.02926  1.0000
  C   C3320     1.0  0.72009  0.45889  0.02938  1.0000
  H   H5875     1.0  0.55941  0.32343  0.00902  1.0000
  H   H5876     1.0  0.67600  0.41547  0.12750  1.0000
  H   H5877     1.0  0.72721  0.46824  0.03740  1.0000
  H   H5878     1.0  0.71659  0.45345  0.03760  1.0000
  C   C3321     1.0  0.76697  0.40764  0.06635  1.0000
  C   C3322     1.0  0.76209  0.41741  0.05842  1.0000
  C   C3323     1.0  0.74980  0.42079  0.05930  1.0000
  C   C3324     1.0  0.74226  0.41463  0.06833  1.0000
  C   C3325     1.0  0.74714  0.40494  0.07628  1.0000
  C   C3326     1.0  0.75940  0.40133  0.07514  1.0000
  H   H5879     1.0  0.76780  0.42225  0.05145  1.0000
  H   H5880     1.0  0.74613  0.42833  0.05317  1.0000
  H   H5881     1.0  0.74142  0.40019  0.08337  1.0000
  H   H5882     1.0  0.76303  0.39375  0.08128  1.0000
  H   H5883     1.0  0.59487  0.40805  0.00346  1.0000
  C   C3327     1.0  0.74017  0.40545  0.00099  1.0000
  C   C3328     1.0  0.73305  0.40316  0.01231  1.0000
  C   C3329     1.0  0.73520  0.39195  0.01957  1.0000
  C   C3330     1.0  0.74436  0.38305  0.01554  1.0000
  C   C3331     1.0  0.75145  0.38535  0.00425  1.0000
  C   C3332     1.0  0.61475  0.26240  0.04798  1.0000
  H   H5884     1.0  0.72603  0.41011  0.01545  1.0000
  H   H5885     1.0  0.74615  0.37446  0.02124  1.0000
  H   H5886     1.0  0.77370  0.48708  0.06718  1.0000
  H   H5887     1.0  0.91869  0.42132  0.11246  1.0000
  C   C3333     1.0  0.60207  0.26347  0.04695  1.0000
  C   C3334     1.0  0.64788  0.45749  0.00860  1.0000
  C   C3335     1.0  0.78750  0.47668  0.99321  1.0000
  C   C3336     1.0  0.51610  0.32770  0.03221  1.0000
  C   C3337     1.0  0.66428  0.46055  0.03573  1.0000
  H   H5888     1.0  0.64691  0.44092  0.00605  1.0000
  H   H5889     1.0  0.64612  0.45473  0.01808  1.0000
  H   H5890     1.0  0.54491  0.26213  0.02996  1.0000
  H   H5891     1.0  0.99142  0.42303  0.22868  1.0000
  C   C3338     1.0  0.65455  0.40757  0.03966  1.0000
  C   C3339     1.0  0.65001  0.40839  0.05144  1.0000
  C   C3340     1.0  0.65648  0.41151  0.05755  1.0000
  C   C3341     1.0  0.66765  0.41371  0.05201  1.0000
  C   C3342     1.0  0.67225  0.41282  0.04024  1.0000
  C   C3343     1.0  0.66573  0.40977  0.03407  1.0000
  H   H5892     1.0  0.64141  0.40665  0.05586  1.0000
  H   H5893     1.0  0.65283  0.41212  0.06664  1.0000
  H   H5894     1.0  0.68077  0.41453  0.03585  1.0000
  H   H5895     1.0  0.66940  0.40904  0.02504  1.0000
  S   S767      1.0  0.98663  0.45752  0.12900  1.0000
  H   H5896     1.0  0.94210  0.47523  0.17959  1.0000
  H   H5897     1.0  0.66411  0.36723  0.01922  1.0000
  H   H5898     1.0  0.57100  0.32928  0.01911  1.0000
  N   N185      1.0  0.98361  0.42055  0.18691  1.0000
  H   H5899     1.0  0.59232  0.26759  0.06738  1.0000
  C   C3344     1.0  0.69725  0.42864  0.08588  1.0000
  C   C3345     1.0  0.59185  0.29451  0.00745  1.0000
  H   H5900     1.0  0.96050  0.42036  0.20011  1.0000
  H   H5901     1.0  0.55968  0.27150  0.00901  1.0000
  H   H5902     1.0  0.66725  0.41457  0.10642  1.0000
  H   H5903     1.0  0.62054  0.27969  0.00394  1.0000
  H   H5904     1.0  0.68703  0.43139  0.00268  1.0000
  H   H5905     1.0  0.69924  0.40337  0.10000  1.0000
  H   H5906     1.0  0.92888  0.49262  0.21602  1.0000
  H   H5907     1.0  0.63187  0.25032  0.04600  1.0000
  H   H5908     1.0  0.83776  0.48983  0.00947  1.0000
  H   H5909     1.0  0.94218  0.45057  0.19012  1.0000
  N   N186      1.0  0.74916  0.46378  0.06467  1.0000
  C   C3346     1.0  0.74640  0.46130  0.05431  1.0000
  C   C3347     1.0  0.91871  0.41506  0.15341  1.0000
  C   C3348     1.0  0.84792  0.46425  0.09873  1.0000
  H   H5910     1.0  0.76187  0.44800  0.07012  1.0000
  C   C3349     1.0  0.68839  0.41268  0.08684  1.0000
  H   H5911     1.0  0.71406  0.43740  0.09024  1.0000
  C   C3350     1.0  0.88741  0.38962  0.02431  1.0000
  H   H5912     1.0  0.66003  0.43129  0.09540  1.0000
  N   N187      1.0  0.76405  0.40001  0.02912  1.0000
  C   C3351     1.0  0.76019  0.40914  0.01880  1.0000
  C   C3352     1.0  0.76937  0.38812  0.02590  1.0000
  C   C3353     1.0  0.75319  0.39885  0.03885  1.0000
  C   C3354     1.0  0.77234  0.40369  0.03377  1.0000
  C   C3355     1.0  0.78378  0.40611  0.02503  1.0000
  C   C3356     1.0  0.75561  0.42206  0.02038  1.0000
  C   C3357     1.0  0.75494  0.38907  0.05002  1.0000
  C   C3358     1.0  0.77631  0.38786  0.01306  1.0000
  C   C3359     1.0  0.78199  0.37527  0.01154  1.0000
  C   C3360     1.0  0.79048  0.41108  0.03063  1.0000
  C   C3361     1.0  0.74800  0.42938  0.01162  1.0000
  C   C3362     1.0  0.74310  0.38771  0.05835  1.0000
  H   H5913     1.0  0.75336  0.40650  0.01630  1.0000
  H   H5914     1.0  0.76744  0.40959  0.01083  1.0000
  H   H5915     1.0  0.77524  0.38248  0.03187  1.0000
  H   H5916     1.0  0.76231  0.38336  0.02728  1.0000
  H   H5917     1.0  0.74630  0.39734  0.03543  1.0000
  H   H5918     1.0  0.74932  0.40706  0.04215  1.0000
  H   H5919     1.0  0.76773  0.41174  0.03725  1.0000
  H   H5920     1.0  0.77507  0.39690  0.04138  1.0000
  H   H5921     1.0  0.78202  0.41253  0.01689  1.0000
  H   H5922     1.0  0.78956  0.39781  0.02283  1.0000
  H   H5923     1.0  0.75039  0.42283  0.02928  1.0000
  H   H5924     1.0  0.76317  0.42613  0.01886  1.0000
  H   H5925     1.0  0.76011  0.39135  0.05492  1.0000
  H   H5926     1.0  0.75953  0.38038  0.04789  1.0000
  H   H5927     1.0  0.77033  0.39180  0.00689  1.0000
  H   H5928     1.0  0.78329  0.39281  0.01029  1.0000
  C   C3363     1.0  0.61884  0.48802  0.02716  1.0000
  H   H5929     1.0  0.94672  0.49079  0.19321  1.0000
  H   H5930     1.0  0.77513  0.37015  0.01360  1.0000
  H   H5931     1.0  0.78484  0.41906  0.03377  1.0000
  H   H5932     1.0  0.79341  0.40443  0.03821  1.0000
  H   H5933     1.0  0.79829  0.41362  0.02415  1.0000
  H   H5934     1.0  0.58604  0.35308  0.01613  1.0000
  H   H5935     1.0  0.86173  0.48937  0.06981  1.0000
  S   S768      1.0  0.58611  0.24343  0.02557  1.0000
  H   H5936     1.0  0.73801  0.38428  0.05430  1.0000
  H   H5937     1.0  0.74457  0.38143  0.06668  1.0000
  H   H5938     1.0  0.73784  0.39627  0.06045  1.0000
  H   H5939     1.0  0.49877  0.33505  0.04182  1.0000
  H   H5940     1.0  0.68240  0.46320  0.05969  1.0000
  H   H5941     1.0  0.92783  0.44679  0.13364  1.0000
  H   H5942     1.0  0.91062  0.42915  0.13410  1.0000
  C   C3364     1.0  0.98889  0.47162  0.16628  1.0000
  S   S769      1.0  0.52311  0.27475  0.02422  1.0000
  H   H5943     1.0  0.66407  0.48044  0.05457  1.0000
  H   H5944     1.0  0.82979  0.47110  0.05082  1.0000
  C   C3365     1.0  0.58653  0.28493  0.01267  1.0000
  S   S770      1.0  0.51890  0.36104  0.00357  1.0000
  H   H5945     1.0  0.97662  0.41208  0.17771  1.0000
  H   H5946     1.0  0.92429  0.48487  0.20055  1.0000
  C   C3366     1.0  0.57694  0.35863  0.01739  1.0000
  H   H5947     1.0  0.56489  0.24816  0.01382  1.0000
  H   H5948     1.0  0.69349  0.46728  0.03787  1.0000
  H   H5949     1.0  0.91648  0.48418  0.02058  1.0000
  H   H5950     1.0  0.61863  0.26964  0.04181  1.0000
  C   C3367     1.0  0.73849  0.47201  0.07017  1.0000
  S   S771      1.0  0.92967  0.42662  0.23056  1.0000
  C   C3368     1.0  0.54261  0.35951  0.99860  1.0000
  H   H5951     1.0  0.90973  0.44157  0.11562  1.0000
  N   N188      1.0  0.92210  0.48815  0.00152  1.0000
  C   C3369     1.0  0.67944  0.43894  0.00307  1.0000
  H   H5952     1.0  0.81240  0.47488  0.99310  1.0000
  H   H5953     1.0  0.73441  0.36483  0.01562  1.0000
  H   H5954     1.0  0.60065  0.27297  0.08094  1.0000
  C   C3370     1.0  0.91863  0.48407  0.15759  1.0000
  H   H5955     1.0  0.92303  0.47583  0.19215  1.0000
  H   H5956     1.0  0.73984  0.47376  0.07812  1.0000
  H   H5957     1.0  0.55282  0.24731  0.03419  1.0000
  S   S772      1.0  0.50670  0.25144  0.05063  1.0000
  C   C3371     1.0  0.71717  0.47574  0.08133  1.0000
  H   H5958     1.0  0.69509  0.37028  0.00942  1.0000
  H   H5959     1.0  0.87491  0.40576  0.02037  1.0000
  H   H5960     1.0  0.75804  0.48965  0.00097  1.0000
  H   H5961     1.0  0.96219  0.46835  0.18521  1.0000
  C   C3372     1.0  0.82685  0.48898  0.08935  1.0000
  H   H5962     1.0  0.92322  0.46069  0.03182  1.0000
  C   C3373     1.0  0.61735  0.47055  0.99535  1.0000
  C   C3374     1.0  0.93759  0.48992  0.21781  1.0000
  H   H5963     1.0  0.92120  0.41374  0.16189  1.0000
  C   C3375     1.0  0.72309  0.46469  0.00817  1.0000
  H   H5964     1.0  0.54881  0.28918  0.03958  1.0000
  H   H5965     1.0  0.59915  0.25582  0.05349  1.0000
  C   C3376     1.0  0.62817  0.37585  0.99839  1.0000
  H   H5966     1.0  0.78439  0.47886  0.09866  1.0000
  C   C3377     1.0  0.92374  0.48140  0.16841  1.0000
  H   H5967     1.0  0.98608  0.47467  0.23296  1.0000
  H   H5968     1.0  0.84614  0.48991  0.01914  1.0000
  H   H5969     1.0  0.60021  0.30809  0.03667  1.0000
  H   H5970     1.0  0.89750  0.48579  0.01332  1.0000
  H   H5971     1.0  0.84145  0.38642  0.99458  1.0000
  H   H5972     1.0  0.75879  0.44439  0.05290  1.0000
  C   C3378     1.0  0.67446  0.41432  0.11041  1.0000
  C   C3379     1.0  0.76208  0.47613  0.06791  1.0000
  C   C3380     1.0  0.50095  0.28896  0.02834  1.0000
  H   H5973     1.0  0.54501  0.29606  0.01437  1.0000
  C   C3381     1.0  0.67480  0.43968  0.01591  1.0000
  H   H5974     1.0  0.75430  0.48236  0.07175  1.0000
  H   H5975     1.0  0.75760  0.47687  0.05181  1.0000
  C   C3382     1.0  0.83284  0.47279  0.07243  1.0000
  H   H5976     1.0  0.53884  0.28429  0.03434  1.0000
  N   N189      1.0  0.88896  0.42254  0.01957  1.0000
  C   C3383     1.0  0.87598  0.42809  0.02091  1.0000
  C   C3384     1.0  0.89290  0.42352  0.02993  1.0000
  C   C3385     1.0  0.89541  0.42966  0.00862  1.0000
  C   C3386     1.0  0.89197  0.40991  0.01834  1.0000
  C   C3387     1.0  0.88247  0.40259  0.02472  1.0000
  C   C3388     1.0  0.87100  0.43005  0.00991  1.0000
  C   C3389     1.0  0.90906  0.42614  0.00620  1.0000
  C   C3390     1.0  0.88746  0.41670  0.04217  1.0000
  C   C3391     1.0  0.89093  0.41961  0.05200  1.0000
  C   C3392     1.0  0.77062  0.46758  0.00506  1.0000
  C   C3393     1.0  0.85767  0.43153  0.01308  1.0000
  H   H5977     1.0  0.94353  0.47636  0.19863  1.0000
  H   H5978     1.0  0.87401  0.43684  0.02315  1.0000
  H   H5979     1.0  0.87067  0.42291  0.02846  1.0000
  H   H5980     1.0  0.90256  0.42014  0.02894  1.0000
  H   H5981     1.0  0.89117  0.43296  0.03030  1.0000
  H   H5982     1.0  0.89268  0.43917  0.00880  1.0000
  C   C3394     1.0  0.92163  0.48520  0.19241  1.0000
  C   C3395     1.0  0.53278  0.36112  0.99397  1.0000
  H   H5983     1.0  0.90024  0.40508  0.02135  1.0000
  H   H5984     1.0  0.83973  0.47029  0.99763  1.0000
  H   H5985     1.0  0.87900  0.40315  0.03405  1.0000
  H   H5986     1.0  0.71611  0.48514  0.07671  1.0000
  H   H5987     1.0  0.73328  0.47785  0.99970  1.0000
  H   H5988     1.0  0.69505  0.47287  0.99932  1.0000
  H   H5989     1.0  0.91229  0.42919  0.01224  1.0000
  H   H5990     1.0  0.87773  0.41879  0.04401  1.0000
  H   H5991     1.0  0.89083  0.40711  0.04272  1.0000
  H   H5992     1.0  0.88706  0.42895  0.05247  1.0000
  H   H5993     1.0  0.88748  0.41411  0.06059  1.0000
  H   H5994     1.0  0.90065  0.41791  0.05058  1.0000
  H   H5995     1.0  0.73719  0.48075  0.06404  1.0000
  H   H5996     1.0  0.93993  0.47553  0.01425  1.0000
  C   C3396     1.0  0.76690  0.48853  0.99499  1.0000
  C   C3397     1.0  0.68638  0.47413  0.04177  1.0000
  S   S773      1.0  0.58589  0.34155  0.99529  1.0000
  C   C3398     1.0  0.92524  0.49278  0.17068  1.0000
  H   H5997     1.0  0.89121  0.48918  0.08816  1.0000
  H   H5998     1.0  0.60828  0.29992  0.00021  1.0000
  H   H5999     1.0  0.60886  0.39778  0.00038  1.0000
  N   N190      1.0  0.69758  0.37806  0.02237  1.0000
  C   C3399     1.0  0.71039  0.37202  0.02183  1.0000
  C   C3400     1.0  0.69129  0.37944  0.03477  1.0000
  C   C3401     1.0  0.69198  0.37022  0.01897  1.0000
  C   C3402     1.0  0.69623  0.38967  0.01368  1.0000
  C   C3403     1.0  0.70145  0.39907  0.01537  1.0000
  C   C3404     1.0  0.79482  0.48086  0.08095  1.0000
  C   C3405     1.0  0.67831  0.37336  0.02136  1.0000
  C   C3406     1.0  0.69811  0.38232  0.04228  1.0000
  C   C3407     1.0  0.69032  0.38389  0.05431  1.0000
  C   C3408     1.0  0.70288  0.40870  0.00423  1.0000
  H   H6000     1.0  0.67723  0.48930  0.02329  1.0000
  C   C3409     1.0  0.67388  0.36519  0.01691  1.0000
  H   H6001     1.0  0.71108  0.36315  0.02779  1.0000
  H   H6002     1.0  0.71488  0.37674  0.02516  1.0000
  H   H6003     1.0  0.68293  0.38629  0.03463  1.0000
  H   H6004     1.0  0.68872  0.37109  0.04007  1.0000
  H   H6005     1.0  0.69463  0.36092  0.02366  1.0000
  C   C3410     1.0  0.51996  0.26369  0.99456  1.0000
  H   H6006     1.0  0.70013  0.38827  0.00459  1.0000
  H   H6007     1.0  0.68681  0.39382  0.01378  1.0000
  H   H6008     1.0  0.57847  0.26385  0.00530  1.0000
  H   H6009     1.0  0.69531  0.40323  0.02251  1.0000
  H   H6010     1.0  0.93882  0.45763  0.03057  1.0000
  H   H6011     1.0  0.62334  0.25038  0.03607  1.0000
  H   H6012     1.0  0.67494  0.38250  0.01690  1.0000
  H   H6013     1.0  0.67428  0.37243  0.03090  1.0000
  H   H6014     1.0  0.70576  0.37500  0.04396  1.0000
  H   H6015     1.0  0.70132  0.39046  0.03798  1.0000
  H   H6016     1.0  0.69527  0.38632  0.05934  1.0000
  H   H6017     1.0  0.68234  0.39098  0.05335  1.0000
  H   H6018     1.0  0.68760  0.37560  0.05940  1.0000
  H   H6019     1.0  0.55449  0.28036  0.02863  1.0000
  H   H6020     1.0  0.75331  0.43002  0.00245  1.0000
  H   H6021     1.0  0.61405  0.44146  0.00612  1.0000
  H   H6022     1.0  0.97535  0.47146  0.15790  1.0000
  C   C3411     1.0  0.61625  0.48020  0.01094  1.0000
  H   H6023     1.0  0.64859  0.47972  0.04665  1.0000
  H   H6024     1.0  0.67687  0.36648  0.00720  1.0000
  H   H6025     1.0  0.67711  0.35586  0.02105  1.0000
  C   C3412     1.0  0.61721  0.44890  0.99945  1.0000
  C   C3413     1.0  0.75048  0.45239  0.08622  1.0000
  S   S774      1.0  0.65055  0.47787  0.01187  1.0000
  H   H6026     1.0  0.57704  0.28638  0.01524  1.0000
  C   C3414     1.0  0.98861  0.41509  0.22958  1.0000
  H   H6027     1.0  0.68713  0.48725  0.00175  1.0000
  H   H6028     1.0  0.98053  0.44097  0.21079  1.0000
  C   C3415     1.0  0.82931  0.41064  0.00121  1.0000
  C   C3416     1.0  0.81888  0.39452  0.00819  1.0000
  C   C3417     1.0  0.81642  0.38394  0.00522  1.0000
  C   C3418     1.0  0.70785  0.44216  0.99424  1.0000
  C   C3419     1.0  0.82415  0.41553  0.01259  1.0000
  H   H6029     1.0  0.70298  0.47570  0.05219  1.0000
  H   H6030     1.0  0.90474  0.49182  0.18664  1.0000
  C   C3420     1.0  0.81238  0.37517  0.01641  1.0000
  H   H6031     1.0  0.81130  0.46112  0.09201  1.0000
  C   C3421     1.0  0.83319  0.42023  0.01537  1.0000
  H   H6032     1.0  0.57318  0.35781  0.02697  1.0000
  C   C3422     1.0  0.98850  0.40917  0.19470  1.0000
  H   H6033     1.0  0.80587  0.41740  0.00385  1.0000
  C   C3423     1.0  0.90126  0.48337  0.20483  1.0000
  H   H6034     1.0  0.68091  0.47853  0.05919  1.0000
  H   H6035     1.0  0.83779  0.40447  0.00251  1.0000
  H   H6036     1.0  0.82633  0.39070  0.01275  1.0000
  H   H6037     1.0  0.81125  0.39780  0.01497  1.0000
  H   H6038     1.0  0.56149  0.35718  0.99488  1.0000
  C   C3424     1.0  0.77131  0.48331  0.06107  1.0000
  H   H6039     1.0  0.55116  0.29031  0.99647  1.0000
  H   H6040     1.0  0.60562  0.28630  0.04081  1.0000
  H   H6041     1.0  0.82139  0.40866  0.02029  1.0000
  H   H6042     1.0  0.81648  0.42294  0.01161  1.0000
  C   C3425     1.0  0.83903  0.47000  0.05137  1.0000
  H   H6043     1.0  0.54957  0.24962  0.01482  1.0000
  H   H6044     1.0  0.90509  0.48556  0.06952  1.0000
  C   C3426     1.0  0.65004  0.46870  0.00317  1.0000
  H   H6045     1.0  0.56338  0.26606  0.04461  1.0000
  H   H6046     1.0  0.81916  0.37186  0.02177  1.0000
  H   H6047     1.0  0.80398  0.37932  0.02176  1.0000
  H   H6048     1.0  0.59106  0.36636  0.99698  1.0000
  H   H6049     1.0  0.98908  0.47425  0.10648  1.0000
  H   H6050     1.0  0.72185  0.46383  0.99999  1.0000
  H   H6051     1.0  0.82910  0.42436  0.02309  1.0000
  H   H6052     1.0  0.84077  0.41299  0.01746  1.0000
  H   H6053     1.0  0.83636  0.42702  0.00779  1.0000
  H   H6054     1.0  0.86215  0.46061  0.10765  1.0000
  C   C3427     1.0  0.91073  0.49092  0.99751  1.0000
  H   H6055     1.0  0.94741  0.48805  0.17217  1.0000
  C   C3428     1.0  0.50756  0.30834  0.01141  1.0000
  H   H6056     1.0  0.83003  0.45320  0.09932  1.0000
  H   H6057     1.0  0.93237  0.47514  0.16680  1.0000
  H   H6058     1.0  0.69164  0.44790  0.08055  1.0000
  S   S775      1.0  0.91895  0.45338  0.20614  1.0000
  H   H6059     1.0  0.70394  0.46009  0.05457  1.0000
  H   H6060     1.0  0.57485  0.28210  0.04861  1.0000
  H   H6061     1.0  0.70771  0.45278  0.08555  1.0000
  H   H6062     1.0  0.66797  0.46130  0.05190  1.0000
  C   C3429     1.0  0.51251  0.28792  0.02176  1.0000
  H   H6063     1.0  0.55634  0.24842  0.99545  1.0000
  H   H6064     1.0  0.52807  0.30548  0.02654  1.0000
  C   C3430     1.0  0.75457  0.44006  0.09336  1.0000
  C   C3431     1.0  0.81240  0.48191  0.99689  1.0000
  H   H6065     1.0  0.70399  0.42273  0.09076  1.0000
  H   H6066     1.0  0.67915  0.47630  0.00289  1.0000
  H   H6067     1.0  0.75523  0.47170  0.99741  1.0000
  H   H6068     1.0  0.51004  0.31567  0.00463  1.0000
  H   H6069     1.0  0.54930  0.31447  0.00344  1.0000
  H   H6070     1.0  0.96616  0.40550  0.19800  1.0000
  C   C3432     1.0  0.98139  0.39454  0.23169  1.0000
  H   H6071     1.0  0.79521  0.44136  0.99837  1.0000
  S   S776      1.0  0.61330  0.34974  0.99848  1.0000
  H   H6072     1.0  0.58931  0.26619  0.01878  1.0000
  H   H6073     1.0  0.75337  0.44041  0.10267  1.0000
  H   H6074     1.0  0.66583  0.35155  0.99408  1.0000
  H   H6075     1.0  0.98856  0.47498  0.14775  1.0000
  H   H6076     1.0  0.89473  0.38582  0.02899  1.0000
  H   H6077     1.0  0.58826  0.38991  0.00546  1.0000
  H   H6078     1.0  0.95729  0.49217  0.15087  1.0000
  S   S777      1.0  0.50414  0.25376  0.02386  1.0000
  C   C3433     1.0  0.60199  0.40463  0.99638  1.0000
  C   C3434     1.0  0.66473  0.43045  0.08630  1.0000
  H   H6079     1.0  0.55873  0.31504  0.02401  1.0000
  H   H6080     1.0  0.93344  0.42260  0.14350  1.0000
  H   H6081     1.0  0.80824  0.44242  0.09118  1.0000
  H   H6082     1.0  0.55827  0.27271  0.05731  1.0000
  C   C3435     1.0  0.78767  0.47526  0.09084  1.0000
  C   C3436     1.0  0.52294  0.32728  0.01935  1.0000
  C   C3437     1.0  0.57704  0.37148  0.01149  1.0000
  H   H6083     1.0  0.68041  0.45607  0.04136  1.0000
  H   H6084     1.0  0.89357  0.45717  0.01183  1.0000
  H   H6085     1.0  0.68054  0.40879  0.09005  1.0000
  H   H6086     1.0  0.74745  0.44587  0.07293  1.0000
  C   C3438     1.0  0.93093  0.46473  0.02914  1.0000
  H   H6087     1.0  0.94556  0.41258  0.19649  1.0000
  H   H6088     1.0  0.98417  0.48053  0.16769  1.0000
  H   H6089     1.0  0.93738  0.47167  0.22302  1.0000
  C   C3439     1.0  0.67648  0.47998  0.02544  1.0000
  C   C3440     1.0  0.62356  0.36570  0.00171  1.0000
  C   C3441     1.0  0.67706  0.43311  0.08355  1.0000
  H   H6090     1.0  0.58341  0.29855  0.04725  1.0000
  H   H6091     1.0  0.97406  0.45198  0.19953  1.0000
  C   C3442     1.0  0.51583  0.29764  0.01334  1.0000
  C   C3443     1.0  0.84047  0.46465  0.06394  1.0000
  C   C3444     1.0  0.57674  0.26336  0.05439  1.0000
  C   C3445     1.0  0.87595  0.46526  0.00910  1.0000
  H   H6092     1.0  0.66147  0.43885  0.06881  1.0000
  C   C3446     1.0  0.72995  0.36228  0.01025  1.0000
  H   H6093     1.0  0.67532  0.44195  0.08544  1.0000
  C   C3447     1.0  0.98237  0.44601  0.20157  1.0000
  H   H6094     1.0  0.52477  0.29681  0.00822  1.0000
  S   S778      1.0  0.92867  0.45278  0.23366  1.0000
  C   C3448     1.0  0.92385  0.45165  0.19153  1.0000
  H   H6095     1.0  0.67141  0.43176  0.02096  1.0000
  H   H6096     1.0  0.89133  0.47258  0.00520  1.0000
  C   C3449     1.0  0.73094  0.47399  0.01854  1.0000
  H   H6097     1.0  0.76029  0.44548  0.03208  1.0000
  H   H6098     1.0  0.69180  0.44259  0.09597  1.0000
  C   C3450     1.0  0.54646  0.29844  0.02194  1.0000
  H   H6099     1.0  0.82438  0.47258  0.10194  1.0000
  C   C3451     1.0  0.82483  0.47633  0.09239  1.0000
  H   H6100     1.0  0.78715  0.42496  0.99629  1.0000
  H   H6101     1.0  0.73894  0.45684  0.05725  1.0000
  C   C3452     1.0  0.99214  0.39382  0.23420  1.0000
  Fe  Fe393     1.0  0.94923  0.42373  0.22726  1.0000
  N   N191      1.0  0.68591  0.42438  0.09012  1.0000
  C   C3453     1.0  0.55543  0.26604  0.00632  1.0000
  C   C3454     1.0  0.77617  0.48200  0.01183  1.0000
  H   H6102     1.0  0.91236  0.41648  0.00734  1.0000
  C   C3455     1.0  0.97766  0.41580  0.22747  1.0000
  C   C3456     1.0  0.66061  0.44889  0.04177  1.0000
  C   C3457     1.0  0.78165  0.47185  0.02111  1.0000
  H   H6103     1.0  0.81581  0.47733  0.09136  1.0000
  C   C3458     1.0  0.92375  0.42504  0.14449  1.0000
  H   H6104     1.0  0.81895  0.45721  0.07814  1.0000
  C   C3459     1.0  0.66550  0.48378  0.04490  1.0000
  C   C3460     1.0  0.78247  0.47625  0.03136  1.0000
  C   C3461     1.0  0.59428  0.30706  0.03174  1.0000
  H   H6105     1.0  0.84489  0.46399  0.04567  1.0000
  C   C3462     1.0  0.93840  0.43242  0.11929  1.0000
  H   H6106     1.0  0.76408  0.46776  0.01358  1.0000
  H   H6107     1.0  0.81633  0.44015  0.10227  1.0000
  H   H6108     1.0  0.69807  0.46739  0.06671  1.0000
  Fe  Fe394     1.0  0.94714  0.48585  0.13132  1.0000
  H   H6109     1.0  0.78643  0.46877  0.03777  1.0000
  H   H6110     1.0  0.70246  0.43945  0.00313  1.0000
  H   H6111     1.0  0.94374  0.44897  0.10987  1.0000
  C   C3463     1.0  0.95251  0.41565  0.18901  1.0000
  S   S779      1.0  0.58295  0.30875  0.00562  1.0000
  H   H6112     1.0  0.79063  0.46745  0.01716  1.0000
  H   H6113     1.0  0.77623  0.46521  0.02498  1.0000
  C   C3464     1.0  0.88723  0.46577  0.01190  1.0000
  H   H6114     1.0  0.59401  0.24701  0.99928  1.0000
  C   C3465     1.0  0.60573  0.27154  0.01152  1.0000
  H   H6115     1.0  0.72331  0.43426  0.00161  1.0000
  H   H6116     1.0  0.94048  0.48040  0.99470  1.0000
  H   H6117     1.0  0.71319  0.44349  0.07503  1.0000
  H   H6118     1.0  0.95951  0.42616  0.10287  1.0000
  H   H6119     1.0  0.61629  0.45796  0.01256  1.0000
  C   C3466     1.0  0.76133  0.45300  0.00169  1.0000
  H   H6120     1.0  0.91540  0.47354  0.01381  1.0000
  H   H6121     1.0  0.68767  0.46381  0.02004  1.0000
  H   H6122     1.0  0.82339  0.45977  0.03276  1.0000
  S   S780      1.0  0.93431  0.47694  0.12899  1.0000
  H   H6123     1.0  0.51797  0.32345  0.01555  1.0000
  H   H6124     1.0  0.53980  0.33709  0.01714  1.0000
  C   C3467     1.0  0.70861  0.44385  0.08429  1.0000
  C   C3468     1.0  0.75651  0.45319  0.04720  1.0000
  S   S781      1.0  0.96045  0.48210  0.11488  1.0000
  H   H6125     1.0  0.83745  0.45369  0.03656  1.0000
  C   C3469     1.0  0.91545  0.45194  0.18556  1.0000
  H   H6126     1.0  0.52161  0.27074  0.99723  1.0000
  H   H6127     1.0  0.55181  0.41249  0.00851  1.0000
  H   H6128     1.0  0.65514  0.44928  0.05073  1.0000
  H   H6129     1.0  0.76764  0.46370  0.05688  1.0000
  H   H6130     1.0  0.68936  0.42167  0.10740  1.0000
  C   C3470     1.0  0.90952  0.45305  0.13215  1.0000
  H   H6131     1.0  0.76405  0.43649  0.08990  1.0000
  H   H6132     1.0  0.92961  0.47095  0.03477  1.0000
  H   H6133     1.0  0.92347  0.41868  0.12973  1.0000
  C   C3471     1.0  0.83062  0.45606  0.08969  1.0000
  H   H6134     1.0  0.70862  0.47327  0.08312  1.0000
  H   H6135     1.0  0.93026  0.47420  0.99209  1.0000
  H   H6136     1.0  0.85335  0.45911  0.01382  1.0000
  H   H6137     1.0  0.98367  0.42967  0.16149  1.0000
  H   H6138     1.0  0.97155  0.43698  0.19010  1.0000
  H   H6139     1.0  0.65619  0.46746  0.03513  1.0000
  H   H6140     1.0  0.68941  0.48251  0.03797  1.0000
  C   C3472     1.0  0.58838  0.29684  0.03848  1.0000
  N   N192      1.0  0.85474  0.47736  0.00804  1.0000
  H   H6141     1.0  0.58207  0.28099  0.06433  1.0000
  H   H6142     1.0  0.72349  0.46872  0.06582  1.0000
  H   H6143     1.0  0.83799  0.45605  0.06652  1.0000
  C   C3473     1.0  0.55341  0.25582  0.02792  1.0000
  H   H6144     1.0  0.73888  0.41416  0.99545  1.0000
  H   H6145     1.0  0.82078  0.49196  0.10721  1.0000
  C   C3474     1.0  0.60412  0.29258  0.00417  1.0000
  H   H6146     1.0  0.91009  0.48337  0.99442  1.0000
  C   C3475     1.0  0.59132  0.27635  0.06120  1.0000
  H   H6147     1.0  0.52044  0.33162  0.03655  1.0000
  H   H6148     1.0  0.96911  0.48007  0.22357  1.0000
  H   H6149     1.0  0.82380  0.43627  0.08822  1.0000
  H   H6150     1.0  0.77866  0.46105  0.09805  1.0000
  H   H6151     1.0  0.52220  0.33656  0.01440  1.0000
  H   H6152     1.0  0.96926  0.42701  0.17785  1.0000
  H   H6153     1.0  0.87085  0.48371  0.00227  1.0000
  H   H6154     1.0  0.83499  0.45146  0.02342  1.0000
  H   H6155     1.0  0.94258  0.43184  0.12654  1.0000
  H   H6156     1.0  0.53481  0.31486  0.00287  1.0000
  H   H6157     1.0  0.58746  0.31535  0.03050  1.0000
  H   H6158     1.0  0.78813  0.48268  0.02819  1.0000
  C   C3476     1.0  0.85601  0.47575  0.99582  1.0000
  C   C3477     1.0  0.72013  0.43428  0.99391  1.0000
  C   C3478     1.0  0.75244  0.45221  0.07307  1.0000
  C   C3479     1.0  0.97343  0.41872  0.18332  1.0000
  H   H6159     1.0  0.54597  0.27073  0.00747  1.0000
  C   C3480     1.0  0.93267  0.47102  0.01621  1.0000
  H   H6160     1.0  0.58194  0.29675  0.03360  1.0000
  C   C3481     1.0  0.97419  0.40552  0.22827  1.0000
  H   H6161     1.0  0.89864  0.46716  0.14079  1.0000
  H   H6162     1.0  0.78685  0.37539  0.00227  1.0000
  H   H6163     1.0  0.74942  0.43399  0.09302  1.0000
  H   H6164     1.0  0.71984  0.37950  0.00428  1.0000
  H   H6165     1.0  0.93175  0.42582  0.10305  1.0000
  N   N193      1.0  0.59331  0.27483  0.04878  1.0000
  H   H6166     1.0  0.80458  0.48045  0.06314  1.0000
  H   H6167     1.0  0.68071  0.43410  0.07389  1.0000
  C   C3482     1.0  0.56127  0.33238  0.02096  1.0000
  N   N194      1.0  0.67494  0.47511  0.03854  1.0000
  N   N195      1.0  0.82164  0.40463  0.99810  1.0000
  H   H6168     1.0  0.56775  0.37645  0.01296  1.0000
  H   H6169     1.0  0.55509  0.30084  0.01926  1.0000
  C   C3483     1.0  0.67216  0.46306  0.04235  1.0000
  H   H6170     1.0  0.97526  0.42695  0.20287  1.0000
  H   H6171     1.0  0.74358  0.46970  0.04809  1.0000
  H   H6172     1.0  0.98182  0.40699  0.20290  1.0000
  H   H6173     1.0  0.69470  0.41183  0.00083  1.0000
  C   C3484     1.0  0.86678  0.47711  0.00941  1.0000
  H   H6174     1.0  0.72777  0.45870  0.07864  1.0000
  C   C3485     1.0  0.96072  0.47685  0.18775  1.0000
  H   H6175     1.0  0.83574  0.48124  0.06900  1.0000
  H   H6176     1.0  0.85204  0.45970  0.08199  1.0000
  C   C3486     1.0  0.97903  0.43044  0.19346  1.0000
  H   H6177     1.0  0.99057  0.40178  0.19015  1.0000
  H   H6178     1.0  0.59966  0.25973  0.99709  1.0000
  S   S782      1.0  0.95042  0.44070  0.21409  1.0000
  H   H6179     1.0  0.83393  0.47547  0.02800  1.0000
  H   H6180     1.0  0.77787  0.45975  0.00667  1.0000
  C   C3487     1.0  0.98765  0.45605  0.23809  1.0000
  H   H6181     1.0  0.83601  0.48899  0.08913  1.0000
  H   H6182     1.0  0.90550  0.44654  0.13940  1.0000
  C   C3488     1.0  0.52403  0.25206  0.00001  1.0000
  H   H6183     1.0  0.69557  0.47482  0.01861  1.0000
  H   H6184     1.0  0.98850  0.46011  0.15559  1.0000
  H   H6185     1.0  0.66867  0.48026  0.02233  1.0000
  H   H6186     1.0  0.66748  0.44746  0.01671  1.0000
  H   H6187     1.0  0.76448  0.45685  0.04357  1.0000
  H   H6188     1.0  0.67650  0.43241  0.10496  1.0000
  H   H6189     1.0  0.68190  0.44026  0.01967  1.0000
  H   H6190     1.0  0.84509  0.45612  0.10412  1.0000
  H   H6191     1.0  0.89066  0.38856  0.01506  1.0000
  H   H6192     1.0  0.91140  0.47088  0.13005  1.0000
  H   H6193     1.0  0.76968  0.44617  0.00135  1.0000
  H   H6194     1.0  0.54916  0.40116  0.00333  1.0000
  C   C3489     1.0  0.94759  0.48238  0.19082  1.0000
  C   C3490     1.0  0.81890  0.45510  0.08764  1.0000
  H   H6195     1.0  0.87266  0.45783  0.01559  1.0000
  C   C3491     1.0  0.92217  0.42887  0.10639  1.0000
  H   H6196     1.0  0.69811  0.39056  0.08183  1.0000
  C   C3492     1.0  0.84595  0.46690  0.08610  1.0000
  H   H6197     1.0  0.91813  0.42513  0.09166  1.0000
  H   H6198     1.0  0.96454  0.47521  0.19551  1.0000
  H   H6199     1.0  0.68018  0.40534  0.11099  1.0000
  H   H6200     1.0  0.66522  0.42158  0.08517  1.0000
  C   C3493     1.0  0.53613  0.30856  0.02576  1.0000
  C   C3494     1.0  0.71809  0.37080  0.00942  1.0000
  H   H6201     1.0  0.92025  0.49093  0.03782  1.0000
  C   C3495     1.0  0.68708  0.47775  0.00460  1.0000
  H   H6202     1.0  0.90962  0.48972  0.15902  1.0000
  C   C3496     1.0  0.96031  0.48279  0.22202  1.0000
  H   H6203     1.0  0.69069  0.38830  0.09720  1.0000
  C   C3497     1.0  0.65722  0.43930  0.07811  1.0000
  H   H6204     1.0  0.84159  0.47859  0.04810  1.0000
  C   C3498     1.0  0.69857  0.46837  0.05723  1.0000
  C   C3499     1.0  0.96331  0.41480  0.19352  1.0000
  H   H6205     1.0  0.90670  0.43579  0.09866  1.0000
  H   H6206     1.0  0.70654  0.38459  0.09304  1.0000
  H   H6207     1.0  0.98598  0.46517  0.17436  1.0000
  H   H6208     1.0  0.77941  0.47771  0.05674  1.0000
  C   C3500     1.0  0.68174  0.42366  0.10323  1.0000
  Fe  Fe395     1.0  0.93074  0.44432  0.21878  1.0000
  H   H6209     1.0  0.88540  0.46779  0.02070  1.0000
  H   H6210     1.0  0.99017  0.44311  0.18412  1.0000
  H   H6211     1.0  0.75533  0.45822  0.08743  1.0000
  H   H6212     1.0  0.97925  0.48262  0.12766  1.0000
  C   C3501     1.0  0.69851  0.39095  0.09073  1.0000
  C   C3502     1.0  0.94172  0.48421  0.18047  1.0000
  H   H6213     1.0  0.92025  0.43295  0.14835  1.0000
  H   H6214     1.0  0.64846  0.43718  0.08016  1.0000
  C   C3503     1.0  0.56769  0.40066  0.00135  1.0000
  H   H6215     1.0  0.65595  0.44838  0.07920  1.0000
  C   C3504     1.0  0.66903  0.41605  0.12297  1.0000
  H   H6216     1.0  0.83784  0.44927  0.08584  1.0000
  C   C3505     1.0  0.59750  0.28489  0.03953  1.0000
  N   N196      1.0  0.92522  0.43668  0.12287  1.0000
  H   H6217     1.0  0.69023  0.41391  0.07711  1.0000
  H   H6218     1.0  0.70734  0.40520  0.08502  1.0000
  H   H6219     1.0  0.62698  0.44645  0.99714  1.0000
  C   C3506     1.0  0.69641  0.44129  0.08698  1.0000
  H   H6220     1.0  0.94072  0.42331  0.11784  1.0000
  H   H6221     1.0  0.96229  0.44075  0.09758  1.0000
  C   C3507     1.0  0.69896  0.40331  0.09098  1.0000
  C   C3508     1.0  0.81077  0.48013  0.00903  1.0000
  H   H6222     1.0  0.66915  0.46002  0.02663  1.0000
  C   C3509     1.0  0.58179  0.27415  0.04684  1.0000
  C   C3510     1.0  0.93569  0.45065  0.18558  1.0000
  H   H6223     1.0  0.54149  0.35862  0.00794  1.0000
  H   H6224     1.0  0.91294  0.46139  0.14421  1.0000
  C   C3511     1.0  0.92267  0.44792  0.12704  1.0000
  H   H6225     1.0  0.86630  0.45496  0.09448  1.0000
  H   H6226     1.0  0.70112  0.42820  0.07651  1.0000
  H   H6227     1.0  0.86599  0.47959  0.01784  1.0000
  H   H6228     1.0  0.76572  0.46958  0.07505  1.0000
  C   C3512     1.0  0.99188  0.46689  0.23743  1.0000
  H   H6229     1.0  0.66847  0.44151  0.04233  1.0000
  H   H6230     1.0  0.90440  0.45592  0.12521  1.0000
  C   C3513     1.0  0.90810  0.46377  0.13708  1.0000
  C   C3514     1.0  0.86094  0.46251  0.09853  1.0000
  H   H6231     1.0  0.86417  0.47055  0.09349  1.0000
  H   H6232     1.0  0.89395  0.40946  0.00891  1.0000
  C   C3515     1.0  0.95371  0.47443  0.22404  1.0000
  H   H6233     1.0  0.53095  0.33657  0.99575  1.0000
  H   H6234     1.0  0.92228  0.40672  0.15025  1.0000
  C   C3516     1.0  0.54013  0.31972  0.00508  1.0000
  H   H6235     1.0  0.90896  0.41724  0.15500  1.0000
  H   H6236     1.0  0.60320  0.46182  0.00690  1.0000
  H   H6237     1.0  0.53603  0.30886  0.03486  1.0000
  C   C3517     1.0  0.72954  0.47263  0.00800  1.0000
  C   C3518     1.0  0.95794  0.43476  0.10522  1.0000
  H   H6238     1.0  0.61031  0.48633  0.03287  1.0000
  H   H6239     1.0  0.92183  0.44694  0.10600  1.0000
  H   H6240     1.0  0.97205  0.42430  0.22492  1.0000
  H   H6241     1.0  0.94130  0.44133  0.10039  1.0000
  C   C3519     1.0  0.68733  0.47336  0.01761  1.0000
  S   S783      1.0  0.61460  0.25732  0.01424  1.0000
  C   C3520     1.0  0.72671  0.46798  0.07373  1.0000
  H   H6242     1.0  0.91769  0.47698  0.17589  1.0000
  H   H6243     1.0  0.82355  0.47503  0.07152  1.0000
  C   C3521     1.0  0.85025  0.46733  0.01723  1.0000
  H   H6244     1.0  0.67253  0.43703  0.00004  1.0000
  H   H6245     1.0  0.91818  0.47572  0.15586  1.0000
  H   H6246     1.0  0.74420  0.43836  0.01334  1.0000
  H   H6247     1.0  0.71389  0.36753  0.00439  1.0000
  H   H6248     1.0  0.59655  0.29280  0.05934  1.0000
  C   C3522     1.0  0.79905  0.47619  0.07083  1.0000
  H   H6249     1.0  0.56065  0.25705  0.05917  1.0000
  H   H6250     1.0  0.52882  0.25027  0.00679  1.0000
  C   C3523     1.0  0.99590  0.40409  0.23279  1.0000
  H   H6251     1.0  0.91158  0.44151  0.99220  1.0000
  C   C3524     1.0  0.58249  0.37289  0.99815  1.0000
  H   H6252     1.0  0.89191  0.48814  0.20681  1.0000
  H   H6253     1.0  0.71028  0.40535  0.99731  1.0000
  H   H6254     1.0  0.61478  0.26229  0.05712  1.0000
  C   C3525     1.0  0.90824  0.49085  0.19443  1.0000
  H   H6255     1.0  0.57297  0.40720  0.00002  1.0000
  N   N197      1.0  0.77534  0.47863  0.00103  1.0000
  C   C3526     1.0  0.84689  0.48911  0.01001  1.0000
  H   H6256     1.0  0.70484  0.41617  0.00629  1.0000
  H   H6257     1.0  0.90155  0.47499  0.20266  1.0000
  H   H6258     1.0  0.56055  0.25901  0.02918  1.0000
  H   H6259     1.0  0.85521  0.42336  0.01891  1.0000
  H   H6260     1.0  0.98745  0.45559  0.22915  1.0000
  C   C3527     1.0  0.64831  0.44966  0.00181  1.0000
  C   C3528     1.0  0.65309  0.48706  0.04222  1.0000
  Fe  Fe396     1.0  0.50485  0.35758  0.99695  1.0000
  H   H6261     1.0  0.75864  0.37851  0.00115  1.0000
  H   H6262     1.0  0.76725  0.48611  0.01649  1.0000
  C   C3529     1.0  0.80241  0.44372  0.00005  1.0000
  H   H6263     1.0  0.78825  0.37086  0.01738  1.0000
  S   S784      1.0  0.80956  0.48599  0.02922  1.0000
  H   H6264     1.0  0.75609  0.45207  0.01088  1.0000
  C   C3530     1.0  0.54007  0.33149  0.99592  1.0000
  H   H6265     1.0  0.60028  0.38120  0.99748  1.0000
  H   H6266     1.0  0.62452  0.47331  0.01156  1.0000
  C   C3531     1.0  0.98888  0.43280  0.16569  1.0000
  H   H6267     1.0  0.97866  0.38661  0.23235  1.0000
  H   H6268     1.0  0.56798  0.39490  0.01014  1.0000
  H   H6269     1.0  0.57656  0.36998  0.99460  1.0000
  C   C3532     1.0  0.74940  0.39657  0.99702  1.0000
  H   H6270     1.0  0.87299  0.43820  0.00364  1.0000
  H   H6271     1.0  0.87496  0.42265  0.00532  1.0000
  H   H6272     1.0  0.88488  0.48579  0.07251  1.0000
  H   H6273     1.0  0.56675  0.28568  0.99434  1.0000
  C   C3533     1.0  0.60033  0.48646  0.99985  1.0000
  H   H6274     1.0  0.68632  0.45459  0.00028  1.0000
  H   H6275     1.0  0.51537  0.31877  0.03750  1.0000
  H   H6276     1.0  0.71999  0.42515  0.99418  1.0000
  H   H6277     1.0  0.75618  0.45158  0.99620  1.0000
  C   C3534     1.0  0.91451  0.43179  0.99367  1.0000
  H   H6278     1.0  0.60925  0.47669  0.01808  1.0000
  H   H6279     1.0  0.49834  0.28150  0.03487  1.0000
  H   H6280     1.0  0.62602  0.48023  0.02912  1.0000
  H   H6281     1.0  0.72871  0.35319  0.01428  1.0000
  C   C3535     1.0  0.55495  0.40737  0.00150  1.0000
  C   C3536     1.0  0.61294  0.46000  0.00445  1.0000
  H   H6282     1.0  0.73569  0.36242  0.00130  1.0000
  H   H6283     1.0  0.74053  0.42541  0.01254  1.0000
  C   C3537     1.0  0.76384  0.46528  0.99718  1.0000
  H   H6284     1.0  0.80963  0.38668  0.99998  1.0000
  H   H6285     1.0  0.82454  0.37914  0.00007  1.0000
  H   H6286     1.0  0.83162  0.41807  0.99384  1.0000
  H   H6287     1.0  0.54431  0.26072  0.99420  1.0000
  H   H6288     1.0  0.86131  0.46681  0.99481  1.0000
  C   C3538     1.0  0.50362  0.33518  0.03256  1.0000
  H   H6289     1.0  0.65749  0.36195  0.00316  1.0000
  H   H6290     1.0  0.49878  0.33168  0.02830  1.0000
  H   H6291     1.0  0.92020  0.48070  0.05185  1.0000
  C   C3539     1.0  0.59240  0.38851  0.99643  1.0000
  C   C3540     1.0  0.68260  0.45061  0.99534  1.0000
  H   H6292     1.0  0.90485  0.48140  0.21280  1.0000
  N   N198      1.0  0.92926  0.49141  0.18177  1.0000
  S   S785      1.0  0.88526  0.48833  0.03682  1.0000
  C   C3541     1.0  0.58155  0.26377  0.99583  1.0000
  C   C3542     1.0  0.59397  0.25608  0.99405  1.0000
  H   H6293     1.0  0.59548  0.48044  0.00697  1.0000
  H   H6294     1.0  0.92428  0.48858  0.14976  1.0000
  H   H6295     1.0  0.65331  0.48924  0.03270  1.0000
  C   C3543     1.0  0.65895  0.35981  0.99449  1.0000
  H   H6296     1.0  0.70861  0.45130  0.99314  1.0000
  H   H6297     1.0  0.62704  0.49258  0.00889  1.0000
  H   H6298     1.0  0.99380  0.49032  0.17647  1.0000
  H   H6299     1.0  0.76778  0.49067  0.05429  1.0000
  H   H6300     1.0  0.97854  0.49169  0.13735  1.0000
  C   C3544     1.0  0.97832  0.49176  0.12829  1.0000
  H   H6301     1.0  0.92426  0.42941  0.99223  1.0000
  C   C3545     1.0  0.80131  0.40978  0.99252  1.0000
  H   H6302     1.0  0.65057  0.35841  0.99375  1.0000
  H   H6303     1.0  0.90006  0.49277  0.04943  1.0000
  Fe  Fe397     1.0  0.59155  0.32297  0.99283  1.0000
  H   H6304     1.0  0.83865  0.48601  0.99256  1.0000
  H   H6305     1.0  0.62715  0.46792  0.99310  1.0000
  S   S786      1.0  0.72130  0.49103  0.04834  1.0000
  C   C3546     1.0  0.61842  0.49076  0.01419  1.0000
  C   C3547     1.0  0.84443  0.47720  0.99210  1.0000
  H   H6306     1.0  0.66848  0.49207  0.04309  1.0000
  H   H6307     1.0  0.61967  0.24322  0.05143  1.0000
  H   H6308     1.0  0.99375  0.44798  0.24168  1.0000
  C   C3548     1.0  0.49609  0.30949  0.01827  1.0000
  H   H6309     1.0  0.96643  0.42161  0.26064  1.0000
  C   C3549     1.0  0.91774  0.48517  0.29250  1.0000
  C   C3550     1.0  0.98214  0.33922  0.44490  1.0000
  H   H6310     1.0  0.95989  0.47044  0.24788  1.0000
  C   C3551     1.0  0.97640  0.40691  0.37371  1.0000
  C   C3552     1.0  0.95541  0.37833  0.45392  1.0000
  N   N199      1.0  0.97045  0.25330  0.43315  1.0000
  H   H6311     1.0  0.95215  0.26019  0.44058  1.0000
  S   S787      1.0  0.91692  0.43188  0.26241  1.0000
  H   H6312     1.0  0.95268  0.42612  0.34428  1.0000
  H   H6313     1.0  0.96515  0.24968  0.41301  1.0000
  S   S788      1.0  0.95428  0.27665  0.46272  1.0000
  H   H6314     1.0  0.97622  0.39530  0.26829  1.0000
  H   H6315     1.0  0.96897  0.41089  0.29348  1.0000
  C   C3553     1.0  0.97193  0.40466  0.28745  1.0000
  C   C3554     1.0  0.98513  0.31666  0.41309  1.0000
  H   H6316     1.0  0.95837  0.47382  0.26181  1.0000
  H   H6317     1.0  0.96753  0.31917  0.41060  1.0000
  H   H6318     1.0  0.98108  0.41191  0.37646  1.0000
  H   H6319     1.0  0.94505  0.39927  0.28657  1.0000
  Fe  Fe398     1.0  0.95140  0.30760  0.46723  1.0000
  C   C3555     1.0  0.99155  0.27685  0.48128  1.0000
  Fe  Fe399     1.0  0.93940  0.45185  0.30531  1.0000
  S   S789      1.0  0.95632  0.44800  0.29218  1.0000
  S   S790      1.0  0.92184  0.45062  0.30389  1.0000
  Fe  Fe400     1.0  0.95081  0.45841  0.32118  1.0000
  S   S791      1.0  0.96870  0.45524  0.30935  1.0000
  S   S792      1.0  0.94632  0.46492  0.33786  1.0000
  Fe  Fe401     1.0  0.95923  0.46440  0.29478  1.0000
  C   C3556     1.0  0.98036  0.43568  0.26346  1.0000
  Fe  Fe402     1.0  0.96398  0.43918  0.30804  1.0000
  S   S793      1.0  0.97689  0.42185  0.30994  1.0000
  S   S794      1.0  0.94169  0.46900  0.30669  1.0000
  S   S795      1.0  0.94677  0.44160  0.32106  1.0000
  C   C3557     1.0  0.95621  0.41077  0.41364  1.0000
  H   H6320     1.0  0.90985  0.26119  0.47261  1.0000
  C   C3558     1.0  0.92845  0.24854  0.48626  1.0000
  H   H6321     1.0  0.97773  0.38384  0.45074  1.0000
  H   H6322     1.0  0.96410  0.32127  0.44760  1.0000
  H   H6323     1.0  0.96925  0.31218  0.42537  1.0000
  H   H6324     1.0  0.89441  0.26706  0.47743  1.0000
  C   C3559     1.0  0.91241  0.27865  0.45093  1.0000
  S   S796      1.0  0.92081  0.28986  0.46242  1.0000
  Fe  Fe403     1.0  0.93828  0.29131  0.46415  1.0000
  H   H6325     1.0  0.96828  0.39737  0.44594  1.0000
  C   C3560     1.0  0.93004  0.25817  0.45361  1.0000
  C   C3561     1.0  0.96628  0.40304  0.41942  1.0000
  H   H6326     1.0  0.96181  0.40902  0.36633  1.0000
  H   H6327     1.0  0.98042  0.32947  0.43344  1.0000
  H   H6328     1.0  0.98634  0.38555  0.42068  1.0000
  H   H6329     1.0  0.95129  0.25252  0.42357  1.0000
  S   S797      1.0  0.97650  0.28582  0.43509  1.0000
  H   H6330     1.0  0.95641  0.39228  0.25119  1.0000
  H   H6331     1.0  0.97950  0.44412  0.26582  1.0000
  H   H6332     1.0  0.97612  0.26027  0.41445  1.0000
  C   C3562     1.0  0.98659  0.39535  0.43671  1.0000
  H   H6333     1.0  0.93683  0.25034  0.45476  1.0000
  C   C3563     1.0  0.97531  0.46922  0.35218  1.0000
  C   C3564     1.0  0.96348  0.47391  0.35663  1.0000
  C   C3565     1.0  0.95472  0.47235  0.35223  1.0000
  C   C3566     1.0  0.95773  0.46636  0.34313  1.0000
  C   C3567     1.0  0.96959  0.46162  0.33864  1.0000
  C   C3568     1.0  0.97840  0.46294  0.34326  1.0000
  H   H6334     1.0  0.96108  0.47865  0.36360  1.0000
  C   C3569     1.0  0.93640  0.48030  0.25620  1.0000
  H   H6335     1.0  0.97196  0.45682  0.33173  1.0000
  C   C3570     1.0  0.96017  0.26349  0.43558  1.0000
  H   H6336     1.0  0.99094  0.41597  0.35423  1.0000
  S   S798      1.0  0.94731  0.30506  0.45131  1.0000
  H   H6337     1.0  0.98860  0.41053  0.28089  1.0000
  H   H6338     1.0  0.99101  0.46572  0.41106  1.0000
  H   H6339     1.0  0.96434  0.34080  0.47196  1.0000
  S   S799      1.0  0.95165  0.32467  0.47085  1.0000
  C   C3571     1.0  0.91941  0.47929  0.27345  1.0000
  C   C3572     1.0  0.96779  0.32721  0.44989  1.0000
  C   C3573     1.0  0.96206  0.39308  0.42950  1.0000
  C   C3574     1.0  0.90270  0.25434  0.49119  1.0000
  H   H6340     1.0  0.99068  0.41884  0.32841  1.0000
  C   C3575     1.0  0.97113  0.42930  0.27195  1.0000
  C   C3576     1.0  0.91859  0.43767  0.27337  1.0000
  C   C3577     1.0  0.90922  0.43905  0.28305  1.0000
  C   C3578     1.0  0.91034  0.44316  0.29224  1.0000
  C   C3579     1.0  0.92094  0.44566  0.29198  1.0000
  C   C3580     1.0  0.93040  0.44428  0.28230  1.0000
  C   C3581     1.0  0.92916  0.44046  0.27288  1.0000
  H   H6341     1.0  0.90106  0.43687  0.28347  1.0000
  H   H6342     1.0  0.90301  0.44421  0.29970  1.0000
  H   H6343     1.0  0.93862  0.44612  0.28207  1.0000
  H   H6344     1.0  0.93644  0.43940  0.26540  1.0000
  H   H6345     1.0  0.93710  0.26736  0.46166  1.0000
  H   H6346     1.0  0.93400  0.47954  0.28062  1.0000
  H   H6347     1.0  0.99277  0.46225  0.27337  1.0000
  H   H6348     1.0  0.94758  0.38338  0.45029  1.0000
  S   S800      1.0  0.96855  0.29439  0.46581  1.0000
  H   H6349     1.0  0.98741  0.39929  0.30198  1.0000
  H   H6350     1.0  0.92804  0.40635  0.30179  1.0000
  H   H6351     1.0  0.93294  0.41968  0.29930  1.0000
  H   H6352     1.0  0.97525  0.30403  0.41374  1.0000
  C   C3582     1.0  0.96072  0.39012  0.25869  1.0000
  H   H6353     1.0  0.94243  0.46140  0.25631  1.0000
  H   H6354     1.0  0.95931  0.36274  0.46755  1.0000
  H   H6355     1.0  0.98033  0.41428  0.26367  1.0000
  Fe  Fe404     1.0  0.95786  0.28158  0.47747  1.0000
  H   H6356     1.0  0.98999  0.42946  0.34356  1.0000
  H   H6357     1.0  0.95952  0.41773  0.40635  1.0000
  H   H6358     1.0  0.97911  0.43742  0.25439  1.0000
  H   H6359     1.0  0.94903  0.41508  0.42012  1.0000
  N   N200      1.0  0.96668  0.42586  0.36031  1.0000
  C   C3583     1.0  0.97219  0.43358  0.36395  1.0000
  C   C3584     1.0  0.92098  0.25854  0.44850  1.0000
  C   C3585     1.0  0.95459  0.43286  0.35861  1.0000
  C   C3586     1.0  0.97549  0.39023  0.44265  1.0000
  H   H6360     1.0  0.98997  0.48534  0.30529  1.0000
  C   C3587     1.0  0.96508  0.43839  0.37510  1.0000
  C   C3588     1.0  0.94790  0.42721  0.35330  1.0000
  C   C3589     1.0  0.99105  0.39494  0.29439  1.0000
  S   S801      1.0  0.96673  0.47742  0.27953  1.0000
  C   C3590     1.0  0.97249  0.44377  0.37947  1.0000
  C   C3591     1.0  0.93563  0.43487  0.35257  1.0000
  H   H6361     1.0  0.97357  0.44131  0.35667  1.0000
  H   H6362     1.0  0.96251  0.37010  0.43920  1.0000
  H   H6363     1.0  0.97162  0.41514  0.34736  1.0000
  H   H6364     1.0  0.97290  0.42723  0.28083  1.0000
  H   H6365     1.0  0.95520  0.44167  0.35279  1.0000
  H   H6366     1.0  0.94873  0.43458  0.36712  1.0000
  H   H6367     1.0  0.95838  0.41694  0.37745  1.0000
  S   S802      1.0  0.92005  0.24599  0.44461  1.0000
  C   C3592     1.0  0.96108  0.49209  0.28077  1.0000
  H   H6368     1.0  0.95732  0.44541  0.37306  1.0000
  H   H6369     1.0  0.96203  0.43137  0.38242  1.0000
  H   H6370     1.0  0.98177  0.43911  0.28876  1.0000
  H   H6371     1.0  0.90342  0.29764  0.48344  1.0000
  H   H6372     1.0  0.94409  0.37041  0.46969  1.0000
  H   H6373     1.0  0.96235  0.43543  0.27211  1.0000
  H   H6374     1.0  0.98113  0.42906  0.36538  1.0000
  C   C3593     1.0  0.97708  0.33180  0.44190  1.0000
  H   H6375     1.0  0.90604  0.46877  0.24255  1.0000
  H   H6376     1.0  0.96700  0.44783  0.38696  1.0000
  C   C3594     1.0  0.95694  0.27329  0.42489  1.0000
  H   H6377     1.0  0.98240  0.40263  0.36658  1.0000
  H   H6378     1.0  0.93114  0.43083  0.34846  1.0000
  H   H6379     1.0  0.93021  0.43573  0.36147  1.0000
  C   C3595     1.0  0.91230  0.26892  0.44689  1.0000
  H   H6380     1.0  0.95262  0.40547  0.40998  1.0000
  C   C3596     1.0  0.90581  0.47551  0.25749  1.0000
  H   H6381     1.0  0.93621  0.44378  0.34710  1.0000
  C   C3597     1.0  0.96683  0.39886  0.27211  1.0000
  H   H6382     1.0  0.94670  0.41848  0.35877  1.0000
  H   H6383     1.0  0.97611  0.45067  0.37239  1.0000
  C   C3598     1.0  0.92139  0.27815  0.45627  1.0000
  H   H6384     1.0  0.95752  0.38843  0.42607  1.0000
  H   H6385     1.0  0.96171  0.45872  0.26063  1.0000
  C   C3599     1.0  0.99357  0.30849  0.42107  1.0000
  H   H6386     1.0  0.95603  0.38426  0.26616  1.0000
  H   H6387     1.0  0.97279  0.36773  0.44795  1.0000
  H   H6388     1.0  0.96396  0.39143  0.27906  1.0000
  H   H6389     1.0  0.96942  0.39642  0.29311  1.0000
  H   H6390     1.0  0.96701  0.49256  0.37385  1.0000
  H   H6391     1.0  0.96763  0.40075  0.39183  1.0000
  H   H6392     1.0  0.92121  0.46963  0.27710  1.0000
  H   H6393     1.0  0.98255  0.47315  0.25332  1.0000
  H   H6394     1.0  0.98020  0.48494  0.40189  1.0000
  Fe  Fe405     1.0  0.96353  0.29053  0.45118  1.0000
  H   H6395     1.0  0.97155  0.37776  0.41473  1.0000
  H   H6396     1.0  0.98804  0.47723  0.28549  1.0000
  C   C3600     1.0  0.96592  0.37461  0.44389  1.0000
  H   H6397     1.0  0.95079  0.40571  0.26478  1.0000
  H   H6398     1.0  0.98160  0.34802  0.45824  1.0000
  H   H6399     1.0  0.92846  0.41643  0.28776  1.0000
  C   C3601     1.0  0.91932  0.47383  0.25551  1.0000
  H   H6400     1.0  0.99326  0.37729  0.27191  1.0000
  C   C3602     1.0  0.90284  0.46695  0.25225  1.0000
  N   N201      1.0  0.97136  0.38441  0.43549  1.0000
  H   H6401     1.0  0.97861  0.45654  0.24357  1.0000
  H   H6402     1.0  0.94535  0.28545  0.43582  1.0000
  H   H6403     1.0  0.99135  0.37650  0.40277  1.0000
  S   S803      1.0  0.94091  0.29506  0.48022  1.0000
  C   C3603     1.0  0.98742  0.42084  0.34639  1.0000
  N   N202      1.0  0.96572  0.40913  0.27736  1.0000
  H   H6404     1.0  0.98768  0.36251  0.40544  1.0000
  H   H6405     1.0  0.95946  0.25176  0.45727  1.0000
  C   C3604     1.0  0.89861  0.24996  0.47363  1.0000
  C   C3605     1.0  0.98899  0.27593  0.43920  1.0000
  C   C3606     1.0  0.94361  0.46785  0.26057  1.0000
  H   H6406     1.0  0.97343  0.39953  0.41243  1.0000
  C   C3607     1.0  0.97869  0.37227  0.41918  1.0000
  H   H6407     1.0  0.90546  0.28650  0.45004  1.0000
  C   C3608     1.0  0.97119  0.41826  0.26792  1.0000
  H   H6408     1.0  0.95499  0.39751  0.43599  1.0000
  C   C3609     1.0  0.96522  0.41480  0.36958  1.0000
  H   H6409     1.0  0.95008  0.36158  0.45874  1.0000
  H   H6410     1.0  0.98916  0.39728  0.27682  1.0000
  C   C3610     1.0  0.99017  0.42425  0.30036  1.0000
  H   H6411     1.0  0.98144  0.27349  0.45781  1.0000
  C   C3611     1.0  0.97765  0.34238  0.45581  1.0000
  H   H6412     1.0  0.90526  0.26929  0.44290  1.0000
  C   C3612     1.0  0.96021  0.40145  0.26214  1.0000
  H   H6413     1.0  0.96936  0.40884  0.42291  1.0000
  H   H6414     1.0  0.94556  0.47593  0.35580  1.0000
  H   H6415     1.0  0.98825  0.37251  0.43159  1.0000
  H   H6416     1.0  0.92272  0.26722  0.48186  1.0000
  H   H6417     1.0  0.98756  0.45927  0.33983  1.0000
  H   H6418     1.0  0.95241  0.42163  0.28651  1.0000
  H   H6419     1.0  0.96374  0.27860  0.42124  1.0000
  H   H6420     1.0  0.98989  0.39662  0.45300  1.0000
  C   C3613     1.0  0.95301  0.41462  0.28195  1.0000
  C   C3614     1.0  0.98162  0.37890  0.42683  1.0000
  H   H6421     1.0  0.97987  0.43688  0.38254  1.0000
  S   S804      1.0  0.94910  0.43046  0.24269  1.0000
  C   C3615     1.0  0.93301  0.41257  0.29515  1.0000
  H   H6422     1.0  0.93232  0.48512  0.32443  1.0000
  H   H6423     1.0  0.94100  0.46483  0.27021  1.0000
  C   C3616     1.0  0.96317  0.33049  0.46073  1.0000
  H   H6424     1.0  0.94950  0.40164  0.29853  1.0000
  H   H6425     1.0  0.93789  0.27696  0.43144  1.0000
  C   C3617     1.0  0.94560  0.40607  0.29076  1.0000
  H   H6426     1.0  0.90364  0.27751  0.48333  1.0000
  H   H6427     1.0  0.92267  0.46452  0.25972  1.0000
  H   H6428     1.0  0.98660  0.47960  0.38079  1.0000
  H   H6429     1.0  0.94849  0.41930  0.27459  1.0000
  C   C3618     1.0  0.97360  0.31273  0.41591  1.0000
  C   C3619     1.0  0.96794  0.33826  0.46358  1.0000
  H   H6430     1.0  0.95746  0.38383  0.45865  1.0000
  C   C3620     1.0  0.99170  0.46808  0.40142  1.0000
  H   H6431     1.0  0.97136  0.43022  0.34120  1.0000
  C   C3621     1.0  0.97382  0.42293  0.34865  1.0000
  H   H6432     1.0  0.98283  0.32577  0.41449  1.0000
  C   C3622     1.0  0.93030  0.26796  0.45739  1.0000
  H   H6433     1.0  0.98913  0.31699  0.40365  1.0000
  H   H6434     1.0  0.98892  0.30966  0.43015  1.0000
  S   S805      1.0  0.98597  0.47187  0.35762  1.0000
  H   H6435     1.0  0.96433  0.40724  0.25415  1.0000
  H   H6436     1.0  0.92202  0.48896  0.29705  1.0000
  H   H6437     1.0  0.97811  0.31455  0.47869  1.0000
  C   C3623     1.0  0.98559  0.40216  0.28398  1.0000
  S   S806      1.0  0.96575  0.26681  0.49067  1.0000
  C   C3624     1.0  0.98943  0.36868  0.40963  1.0000
  C   C3625     1.0  0.95204  0.36758  0.46300  1.0000
  H   H6438     1.0  0.98610  0.40116  0.42797  1.0000
  C   C3626     1.0  0.98868  0.40233  0.44433  1.0000
  H   H6439     1.0  0.91704  0.47617  0.29761  1.0000
  H   H6440     1.0  0.97601  0.36408  0.42464  1.0000
  H   H6441     1.0  0.90168  0.47387  0.26702  1.0000
  H   H6442     1.0  0.98891  0.49210  0.24407  1.0000
  H   H6443     1.0  0.99441  0.38802  0.43556  1.0000
  H   H6444     1.0  0.89049  0.24723  0.47930  1.0000
  C   C3627     1.0  0.95980  0.24614  0.42163  1.0000
  N   N203      1.0  0.92322  0.48202  0.26020  1.0000
  C   C3628     1.0  0.95670  0.46771  0.25752  1.0000
  H   H6445     1.0  0.97000  0.38543  0.25594  1.0000
  H   H6446     1.0  0.94324  0.49047  0.28882  1.0000
  C   C3629     1.0  0.99170  0.46859  0.24970  1.0000
  H   H6447     1.0  0.98523  0.46444  0.39948  1.0000
  H   H6448     1.0  0.90968  0.48220  0.27617  1.0000
  C   C3630     1.0  0.94518  0.28166  0.42854  1.0000
  H   H6449     1.0  0.98936  0.43025  0.26386  1.0000
  C   C3631     1.0  0.98360  0.31835  0.48192  1.0000
  H   H6450     1.0  0.93909  0.48197  0.24644  1.0000
  H   H6451     1.0  0.92646  0.24812  0.47804  1.0000
  C   C3632     1.0  0.97340  0.39705  0.38424  1.0000
  H   H6452     1.0  0.99089  0.26777  0.48611  1.0000
  H   H6453     1.0  0.99294  0.45986  0.25578  1.0000
  H   H6454     1.0  0.96894  0.39144  0.38197  1.0000
  H   H6455     1.0  0.98021  0.25570  0.44428  1.0000
  H   H6456     1.0  0.98162  0.39147  0.38685  1.0000
  H   H6457     1.0  0.90169  0.48449  0.25326  1.0000
  C   C3633     1.0  0.99002  0.43361  0.29059  1.0000
  H   H6458     1.0  0.95239  0.48873  0.32206  1.0000
  H   H6459     1.0  0.96686  0.48548  0.38892  1.0000
  H   H6460     1.0  0.97964  0.32783  0.48144  1.0000
  C   C3634     1.0  0.98920  0.27140  0.45108  1.0000
  H   H6461     1.0  0.89718  0.25383  0.46458  1.0000
  H   H6462     1.0  0.98882  0.48334  0.26367  1.0000
  H   H6463     1.0  0.94446  0.25522  0.47804  1.0000
  H   H6464     1.0  0.90685  0.45772  0.25604  1.0000
  H   H6465     1.0  0.98549  0.24596  0.49015  1.0000
  Fe  Fe406     1.0  0.92957  0.43478  0.24501  1.0000
  C   C3635     1.0  0.97957  0.25743  0.42256  1.0000
  H   H6466     1.0  0.98929  0.38598  0.29709  1.0000
  H   H6467     1.0  0.98120  0.40997  0.44563  1.0000
  H   H6468     1.0  0.93950  0.48685  0.25871  1.0000
  H   H6469     1.0  0.94341  0.28899  0.42096  1.0000
  C   C3636     1.0  0.96631  0.24333  0.43166  1.0000
  H   H6470     1.0  0.98160  0.26540  0.42360  1.0000
  H   H6471     1.0  0.90875  0.49073  0.29233  1.0000
  H   H6472     1.0  0.99143  0.40516  0.33927  1.0000
  C   C3637     1.0  0.99353  0.41397  0.33670  1.0000
  H   H6473     1.0  0.95631  0.26973  0.41771  1.0000
  C   C3638     1.0  0.98922  0.48142  0.39719  1.0000
  H   H6474     1.0  0.97160  0.49021  0.32211  1.0000
  H   H6475     1.0  0.92333  0.47441  0.24596  1.0000
  C   C3639     1.0  0.92500  0.48481  0.28002  1.0000
  H   H6476     1.0  0.96187  0.26823  0.44133  1.0000
  H   H6477     1.0  0.98530  0.28330  0.48634  1.0000
  C   C3640     1.0  0.94172  0.24731  0.48412  1.0000
  C   C3641     1.0  0.90156  0.25900  0.47825  1.0000
  S   S807      1.0  0.99389  0.34461  0.43473  1.0000
  C   C3642     1.0  0.96789  0.24520  0.45575  1.0000
  H   H6478     1.0  0.97575  0.25187  0.46593  1.0000
  C   C3643     1.0  0.92143  0.26023  0.48999  1.0000
  C   C3644     1.0  0.99154  0.24856  0.42006  1.0000
  H   H6479     1.0  0.89316  0.46793  0.25430  1.0000
  H   H6480     1.0  0.98910  0.27837  0.47278  1.0000
  C   C3645     1.0  0.97609  0.24888  0.44363  1.0000
  H   H6481     1.0  0.99567  0.48454  0.39978  1.0000
  C   C3646     1.0  0.99065  0.48514  0.38368  1.0000
  H   H6482     1.0  0.99390  0.29921  0.42120  1.0000
  H   H6483     1.0  0.99479  0.32126  0.46442  1.0000
  C   C3647     1.0  0.97383  0.24350  0.46581  1.0000
  H   H6484     1.0  0.99506  0.25413  0.40093  1.0000
  C   C3648     1.0  0.99572  0.31707  0.47359  1.0000
  H   H6485     1.0  0.95109  0.30851  0.51779  1.0000
  C   C3649     1.0  0.97080  0.32742  0.50551  1.0000
  H   H6486     1.0  0.97583  0.29717  0.51452  1.0000
  H   H6487     1.0  0.93279  0.31564  0.51114  1.0000
  C   C3650     1.0  0.97303  0.48286  0.73361  1.0000
  H   H6488     1.0  0.94008  0.32224  0.49669  1.0000
  H   H6489     1.0  0.96707  0.30790  0.52266  1.0000
  S   S808      1.0  0.97019  0.26144  0.56767  1.0000
  C   C3651     1.0  0.93559  0.48035  0.73708  1.0000
  H   H6490     1.0  0.96735  0.45558  0.68674  1.0000
  C   C3652     1.0  0.99408  0.46285  0.71188  1.0000
  C   C3653     1.0  0.99366  0.39175  0.67199  1.0000
  S   S809      1.0  0.99306  0.26631  0.54595  1.0000
  H   H6491     1.0  0.98185  0.25925  0.50607  1.0000
  C   C3654     1.0  0.98131  0.33314  0.50345  1.0000
  H   H6492     1.0  0.89702  0.25910  0.51296  1.0000
  H   H6493     1.0  0.94803  0.25417  0.56044  1.0000
  H   H6494     1.0  0.94301  0.30643  0.50161  1.0000
  C   C3655     1.0  0.97697  0.34500  0.50709  1.0000
  H   H6495     1.0  0.97027  0.35093  0.50221  1.0000
  H   H6496     1.0  0.91071  0.26198  0.51247  1.0000
  H   H6497     1.0  0.98745  0.48377  0.74027  1.0000
  H   H6498     1.0  0.97967  0.29513  0.53767  1.0000
  S   S810      1.0  0.96930  0.49089  0.69437  1.0000
  C   C3656     1.0  0.96591  0.27177  0.50277  1.0000
  C   C3657     1.0  0.95685  0.28084  0.50659  1.0000
  H   H6499     1.0  0.93855  0.26942  0.50603  1.0000
  H   H6500     1.0  0.89073  0.29689  0.49559  1.0000
  H   H6501     1.0  0.96506  0.30405  0.49917  1.0000
  C   C3658     1.0  0.99087  0.29057  0.56088  1.0000
  C   C3659     1.0  0.94700  0.48412  0.73623  1.0000
  H   H6502     1.0  0.98507  0.47039  0.66723  1.0000
  C   C3660     1.0  0.98445  0.45927  0.68465  1.0000
  C   C3661     1.0  0.97881  0.45169  0.72010  1.0000
  H   H6503     1.0  0.91127  0.24630  0.53098  1.0000
  H   H6504     1.0  0.98557  0.28659  0.55804  1.0000
  C   C3662     1.0  0.98440  0.31193  0.49470  1.0000
  H   H6505     1.0  0.96855  0.46132  0.69841  1.0000
  H   H6506     1.0  0.98801  0.32760  0.50841  1.0000
  H   H6507     1.0  0.96532  0.32811  0.51447  1.0000
  N   N204      1.0  0.97352  0.31490  0.50409  1.0000
  C   C3663     1.0  0.93298  0.26934  0.51505  1.0000
  H   H6508     1.0  0.92367  0.27304  0.51442  1.0000
  H   H6509     1.0  0.93249  0.25530  0.56641  1.0000
  H   H6510     1.0  0.96715  0.47102  0.68438  1.0000
  H   H6511     1.0  0.90312  0.28086  0.50765  1.0000
  C   C3664     1.0  0.98542  0.30611  0.52055  1.0000
  H   H6512     1.0  0.95689  0.40562  0.74131  1.0000
  H   H6513     1.0  0.99512  0.29524  0.53375  1.0000
  C   C3665     1.0  0.97500  0.30625  0.51551  1.0000
  H   H6514     1.0  0.93544  0.27505  0.51923  1.0000
  H   H6515     1.0  0.98079  0.26476  0.52454  1.0000
  C   C3666     1.0  0.93896  0.24921  0.55003  1.0000
  C   C3667     1.0  0.95593  0.28353  0.51733  1.0000
  H   H6516     1.0  0.96964  0.45132  0.72229  1.0000
  H   H6517     1.0  0.98792  0.46074  0.64851  1.0000
  C   C3668     1.0  0.98217  0.46246  0.71476  1.0000
  C   C3669     1.0  0.98273  0.48871  0.73320  1.0000
  H   H6518     1.0  0.96269  0.46412  0.73734  1.0000
  H   H6519     1.0  0.97713  0.47351  0.73345  1.0000
  C   C3670     1.0  0.94061  0.24995  0.56180  1.0000
  H   H6520     1.0  0.94837  0.28984  0.52078  1.0000
  H   H6521     1.0  0.97557  0.47044  0.71302  1.0000
  C   C3671     1.0  0.97468  0.26614  0.50912  1.0000
  H   H6522     1.0  0.93691  0.25836  0.54488  1.0000
  H   H6523     1.0  0.98438  0.34936  0.50505  1.0000
  H   H6524     1.0  0.92186  0.48452  0.72741  1.0000
  H   H6525     1.0  0.99142  0.39232  0.60685  1.0000
  H   H6526     1.0  0.98970  0.28714  0.52686  1.0000
  C   C3672     1.0  0.92974  0.48764  0.72694  1.0000
  H   H6527     1.0  0.95012  0.28524  0.50166  1.0000
  C   C3673     1.0  0.98820  0.46091  0.67108  1.0000
  H   H6528     1.0  0.97103  0.24576  0.52633  1.0000
  C   C3674     1.0  0.95113  0.31527  0.50952  1.0000
  H   H6529     1.0  0.93759  0.47098  0.73657  1.0000
  C   C3675     1.0  0.90662  0.25710  0.50886  1.0000
  H   H6530     1.0  0.95706  0.24720  0.54166  1.0000
  C   C3676     1.0  0.98737  0.44135  0.72242  1.0000
  H   H6531     1.0  0.92599  0.26196  0.49588  1.0000
  H   H6532     1.0  0.93105  0.25169  0.51846  1.0000
  Fe  Fe407     1.0  0.98936  0.26071  0.56554  1.0000
  H   H6533     1.0  0.98921  0.48865  0.72469  1.0000
  H   H6534     1.0  0.98663  0.30233  0.49492  1.0000
  Fe  Fe408     1.0  0.97438  0.26576  0.54797  1.0000
  H   H6535     1.0  0.99073  0.39437  0.62122  1.0000
  C   C3677     1.0  0.94743  0.25101  0.52293  1.0000
  H   H6536     1.0  0.93592  0.48686  0.71833  1.0000
  H   H6537     1.0  0.95298  0.48235  0.72778  1.0000
  H   H6538     1.0  0.94900  0.32401  0.51173  1.0000
  S   S811      1.0  0.96259  0.28023  0.53779  1.0000
  S   S812      1.0  0.97868  0.24705  0.54619  1.0000
  C   C3678     1.0  0.96440  0.27755  0.52394  1.0000
  C   C3679     1.0  0.98757  0.29524  0.53031  1.0000
  C   C3680     1.0  0.97402  0.26916  0.51963  1.0000
  S   S813      1.0  0.98353  0.42770  0.72898  1.0000
  C   C3681     1.0  0.93436  0.25686  0.52250  1.0000
  C   C3682     1.0  0.97105  0.46198  0.68876  1.0000
  C   C3683     1.0  0.99111  0.30249  0.55623  1.0000
  C   C3684     1.0  0.94117  0.31485  0.50440  1.0000
  H   H6539     1.0  0.98286  0.45642  0.66845  1.0000
  H   H6540     1.0  0.95156  0.25761  0.52404  1.0000
  H   H6541     1.0  0.98573  0.33476  0.49399  1.0000
  N   N205      1.0  0.90848  0.26119  0.49566  1.0000
  H   H6542     1.0  0.98334  0.31394  0.52442  1.0000
  H   H6543     1.0  0.99216  0.31373  0.49634  1.0000
  H   H6544     1.0  0.90327  0.30116  0.49691  1.0000
  H   H6545     1.0  0.97314  0.34378  0.51669  1.0000
  C   C3685     1.0  0.96321  0.31311  0.50069  1.0000
  H   H6546     1.0  0.92864  0.25728  0.53132  1.0000
  H   H6547     1.0  0.99380  0.30594  0.51390  1.0000
  C   C3686     1.0  0.90603  0.28248  0.49793  1.0000
  H   H6548     1.0  0.98792  0.45015  0.68915  1.0000
  H   H6549     1.0  0.89251  0.27498  0.49633  1.0000
  H   H6550     1.0  0.91573  0.28146  0.49543  1.0000
  H   H6551     1.0  0.98599  0.30764  0.54981  1.0000
  H   H6552     1.0  0.96965  0.48714  0.72551  1.0000
  H   H6553     1.0  0.99042  0.39338  0.65507  1.0000
  H   H6554     1.0  0.95172  0.24956  0.51387  1.0000
  H   H6555     1.0  0.96530  0.33339  0.49931  1.0000
  H   H6556     1.0  0.93139  0.24511  0.55191  1.0000
  H   H6557     1.0  0.98347  0.49190  0.60847  1.0000
  Fe  Fe409     1.0  0.98616  0.49134  0.69798  1.0000
  H   H6558     1.0  0.98776  0.46537  0.68757  1.0000
  H   H6559     1.0  0.89363  0.25423  0.49662  1.0000
  H   H6560     1.0  0.99407  0.34549  0.63072  1.0000
  H   H6561     1.0  0.98541  0.38933  0.67674  1.0000
  H   H6562     1.0  0.99326  0.46039  0.74183  1.0000
  C   C3687     1.0  0.91168  0.24392  0.51367  1.0000
  C   C3688     1.0  0.90220  0.27400  0.49301  1.0000
  C   C3689     1.0  0.90049  0.29531  0.49316  1.0000
  H   H6563     1.0  0.94431  0.24594  0.49255  1.0000
  H   H6564     1.0  0.96179  0.31920  0.49223  1.0000
  H   H6565     1.0  0.90735  0.24496  0.49216  1.0000
  Fe  Fe410     1.0  0.60750  0.32935  0.96905  1.0000
  S   S814      1.0  0.58876  0.32773  0.97449  1.0000
  S   S815      1.0  0.62102  0.32161  0.95454  1.0000
  C   C3690     1.0  0.99295  0.46446  0.80857  1.0000
  S   S816      1.0  0.60333  0.34857  0.96939  1.0000
  H   H6566     1.0  0.50259  0.30740  0.97810  1.0000
  Fe  Fe411     1.0  0.57869  0.27364  0.94220  1.0000
  S   S817      1.0  0.58509  0.28059  0.92298  1.0000
  S   S818      1.0  0.56047  0.27957  0.95240  1.0000
  H   H6567     1.0  0.81308  0.42141  0.98890  1.0000
  S   S819      1.0  0.61021  0.26240  0.92580  1.0000
  C   C3691     1.0  0.68642  0.48299  0.96764  1.0000
  Fe  Fe412     1.0  0.60128  0.28074  0.92833  1.0000
  S   S820      1.0  0.61169  0.29482  0.92122  1.0000
  Fe  Fe413     1.0  0.59322  0.26152  0.92264  1.0000
  C   C3692     1.0  0.57253  0.39372  0.99135  1.0000
  S   S821      1.0  0.59418  0.27533  0.94763  1.0000
  C   C3693     1.0  0.55574  0.25808  0.97759  1.0000
  H   H6568     1.0  0.81415  0.43363  0.93949  1.0000
  H   H6569     1.0  0.75296  0.42012  0.92755  1.0000
  H   H6570     1.0  0.69184  0.36364  0.95606  1.0000
  C   C3694     1.0  0.66988  0.37239  0.95097  1.0000
  H   H6571     1.0  0.58848  0.24472  0.96455  1.0000
  C   C3695     1.0  0.65043  0.40858  0.95109  1.0000
  H   H6572     1.0  0.97377  0.42548  0.83420  1.0000
  H   H6573     1.0  0.97170  0.44393  0.90795  1.0000
  H   H6574     1.0  0.98162  0.40733  0.82673  1.0000
  H   H6575     1.0  0.87122  0.47477  0.95576  1.0000
  C   C3696     1.0  0.76186  0.48467  0.93134  1.0000
  N   N206      1.0  0.96644  0.44870  0.82011  1.0000
  C   C3697     1.0  0.51706  0.25647  0.92630  1.0000
  H   H6576     1.0  0.52368  0.31626  0.91710  1.0000
  C   C3698     1.0  0.88266  0.48839  0.89870  1.0000
  H   H6577     1.0  0.57711  0.25952  0.98194  1.0000
  C   C3699     1.0  0.97666  0.46390  0.77522  1.0000
  H   H6578     1.0  0.98068  0.42927  0.92347  1.0000
  H   H6579     1.0  0.57460  0.38347  0.97348  1.0000
  H   H6580     1.0  0.65303  0.38108  0.94554  1.0000
  H   H6581     1.0  0.67537  0.36327  0.95184  1.0000
  Fe  Fe414     1.0  0.98392  0.45337  0.86580  1.0000
  S   S822      1.0  0.97703  0.43839  0.86504  1.0000
  C   C3700     1.0  0.95757  0.46540  0.74624  1.0000
  H   H6582     1.0  0.97637  0.41726  0.89598  1.0000
  S   S823      1.0  0.97162  0.46904  0.87237  1.0000
  H   H6583     1.0  0.79483  0.41019  0.96613  1.0000
  H   H6584     1.0  0.61384  0.45023  0.99148  1.0000
  S   S824      1.0  0.92576  0.46513  0.93048  1.0000
  C   C3701     1.0  0.63491  0.24359  0.98454  1.0000
  C   C3702     1.0  0.53562  0.33690  0.95605  1.0000
  C   C3703     1.0  0.79556  0.43650  0.90448  1.0000
  Fe  Fe415     1.0  0.90079  0.45873  0.97146  1.0000
  H   H6585     1.0  0.58732  0.30089  0.97303  1.0000
  C   C3704     1.0  0.96955  0.44536  0.75431  1.0000
  S   S825      1.0  0.92662  0.47452  0.95908  1.0000
  C   C3705     1.0  0.99456  0.43118  0.90817  1.0000
  H   H6586     1.0  0.52407  0.26048  0.92653  1.0000
  S   S826      1.0  0.98280  0.42898  0.78881  1.0000
  C   C3706     1.0  0.94088  0.43275  0.94373  1.0000
  H   H6587     1.0  0.98615  0.38548  0.74703  1.0000
  H   H6588     1.0  0.55283  0.24895  0.96613  1.0000
  H   H6589     1.0  0.78634  0.46638  0.95873  1.0000
  C   C3707     1.0  0.96212  0.44891  0.83301  1.0000
  H   H6590     1.0  0.53840  0.29555  0.96625  1.0000
  H   H6591     1.0  0.87359  0.45137  0.94947  1.0000
  C   C3708     1.0  0.53157  0.28232  0.93394  1.0000
  H   H6592     1.0  0.99080  0.44232  0.84105  1.0000
  H   H6593     1.0  0.66858  0.40191  0.95203  1.0000
  C   C3709     1.0  0.98806  0.46588  0.77151  1.0000
  S   S827      1.0  0.61336  0.24429  0.95653  1.0000
  C   C3710     1.0  0.97557  0.42623  0.82457  1.0000
  H   H6594     1.0  0.50914  0.25922  0.93299  1.0000
  Fe  Fe416     1.0  0.73601  0.43917  0.96316  1.0000
  H   H6595     1.0  0.51234  0.32236  0.92842  1.0000
  H   H6596     1.0  0.53375  0.29996  0.98622  1.0000
  C   C3711     1.0  0.99194  0.43295  0.84457  1.0000
  S   S828      1.0  0.75458  0.43244  0.96550  1.0000
  H   H6597     1.0  0.78227  0.47764  0.97692  1.0000
  H   H6598     1.0  0.86507  0.45462  0.92720  1.0000
  S   S829      1.0  0.87438  0.42068  0.95266  1.0000
  H   H6599     1.0  0.78295  0.46572  0.93165  1.0000
  H   H6600     1.0  0.50797  0.24663  0.94953  1.0000
  C   C3712     1.0  0.98458  0.44335  0.78279  1.0000
  C   C3713     1.0  0.55106  0.24895  0.93851  1.0000
  S   S830      1.0  0.77479  0.43539  0.93518  1.0000
  H   H6601     1.0  0.82314  0.39579  0.98427  1.0000
  H   H6602     1.0  0.95788  0.43445  0.82276  1.0000
  C   C3714     1.0  0.97493  0.45255  0.78077  1.0000
  H   H6603     1.0  0.96287  0.42584  0.93079  1.0000
  C   C3715     1.0  0.65232  0.46452  0.98414  1.0000
  H   H6604     1.0  0.96619  0.45085  0.78327  1.0000
  C   C3716     1.0  0.98649  0.42877  0.85623  1.0000
  S   S831      1.0  0.50032  0.29855  0.95217  1.0000
  H   H6605     1.0  0.61897  0.25648  0.98765  1.0000
  H   H6606     1.0  0.88955  0.48340  0.89256  1.0000
  H   H6607     1.0  0.94172  0.46654  0.79900  1.0000
  H   H6608     1.0  0.61320  0.27935  0.98427  1.0000
  H   H6609     1.0  0.98160  0.42064  0.75692  1.0000
  S   S832      1.0  0.50738  0.34093  0.99096  1.0000
  S   S833      1.0  0.91914  0.44925  0.96462  1.0000
  H   H6610     1.0  0.62669  0.26407  0.93808  1.0000
  C   C3717     1.0  0.96361  0.46706  0.91076  1.0000
  C   C3718     1.0  0.95476  0.46934  0.90463  1.0000
  C   C3719     1.0  0.94311  0.46917  0.91080  1.0000
  C   C3720     1.0  0.94019  0.46666  0.92313  1.0000
  C   C3721     1.0  0.94893  0.46476  0.92927  1.0000
  C   C3722     1.0  0.49696  0.31595  0.97987  1.0000
  H   H6611     1.0  0.95689  0.47119  0.89516  1.0000
  H   H6612     1.0  0.93635  0.47078  0.90599  1.0000
  C   C3723     1.0  0.59235  0.29187  0.97610  1.0000
  H   H6613     1.0  0.77700  0.44938  0.97662  1.0000
  C   C3724     1.0  0.96264  0.41817  0.91247  1.0000
  H   H6614     1.0  0.54594  0.25779  0.93992  1.0000
  H   H6615     1.0  0.65492  0.36696  0.97240  1.0000
  H   H6616     1.0  0.50418  0.33606  0.94303  1.0000
  H   H6617     1.0  0.65249  0.41602  0.94371  1.0000
  C   C3725     1.0  0.80105  0.47250  0.97394  1.0000
  H   H6618     1.0  0.71279  0.38883  0.98411  1.0000
  H   H6619     1.0  0.67503  0.37764  0.94324  1.0000
  C   C3726     1.0  0.53545  0.34986  0.95051  1.0000
  C   C3727     1.0  0.51398  0.26169  0.91428  1.0000
  H   H6620     1.0  0.66379  0.39576  0.94283  1.0000
  Fe  Fe417     1.0  0.49771  0.28306  0.96676  1.0000
  Fe  Fe418     1.0  0.98415  0.46599  0.88391  1.0000
  C   C3728     1.0  0.55454  0.31863  0.93777  1.0000
  H   H6621     1.0  0.80269  0.46736  0.96716  1.0000
  N   N207      1.0  0.77668  0.47597  0.94512  1.0000
  C   C3729     1.0  0.72628  0.47824  0.96532  1.0000
  H   H6622     1.0  0.56503  0.25760  0.97280  1.0000
  C   C3730     1.0  0.53132  0.33123  0.94857  1.0000
  C   C3731     1.0  0.87609  0.45989  0.94733  1.0000
  Fe  Fe419     1.0  0.75055  0.41457  0.97064  1.0000
  H   H6623     1.0  0.86112  0.48187  0.98912  1.0000
  H   H6624     1.0  0.71870  0.48168  0.96138  1.0000
  C   C3732     1.0  0.88987  0.42774  0.96044  1.0000
  H   H6625     1.0  0.78728  0.47935  0.92747  1.0000
  H   H6626     1.0  0.94693  0.42649  0.94918  1.0000
  C   C3733     1.0  0.96061  0.46494  0.92309  1.0000
  H   H6627     1.0  0.70830  0.36309  0.96381  1.0000
  H   H6628     1.0  0.98451  0.41794  0.91518  1.0000
  N   N208      1.0  0.96141  0.43086  0.91255  1.0000
  C   C3734     1.0  0.65853  0.37210  0.94768  1.0000
  H   H6629     1.0  0.95986  0.45831  0.76434  1.0000
  C   C3735     1.0  0.56078  0.29840  0.97986  1.0000
  H   H6630     1.0  0.58227  0.27266  0.99070  1.0000
  H   H6631     1.0  0.69970  0.37405  0.97204  1.0000
  H   H6632     1.0  0.65607  0.37802  0.98612  1.0000
  H   H6633     1.0  0.65800  0.39148  0.96987  1.0000
  H   H6634     1.0  0.92887  0.46554  0.81082  1.0000
  S   S834      1.0  0.58566  0.25460  0.94154  1.0000
  H   H6635     1.0  0.97466  0.46949  0.81652  1.0000
  C   C3736     1.0  0.55393  0.35865  0.99124  1.0000
  C   C3737     1.0  0.78573  0.39514  0.93968  1.0000
  H   H6636     1.0  0.79546  0.48969  0.93877  1.0000
  H   H6637     1.0  0.63859  0.24494  0.99133  1.0000
  C   C3738     1.0  0.99480  0.40874  0.85370  1.0000
  H   H6638     1.0  0.66956  0.35878  0.97194  1.0000
  C   C3739     1.0  0.54964  0.28006  0.94518  1.0000
  C   C3740     1.0  0.53830  0.27939  0.95178  1.0000
  C   C3741     1.0  0.54298  0.28273  0.92732  1.0000
  C   C3742     1.0  0.55201  0.28158  0.93294  1.0000
  H   H6639     1.0  0.53635  0.27806  0.96125  1.0000
  H   H6640     1.0  0.56071  0.28215  0.92775  1.0000
  N   N209      1.0  0.95308  0.47831  0.74630  1.0000
  Fe  Fe420     1.0  0.66966  0.40051  0.99174  1.0000
  H   H6641     1.0  0.84233  0.49016  0.94162  1.0000
  S   S835      1.0  0.99571  0.44956  0.87821  1.0000
  H   H6642     1.0  0.96591  0.38786  0.75467  1.0000
  S   S836      1.0  0.56936  0.35926  0.96962  1.0000
  S   S837      1.0  0.99497  0.46391  0.85107  1.0000
  C   C3743     1.0  0.78634  0.39910  0.92647  1.0000
  H   H6643     1.0  0.89108  0.48009  0.91322  1.0000
  H   H6644     1.0  0.63496  0.27545  0.93244  1.0000
  C   C3744     1.0  0.77762  0.46769  0.95685  1.0000
  H   H6645     1.0  0.64756  0.41174  0.95942  1.0000
  C   C3745     1.0  0.79096  0.40249  0.88250  1.0000
  H   H6646     1.0  0.80380  0.45910  0.92081  1.0000
  C   C3746     1.0  0.66132  0.39846  0.95135  1.0000
  C   C3747     1.0  0.65890  0.38816  0.96196  1.0000
  C   C3748     1.0  0.61764  0.31461  0.94536  1.0000
  C   C3749     1.0  0.62688  0.30999  0.93681  1.0000
  C   C3750     1.0  0.62489  0.30395  0.92956  1.0000
  C   C3751     1.0  0.61368  0.30216  0.93092  1.0000
  C   C3752     1.0  0.60434  0.30674  0.93947  1.0000
  C   C3753     1.0  0.60629  0.31311  0.94660  1.0000
  H   H6647     1.0  0.63564  0.31119  0.93572  1.0000
  H   H6648     1.0  0.63210  0.30061  0.92286  1.0000
  H   H6649     1.0  0.59560  0.30558  0.94043  1.0000
  H   H6650     1.0  0.59908  0.31670  0.95312  1.0000
  H   H6651     1.0  0.96789  0.41223  0.91886  1.0000
  S   S838      1.0  0.73137  0.42150  0.97044  1.0000
  C   C3754     1.0  0.99273  0.40297  0.75556  1.0000
  Fe  Fe421     1.0  0.92424  0.45940  0.97453  1.0000
  H   H6652     1.0  0.77123  0.47163  0.96410  1.0000
  C   C3755     1.0  0.88353  0.44009  0.97475  1.0000
  H   H6653     1.0  0.62659  0.38369  0.96968  1.0000
  H   H6654     1.0  0.54767  0.30323  0.94727  1.0000
  H   H6655     1.0  0.77900  0.39826  0.90558  1.0000
  H   H6656     1.0  0.94601  0.39935  0.75297  1.0000
  H   H6657     1.0  0.62281  0.25323  0.97330  1.0000
  H   H6658     1.0  0.96205  0.39813  0.90602  1.0000
  H   H6659     1.0  0.94529  0.43442  0.90651  1.0000
  C   C3756     1.0  0.79542  0.41697  0.95816  1.0000
  C   C3757     1.0  0.55182  0.24805  0.97570  1.0000
  C   C3758     1.0  0.98481  0.38722  0.79330  1.0000
  C   C3759     1.0  0.78059  0.44637  0.96821  1.0000
  H   H6660     1.0  0.96243  0.45022  0.89145  1.0000
  H   H6661     1.0  0.55569  0.32594  0.98286  1.0000
  H   H6662     1.0  0.79444  0.40244  0.92231  1.0000
  H   H6663     1.0  0.99349  0.44079  0.90715  1.0000
  C   C3760     1.0  0.78290  0.41142  0.88969  1.0000
  H   H6664     1.0  0.89672  0.42370  0.95393  1.0000
  C   C3761     1.0  0.62144  0.36835  0.98190  1.0000
  H   H6665     1.0  0.76790  0.40347  0.92748  1.0000
  H   H6666     1.0  0.67824  0.38341  0.96972  1.0000
  C   C3762     1.0  0.96282  0.39635  0.75750  1.0000
  C   C3763     1.0  0.95706  0.43225  0.92516  1.0000
  H   H6667     1.0  0.52068  0.28007  0.95147  1.0000
  C   C3764     1.0  0.70216  0.44105  0.98474  1.0000
  H   H6668     1.0  0.96821  0.46315  0.83545  1.0000
  H   H6669     1.0  0.79527  0.42645  0.98113  1.0000
  H   H6670     1.0  0.65808  0.29458  0.95424  1.0000
  H   H6671     1.0  0.87559  0.44452  0.93432  1.0000
  C   C3765     1.0  0.74186  0.48149  0.97195  1.0000
  C   C3766     1.0  0.71432  0.40740  0.95719  1.0000
  H   H6672     1.0  0.50667  0.25828  0.91365  1.0000
  H   H6673     1.0  0.52758  0.28818  0.98614  1.0000
  S   S839      1.0  0.50173  0.27024  0.95531  1.0000
  C   C3767     1.0  0.92938  0.49252  0.77092  1.0000
  H   H6674     1.0  0.84006  0.38110  0.97660  1.0000
  H   H6675     1.0  0.54480  0.28413  0.91784  1.0000
  C   C3768     1.0  0.52933  0.28051  0.94619  1.0000
  H   H6676     1.0  0.74345  0.45226  0.97627  1.0000
  S   S840      1.0  0.65152  0.44347  0.98077  1.0000
  C   C3769     1.0  0.96148  0.49066  0.84154  1.0000
  H   H6677     1.0  0.76864  0.46608  0.98792  1.0000
  H   H6678     1.0  0.79848  0.41856  0.90343  1.0000
  H   H6679     1.0  0.80161  0.48169  0.96952  1.0000
  H   H6680     1.0  0.69130  0.48577  0.97248  1.0000
  C   C3770     1.0  0.84201  0.47445  0.92253  1.0000
  C   C3771     1.0  0.64887  0.29549  0.95944  1.0000
  C   C3772     1.0  0.68460  0.44542  0.97672  1.0000
  S   S841      1.0  0.72458  0.41357  0.94529  1.0000
  N   N210      1.0  0.62556  0.27616  0.96807  1.0000
  Fe  Fe422     1.0  0.60195  0.25703  0.94482  1.0000
  C   C3773     1.0  0.63106  0.28641  0.96621  1.0000
  H   H6681     1.0  0.69773  0.46453  0.98218  1.0000
  C   C3774     1.0  0.62504  0.27425  0.95645  1.0000
  C   C3775     1.0  0.63571  0.26575  0.95040  1.0000
  C   C3776     1.0  0.99583  0.44559  0.77980  1.0000
  C   C3777     1.0  0.60533  0.29093  0.97016  1.0000
  H   H6682     1.0  0.99495  0.40507  0.74575  1.0000
  C   C3778     1.0  0.98949  0.38723  0.78022  1.0000
  C   C3779     1.0  0.98294  0.42752  0.91450  1.0000
  C   C3780     1.0  0.64397  0.28530  0.95919  1.0000
  S   S842      1.0  0.83341  0.45210  0.98184  1.0000
  H   H6683     1.0  0.75492  0.43361  0.91720  1.0000
  H   H6684     1.0  0.79265  0.48203  0.95388  1.0000
  H   H6685     1.0  0.62616  0.29453  0.96121  1.0000
  C   C3781     1.0  0.95697  0.44394  0.89247  1.0000
  H   H6686     1.0  0.59005  0.40659  0.98546  1.0000
  H   H6687     1.0  0.82866  0.40847  0.97941  1.0000
  H   H6688     1.0  0.61724  0.27068  0.95744  1.0000
  H   H6689     1.0  0.62364  0.28284  0.95005  1.0000
  H   H6690     1.0  0.64876  0.29552  0.96860  1.0000
  H   H6691     1.0  0.81270  0.44461  0.98225  1.0000
  H   H6692     1.0  0.74913  0.47540  0.93076  1.0000
  H   H6693     1.0  0.95008  0.46113  0.74813  1.0000
  H   H6694     1.0  0.60615  0.29178  0.96069  1.0000
  H   H6695     1.0  0.55921  0.25005  0.93169  1.0000
  H   H6696     1.0  0.79378  0.38839  0.94134  1.0000
  H   H6697     1.0  0.59845  0.24530  0.88275  1.0000
  S   S843      1.0  0.95209  0.49201  0.81171  1.0000
  H   H6698     1.0  0.64441  0.28574  0.94983  1.0000
  H   H6699     1.0  0.86227  0.44401  0.91385  1.0000
  H   H6700     1.0  0.95242  0.48437  0.97432  1.0000
  C   C3782     1.0  0.68972  0.36785  0.96363  1.0000
  H   H6701     1.0  0.65005  0.38669  0.96277  1.0000
  H   H6702     1.0  0.78518  0.40269  0.94340  1.0000
  H   H6703     1.0  0.94128  0.45793  0.89064  1.0000
  H   H6704     1.0  0.77374  0.43171  0.91407  1.0000
  H   H6705     1.0  0.68279  0.38518  0.95433  1.0000
  C   C3783     1.0  0.95241  0.43887  0.90569  1.0000
  C   C3784     1.0  0.98788  0.41667  0.86074  1.0000
  H   H6706     1.0  0.52287  0.29817  0.96696  1.0000
  N   N211      1.0  0.98355  0.39566  0.76008  1.0000
  H   H6707     1.0  0.49853  0.32276  0.97175  1.0000
  C   C3785     1.0  0.98798  0.38423  0.75584  1.0000
  H   H6708     1.0  0.61893  0.36549  0.97548  1.0000
  C   C3786     1.0  0.97966  0.39332  0.77330  1.0000
  C   C3787     1.0  0.81229  0.44551  0.99098  1.0000
  C   C3788     1.0  0.98950  0.41464  0.75978  1.0000
  H   H6709     1.0  0.94791  0.44676  0.90949  1.0000
  C   C3789     1.0  0.94683  0.45059  0.88639  1.0000
  C   C3790     1.0  0.88226  0.48162  0.91141  1.0000
  H   H6710     1.0  0.97737  0.38272  0.79703  1.0000
  H   H6711     1.0  0.81541  0.45683  0.92820  1.0000
  S   S844      1.0  0.59209  0.25267  0.90907  1.0000
  H   H6712     1.0  0.68348  0.43632  0.98113  1.0000
  H   H6713     1.0  0.68522  0.40654  0.96550  1.0000
  H   H6714     1.0  0.98313  0.37750  0.76176  1.0000
  C   C3791     1.0  0.67952  0.37892  0.96245  1.0000
  Fe  Fe423     1.0  0.65268  0.42438  0.98986  1.0000
  H   H6715     1.0  0.96898  0.41088  0.75828  1.0000
  H   H6716     1.0  0.97474  0.40163  0.77624  1.0000
  H   H6717     1.0  0.97325  0.38757  0.77644  1.0000
  S   S845      1.0  0.93711  0.45081  0.98626  1.0000
  H   H6718     1.0  0.60794  0.29844  0.97149  1.0000
  H   H6719     1.0  0.54242  0.24835  0.98005  1.0000
  C   C3792     1.0  0.87824  0.42685  0.96213  1.0000
  H   H6720     1.0  0.67861  0.49017  0.96610  1.0000
  C   C3793     1.0  0.84539  0.38742  0.97588  1.0000
  H   H6721     1.0  0.69958  0.46097  0.96863  1.0000
  S   S846      1.0  0.72383  0.45649  0.96574  1.0000
  C   C3794     1.0  0.51466  0.24529  0.98887  1.0000
  C   C3795     1.0  0.58972  0.38074  0.95932  1.0000
  H   H6722     1.0  0.95744  0.44115  0.92569  1.0000
  H   H6723     1.0  0.69218  0.48170  0.95897  1.0000
  C   C3796     1.0  0.77718  0.48804  0.94584  1.0000
  H   H6724     1.0  0.74761  0.49025  0.92212  1.0000
  S   S847      1.0  0.90589  0.46786  0.98221  1.0000
  S   S848      1.0  0.63355  0.39607  0.98256  1.0000
  C   C3797     1.0  0.97029  0.40131  0.90185  1.0000
  H   H6725     1.0  0.56461  0.27704  0.97679  1.0000
  H   H6726     1.0  0.68741  0.36132  0.97184  1.0000
  C   C3798     1.0  0.63222  0.26547  0.97528  1.0000
  C   C3799     1.0  0.62634  0.25479  0.98007  1.0000
  S   S849      1.0  0.75898  0.39957  0.98340  1.0000
  C   C3800     1.0  0.55395  0.25779  0.99083  1.0000
  C   C3801     1.0  0.54548  0.36214  0.97446  1.0000
  H   H6727     1.0  0.88536  0.45826  0.94803  1.0000
  H   H6728     1.0  0.78808  0.46292  0.98459  1.0000
  H   H6729     1.0  0.95774  0.45274  0.85509  1.0000
  H   H6730     1.0  0.67656  0.47368  0.98307  1.0000
  H   H6731     1.0  0.64359  0.30403  0.95551  1.0000
  H   H6732     1.0  0.98184  0.39638  0.79467  1.0000
  S   S850      1.0  0.74043  0.43776  0.94440  1.0000
  H   H6733     1.0  0.51850  0.30676  0.93075  1.0000
  H   H6734     1.0  0.80188  0.46943  0.94183  1.0000
  C   C3802     1.0  0.94440  0.48441  0.97164  1.0000
  H   H6735     1.0  0.64250  0.26017  0.93377  1.0000
  N   N212      1.0  0.66805  0.37680  0.96195  1.0000
  H   H6736     1.0  0.78773  0.39425  0.88513  1.0000
  H   H6737     1.0  0.56843  0.29607  0.97268  1.0000
  C   C3803     1.0  0.51059  0.25698  0.98335  1.0000
  H   H6738     1.0  0.69143  0.45407  0.95847  1.0000
  H   H6739     1.0  0.58894  0.28554  0.97366  1.0000
  H   H6740     1.0  0.55027  0.26637  0.97352  1.0000
  S   S851      1.0  0.74965  0.49085  0.97340  1.0000
  C   C3804     1.0  0.82810  0.40071  0.98677  1.0000
  H   H6741     1.0  0.56568  0.38924  0.99143  1.0000
  H   H6742     1.0  0.68374  0.43087  0.96308  1.0000
  H   H6743     1.0  0.79034  0.44499  0.96594  1.0000
  H   H6744     1.0  0.93829  0.47401  0.76032  1.0000
  C   C3805     1.0  0.84686  0.47579  0.97950  1.0000
  H   H6745     1.0  0.86918  0.46120  0.96552  1.0000
  H   H6746     1.0  0.65316  0.36674  0.95498  1.0000
  H   H6747     1.0  0.72703  0.39816  0.96777  1.0000
  H   H6748     1.0  0.99594  0.39938  0.85731  1.0000
  H   H6749     1.0  0.97439  0.44042  0.76134  1.0000
  H   H6750     1.0  0.94361  0.42158  0.93191  1.0000
  C   C3806     1.0  0.52718  0.29774  0.98299  1.0000
  H   H6751     1.0  0.74039  0.43187  0.90714  1.0000
  H   H6752     1.0  0.93780  0.43691  0.92644  1.0000
  H   H6753     1.0  0.55087  0.32121  0.92984  1.0000
  H   H6754     1.0  0.79294  0.42142  0.91810  1.0000
  C   C3807     1.0  0.84086  0.39329  0.98642  1.0000
  H   H6755     1.0  0.97688  0.41461  0.81321  1.0000
  C   C3808     1.0  0.54609  0.32949  0.98355  1.0000
  N   N213      1.0  0.88062  0.46104  0.92482  1.0000
  C   C3809     1.0  0.87478  0.45120  0.92608  1.0000
  C   C3810     1.0  0.87457  0.46707  0.93496  1.0000
  C   C3811     1.0  0.87842  0.46988  0.91369  1.0000
  C   C3812     1.0  0.89374  0.45708  0.92408  1.0000
  C   C3813     1.0  0.89822  0.44442  0.93082  1.0000
  C   C3814     1.0  0.87935  0.44442  0.91594  1.0000
  H   H6756     1.0  0.63343  0.26775  0.98309  1.0000
  S   S852      1.0  0.75582  0.41133  0.95242  1.0000
  H   H6757     1.0  0.79771  0.45611  0.94322  1.0000
  C   C3815     1.0  0.91056  0.44267  0.93268  1.0000
  C   C3816     1.0  0.87037  0.44697  0.90841  1.0000
  H   H6758     1.0  0.91195  0.42872  0.98716  1.0000
  H   H6759     1.0  0.93802  0.47518  0.81004  1.0000
  H   H6760     1.0  0.87796  0.47493  0.93381  1.0000
  H   H6761     1.0  0.94733  0.48672  0.83698  1.0000
  H   H6762     1.0  0.86889  0.47222  0.91368  1.0000
  H   H6763     1.0  0.88294  0.46597  0.90588  1.0000
  H   H6764     1.0  0.89873  0.45753  0.91479  1.0000
  H   H6765     1.0  0.89678  0.46328  0.92719  1.0000
  H   H6766     1.0  0.89854  0.43792  0.92583  1.0000
  H   H6767     1.0  0.89242  0.44233  0.93952  1.0000
  H   H6768     1.0  0.88781  0.44620  0.91019  1.0000
  H   H6769     1.0  0.88110  0.43481  0.91983  1.0000
  H   H6770     1.0  0.95866  0.39467  0.76703  1.0000
  C   C3817     1.0  0.61313  0.27912  0.97521  1.0000
  C   C3818     1.0  0.52053  0.31552  0.92675  1.0000
  C   C3819     1.0  0.55938  0.28773  0.98996  1.0000
  C   C3820     1.0  0.66152  0.36677  0.93689  1.0000
  H   H6771     1.0  0.94469  0.44818  0.81452  1.0000
  S   S853      1.0  0.97852  0.46621  0.90333  1.0000
  H   H6772     1.0  0.91672  0.44516  0.92419  1.0000
  H   H6773     1.0  0.91032  0.44810  0.93878  1.0000
  H   H6774     1.0  0.91384  0.43331  0.93669  1.0000
  H   H6775     1.0  0.86793  0.45650  0.90450  1.0000
  H   H6776     1.0  0.87411  0.44211  0.90120  1.0000
  H   H6777     1.0  0.94105  0.44189  0.94356  1.0000
  H   H6778     1.0  0.83841  0.47754  0.97682  1.0000
  H   H6779     1.0  0.98469  0.42733  0.82071  1.0000
  C   C3821     1.0  0.52677  0.31406  0.94544  1.0000
  C   C3822     1.0  0.69320  0.46155  0.97716  1.0000
  H   H6780     1.0  0.54467  0.33228  0.95712  1.0000
  C   C3823     1.0  0.78890  0.47221  0.98205  1.0000
  H   H6781     1.0  0.62118  0.48537  0.97362  1.0000
  C   C3824     1.0  0.68248  0.47169  0.97472  1.0000
  H   H6782     1.0  0.99279  0.37791  0.77943  1.0000
  C   C3825     1.0  0.73202  0.48598  0.96694  1.0000
  H   H6783     1.0  0.57296  0.40054  0.98300  1.0000
  C   C3826     1.0  0.97301  0.40266  0.75495  1.0000
  C   C3827     1.0  0.69098  0.44509  0.96378  1.0000
  H   H6784     1.0  0.94140  0.45693  0.82537  1.0000
  H   H6785     1.0  0.98789  0.41298  0.76950  1.0000
  H   H6786     1.0  0.59933  0.37840  0.97852  1.0000
  H   H6787     1.0  0.79751  0.44087  0.92933  1.0000
  C   C3828     1.0  0.93334  0.49017  0.97962  1.0000
  C   C3829     1.0  0.94477  0.47962  0.75797  1.0000
  C   C3830     1.0  0.79690  0.43427  0.93741  1.0000
  C   C3831     1.0  0.79211  0.42461  0.90882  1.0000
  Fe  Fe424     1.0  0.98397  0.47928  0.85888  1.0000
  H   H6788     1.0  0.98402  0.44656  0.82244  1.0000
  C   C3832     1.0  0.55537  0.35994  0.97914  1.0000
  H   H6789     1.0  0.83711  0.47198  0.94142  1.0000
  H   H6790     1.0  0.97691  0.39674  0.90729  1.0000
  H   H6791     1.0  0.67742  0.46947  0.96967  1.0000
  H   H6792     1.0  0.80814  0.46861  0.97885  1.0000
  H   H6793     1.0  0.84717  0.47953  0.90368  1.0000
  H   H6794     1.0  0.73436  0.43203  0.92248  1.0000
  C   C3833     1.0  0.70093  0.37099  0.96390  1.0000
  H   H6795     1.0  0.51831  0.30250  0.98687  1.0000
  C   C3834     1.0  0.95326  0.40395  0.75097  1.0000
  Fe  Fe425     1.0  0.58465  0.34637  0.97646  1.0000
  S   S854      1.0  0.50648  0.28085  0.98127  1.0000
  C   C3835     1.0  0.86837  0.46663  0.95671  1.0000
  H   H6796     1.0  0.80010  0.40042  0.88375  1.0000
  H   H6797     1.0  0.94677  0.46286  0.93878  1.0000
  H   H6798     1.0  0.64306  0.40570  0.94984  1.0000
  H   H6799     1.0  0.65327  0.36675  0.93469  1.0000
  H   H6800     1.0  0.75765  0.48032  0.95044  1.0000
  C   C3836     1.0  0.97884  0.45068  0.81553  1.0000
  C   C3837     1.0  0.95840  0.45755  0.81269  1.0000
  H   H6801     1.0  0.75359  0.46589  0.97901  1.0000
  C   C3838     1.0  0.79826  0.46489  0.93746  1.0000
  C   C3839     1.0  0.77537  0.45534  0.95835  1.0000
  H   H6802     1.0  0.66666  0.37202  0.92919  1.0000
  H   H6803     1.0  0.80510  0.40538  0.98501  1.0000
  C   C3840     1.0  0.87216  0.43828  0.97719  1.0000
  C   C3841     1.0  0.98021  0.46360  0.81060  1.0000
  H   H6804     1.0  0.98354  0.44619  0.80808  1.0000
  H   H6805     1.0  0.54256  0.24810  0.92563  1.0000
  H   H6806     1.0  0.58865  0.39022  0.95506  1.0000
  H   H6807     1.0  0.76197  0.42323  0.90065  1.0000
  H   H6808     1.0  0.86050  0.43122  0.97219  1.0000
  H   H6809     1.0  0.95399  0.44543  0.83672  1.0000
  H   H6810     1.0  0.78722  0.39118  0.92315  1.0000
  H   H6811     1.0  0.96612  0.41264  0.82697  1.0000
  C   C3842     1.0  0.95532  0.48997  0.83367  1.0000
  C   C3843     1.0  0.76464  0.47695  0.94320  1.0000
  H   H6812     1.0  0.96700  0.48099  0.75258  1.0000
  C   C3844     1.0  0.80557  0.42146  0.95351  1.0000
  H   H6813     1.0  0.60843  0.27216  0.97620  1.0000
  H   H6814     1.0  0.58490  0.36955  0.97605  1.0000
  H   H6815     1.0  0.93179  0.43152  0.94790  1.0000
  H   H6816     1.0  0.51717  0.31762  0.94852  1.0000
  H   H6817     1.0  0.76338  0.46817  0.94348  1.0000
  H   H6818     1.0  0.77914  0.45201  0.95015  1.0000
  C   C3845     1.0  0.97496  0.41451  0.82273  1.0000
  C   C3846     1.0  0.78598  0.47176  0.93500  1.0000
  C   C3847     1.0  0.96792  0.41462  0.90043  1.0000
  H   H6819     1.0  0.66666  0.35755  0.93867  1.0000
  H   H6820     1.0  0.96862  0.44286  0.83808  1.0000
  H   H6821     1.0  0.52646  0.35474  0.94937  1.0000
  H   H6822     1.0  0.85897  0.46882  0.95624  1.0000
  H   H6823     1.0  0.97568  0.44465  0.74569  1.0000
  H   H6824     1.0  0.54176  0.35084  0.94185  1.0000
  H   H6825     1.0  0.97762  0.46704  0.80197  1.0000
  H   H6826     1.0  0.54658  0.36342  0.96507  1.0000
  H   H6827     1.0  0.95390  0.41586  0.91562  1.0000
  H   H6828     1.0  0.96927  0.47095  0.77329  1.0000
  C   C3848     1.0  0.96514  0.45820  0.75528  1.0000
  C   C3849     1.0  0.96664  0.43662  0.81882  1.0000
  H   H6829     1.0  0.96854  0.43644  0.80935  1.0000
  C   C3850     1.0  0.80629  0.43018  0.94316  1.0000
  H   H6830     1.0  0.53515  0.33460  0.93921  1.0000
  H   H6831     1.0  0.59105  0.29015  0.98579  1.0000
  Fe  Fe426     1.0  0.82976  0.42795  0.95592  1.0000
  H   H6832     1.0  0.67127  0.37075  0.98573  1.0000
  H   H6833     1.0  0.84500  0.39416  0.96756  1.0000
  H   H6834     1.0  0.96194  0.45697  0.80330  1.0000
  H   H6835     1.0  0.96212  0.44130  0.75533  1.0000
  C   C3851     1.0  0.96303  0.48411  0.74474  1.0000
  C   C3852     1.0  0.95311  0.46023  0.84921  1.0000
  H   H6836     1.0  0.77832  0.43784  0.96936  1.0000
  H   H6837     1.0  0.54487  0.33799  0.97708  1.0000
  Fe  Fe427     1.0  0.73694  0.41968  0.95178  1.0000
  H   H6838     1.0  0.87400  0.49000  0.89648  1.0000
  H   H6839     1.0  0.73838  0.41836  0.91780  1.0000
  H   H6840     1.0  0.95820  0.46668  0.81281  1.0000
  C   C3853     1.0  0.95975  0.46085  0.83638  1.0000
  C   C3854     1.0  0.94540  0.45651  0.81603  1.0000
  C   C3855     1.0  0.66384  0.36767  0.97244  1.0000
  C   C3856     1.0  0.71792  0.40003  0.96726  1.0000
  C   C3857     1.0  0.55852  0.27724  0.98558  1.0000
  H   H6841     1.0  0.94404  0.45919  0.85037  1.0000
  H   H6842     1.0  0.94968  0.47636  0.76513  1.0000
  S   S855      1.0  0.88605  0.44979  0.98161  1.0000
  H   H6843     1.0  0.95431  0.46794  0.83094  1.0000
  H   H6844     1.0  0.52964  0.33652  0.96492  1.0000
  H   H6845     1.0  0.52169  0.33499  0.94959  1.0000
  C   C3858     1.0  0.70983  0.39476  0.97652  1.0000
  H   H6846     1.0  0.57248  0.31565  0.92731  1.0000
  H   H6847     1.0  0.51975  0.31900  0.96727  1.0000
  H   H6848     1.0  0.70126  0.43182  0.98665  1.0000
  C   C3859     1.0  0.66279  0.36991  0.98469  1.0000
  H   H6849     1.0  0.95254  0.46841  0.85190  1.0000
  H   H6850     1.0  0.63042  0.28833  0.97486  1.0000
  H   H6851     1.0  0.67550  0.45079  0.97681  1.0000
  H   H6852     1.0  0.96240  0.43697  0.88778  1.0000
  Fe  Fe428     1.0  0.83546  0.44509  0.96608  1.0000
  C   C3860     1.0  0.74960  0.48447  0.93050  1.0000
  C   C3861     1.0  0.78666  0.42993  0.94219  1.0000
  H   H6853     1.0  0.50488  0.25885  0.97742  1.0000
  C   C3862     1.0  0.62586  0.37862  0.97862  1.0000
  C   C3863     1.0  0.76257  0.41778  0.90957  1.0000
  C   C3864     1.0  0.70251  0.40966  0.95657  1.0000
  H   H6854     1.0  0.60608  0.41195  0.99064  1.0000
  H   H6855     1.0  0.59923  0.37640  0.95789  1.0000
  C   C3865     1.0  0.77507  0.40840  0.92382  1.0000
  S   S856      1.0  0.52004  0.28439  0.92696  1.0000
  C   C3866     1.0  0.84347  0.48784  0.93333  1.0000
  Fe  Fe429     1.0  0.91959  0.46532  0.94988  1.0000
  H   H6856     1.0  0.96157  0.41864  0.89464  1.0000
  C   C3867     1.0  0.84616  0.48183  0.91195  1.0000
  S   S857      1.0  0.84101  0.42561  0.96853  1.0000
  C   C3868     1.0  0.93809  0.46656  0.80848  1.0000
  H   H6857     1.0  0.63587  0.25653  0.95531  1.0000
  H   H6858     1.0  0.53836  0.31109  0.92864  1.0000
  H   H6859     1.0  0.77407  0.41343  0.88774  1.0000
  H   H6860     1.0  0.52794  0.30436  0.94781  1.0000
  C   C3869     1.0  0.53423  0.36243  0.98188  1.0000
  H   H6861     1.0  0.77303  0.41496  0.92934  1.0000
  H   H6862     1.0  0.69969  0.41535  0.94880  1.0000
  H   H6863     1.0  0.78952  0.44288  0.90976  1.0000
  H   H6864     1.0  0.90131  0.43590  0.96471  1.0000
  H   H6865     1.0  0.92905  0.48156  0.74536  1.0000
  H   H6866     1.0  0.77000  0.49108  0.95314  1.0000
  H   H6867     1.0  0.53406  0.31663  0.96962  1.0000
  H   H6868     1.0  0.51108  0.27141  0.91305  1.0000
  H   H6869     1.0  0.70005  0.43957  0.96320  1.0000
  S   S858      1.0  0.82291  0.44737  0.95474  1.0000
  H   H6870     1.0  0.55558  0.32671  0.93954  1.0000
  H   H6871     1.0  0.77794  0.39128  0.94426  1.0000
  H   H6872     1.0  0.79530  0.44008  0.89507  1.0000
  H   H6873     1.0  0.52177  0.25959  0.90714  1.0000
  C   C3870     1.0  0.59705  0.39960  0.98907  1.0000
  H   H6874     1.0  0.92571  0.49091  0.97595  1.0000
  Fe  Fe430     1.0  0.83873  0.44864  0.93976  1.0000
  C   C3871     1.0  0.74592  0.46935  0.97532  1.0000
  C   C3872     1.0  0.78895  0.48933  0.94733  1.0000
  S   S859      1.0  0.81729  0.41594  0.96072  1.0000
  H   H6875     1.0  0.86518  0.44251  0.98349  1.0000
  H   H6876     1.0  0.80463  0.43544  0.90548  1.0000
  H   H6877     1.0  0.70340  0.37798  0.95616  1.0000
  H   H6878     1.0  0.79112  0.40619  0.87302  1.0000
  C   C3873     1.0  0.75319  0.42484  0.91829  1.0000
  C   C3874     1.0  0.56684  0.31080  0.93489  1.0000
  H   H6879     1.0  0.77810  0.43101  0.89922  1.0000
  C   C3875     1.0  0.84928  0.49203  0.91207  1.0000
  C   C3876     1.0  0.97305  0.43451  0.90785  1.0000
  H   H6880     1.0  0.96739  0.46324  0.92790  1.0000
  C   C3877     1.0  0.78238  0.40645  0.90302  1.0000
  C   C3878     1.0  0.78591  0.42131  0.95260  1.0000
  C   C3879     1.0  0.52960  0.30085  0.96956  1.0000
  C   C3880     1.0  0.58408  0.37912  0.97246  1.0000
  N   N214      1.0  0.77510  0.41460  0.91112  1.0000
  H   H6881     1.0  0.74279  0.48771  0.93790  1.0000
  C   C3881     1.0  0.80721  0.46297  0.92607  1.0000
  H   H6882     1.0  0.65411  0.46726  0.97465  1.0000
  H   H6883     1.0  0.67536  0.44547  0.95810  1.0000
  H   H6884     1.0  0.78484  0.41717  0.98677  1.0000
  S   S860      1.0  0.50036  0.35023  0.95970  1.0000
  H   H6885     1.0  0.53801  0.35379  0.95635  1.0000
  S   S861      1.0  0.90056  0.47406  0.95597  1.0000
  C   C3882     1.0  0.86948  0.43190  0.97072  1.0000
  H   H6886     1.0  0.88280  0.48992  0.93944  1.0000
  C   C3883     1.0  0.74030  0.46163  0.97357  1.0000
  C   C3884     1.0  0.59032  0.38407  0.97886  1.0000
  H   H6887     1.0  0.94486  0.48939  0.96240  1.0000
  H   H6888     1.0  0.97667  0.43405  0.89847  1.0000
  C   C3885     1.0  0.73056  0.46607  0.96846  1.0000
  S   S862      1.0  0.84474  0.42931  0.94008  1.0000
  C   C3886     1.0  0.94435  0.43063  0.93126  1.0000
  Fe  Fe431     1.0  0.85531  0.42899  0.95266  1.0000
  C   C3887     1.0  0.89247  0.43465  0.96652  1.0000
  H   H6889     1.0  0.57106  0.30811  0.94252  1.0000
  C   C3888     1.0  0.77930  0.42585  0.90808  1.0000
  C   C3889     1.0  0.52905  0.31420  0.96468  1.0000
  C   C3890     1.0  0.84057  0.47750  0.93322  1.0000
  H   H6890     1.0  0.94133  0.44457  0.88669  1.0000
  H   H6891     1.0  0.77807  0.41785  0.95634  1.0000
  H   H6892     1.0  0.58538  0.37666  0.95508  1.0000
  H   H6893     1.0  0.55080  0.31076  0.95611  1.0000
  H   H6894     1.0  0.53085  0.32631  0.92815  1.0000
  H   H6895     1.0  0.80940  0.47143  0.92072  1.0000
  Fe  Fe432     1.0  0.75868  0.42969  0.94723  1.0000
  H   H6896     1.0  0.78641  0.41950  0.88654  1.0000
  N   N215      1.0  0.53371  0.31797  0.95160  1.0000
  H   H6897     1.0  0.52668  0.36380  0.97823  1.0000
  H   H6898     1.0  0.76569  0.48642  0.98720  1.0000
  N   N216      1.0  0.69062  0.44967  0.98349  1.0000
  H   H6899     1.0  0.68918  0.43960  0.94896  1.0000
  H   H6900     1.0  0.55280  0.30184  0.97620  1.0000
  H   H6901     1.0  0.79163  0.40354  0.90397  1.0000
  H   H6902     1.0  0.95045  0.45433  0.87703  1.0000
  C   C3891     1.0  0.74086  0.42688  0.91623  1.0000
  H   H6903     1.0  0.85155  0.46661  0.97895  1.0000
  H   H6904     1.0  0.97381  0.39905  0.89306  1.0000
  C   C3892     1.0  0.52996  0.31711  0.93182  1.0000
  H   H6905     1.0  0.70870  0.44190  0.97625  1.0000
  C   C3893     1.0  0.63491  0.26643  0.93790  1.0000
  H   H6906     1.0  0.55357  0.24357  0.94682  1.0000
  H   H6907     1.0  0.86497  0.47026  0.93516  1.0000
  C   C3894     1.0  0.62915  0.38249  0.98686  1.0000
  H   H6908     1.0  0.64422  0.26764  0.94991  1.0000
  H   H6909     1.0  0.60430  0.39726  0.98155  1.0000
  S   S863      1.0  0.83918  0.46120  0.92225  1.0000
  H   H6910     1.0  0.76576  0.45580  0.96064  1.0000
  S   S864      1.0  0.85049  0.44842  0.95101  1.0000
  H   H6911     1.0  0.54952  0.27974  0.98383  1.0000
  C   C3895     1.0  0.68438  0.43994  0.95816  1.0000
  H   H6912     1.0  0.52726  0.25127  0.94483  1.0000
  H   H6913     1.0  0.64127  0.26242  0.97031  1.0000
  C   C3896     1.0  0.54664  0.31218  0.94861  1.0000
  H   H6914     1.0  0.75963  0.40965  0.91035  1.0000
  H   H6915     1.0  0.56635  0.30279  0.93251  1.0000
  H   H6916     1.0  0.97584  0.40551  0.74520  1.0000
  C   C3897     1.0  0.69431  0.40472  0.96603  1.0000
  S   S865      1.0  0.68820  0.38997  0.98750  1.0000
  S   S866      1.0  0.65853  0.41078  0.97889  1.0000
  H   H6917     1.0  0.62987  0.48689  0.98951  1.0000
  Fe  Fe433     1.0  0.90764  0.48217  0.96616  1.0000
  C   C3898     1.0  0.51297  0.26619  0.98647  1.0000
  S   S867      1.0  0.99567  0.47757  0.87084  1.0000
  H   H6918     1.0  0.59148  0.39284  0.97335  1.0000
  C   C3899     1.0  0.69800  0.39717  0.97599  1.0000
  H   H6919     1.0  0.97296  0.46174  0.75393  1.0000
  H   H6920     1.0  0.85469  0.38258  0.97555  1.0000
  H   H6921     1.0  0.85215  0.48200  0.97335  1.0000
  H   H6922     1.0  0.49933  0.31827  0.98698  1.0000
  H   H6923     1.0  0.84685  0.39908  0.98543  1.0000
  H   H6924     1.0  0.61447  0.47129  0.98721  1.0000
  Fe  Fe434     1.0  0.50314  0.28603  0.94066  1.0000
  H   H6925     1.0  0.65393  0.48082  0.98664  1.0000
  H   H6926     1.0  0.64982  0.27706  0.96279  1.0000
  C   C3900     1.0  0.93795  0.49235  0.75899  1.0000
  H   H6927     1.0  0.79086  0.48487  0.99048  1.0000
  S   S868      1.0  0.99067  0.47932  0.76284  1.0000
  H   H6928     1.0  0.94423  0.47520  0.97205  1.0000
  Fe  Fe435     1.0  0.60498  0.34238  0.98822  1.0000
  H   H6929     1.0  0.93411  0.48853  0.77818  1.0000
  H   H6930     1.0  0.98360  0.41342  0.86971  1.0000
  C   C3901     1.0  0.79154  0.42026  0.98900  1.0000
  H   H6931     1.0  0.99368  0.47371  0.80461  1.0000
  H   H6932     1.0  0.58495  0.24737  0.87835  1.0000
  H   H6933     1.0  0.76829  0.48140  0.92378  1.0000
  H   H6934     1.0  0.56227  0.30540  0.98312  1.0000
  H   H6935     1.0  0.72642  0.43760  0.98590  1.0000
  H   H6936     1.0  0.99416  0.44940  0.75518  1.0000
  H   H6937     1.0  0.54225  0.32336  0.98133  1.0000
  H   H6938     1.0  0.59767  0.25583  0.98463  1.0000
  C   C3902     1.0  0.57335  0.25914  0.99148  1.0000
  H   H6939     1.0  0.87580  0.48739  0.91711  1.0000
  C   C3903     1.0  0.65064  0.45314  0.98954  1.0000
  H   H6940     1.0  0.99193  0.38248  0.79808  1.0000
  H   H6941     1.0  0.92252  0.48769  0.77199  1.0000
  H   H6942     1.0  0.95831  0.48788  0.85092  1.0000
  S   S869      1.0  0.61072  0.32322  0.98737  1.0000
  H   H6943     1.0  0.94958  0.41250  0.75371  1.0000
  C   C3904     1.0  0.62028  0.49053  0.98996  1.0000
  C   C3905     1.0  0.65212  0.47225  0.99093  1.0000
  N   N217      1.0  0.58423  0.38499  0.99140  1.0000
  Fe  Fe436     1.0  0.64414  0.40235  0.99151  1.0000
  H   H6944     1.0  0.99574  0.46175  0.81706  1.0000
  Fe  Fe437     1.0  0.49605  0.35241  0.97842  1.0000
  C   C3906     1.0  0.81437  0.49260  0.98961  1.0000
  H   H6945     1.0  0.86725  0.49293  0.93977  1.0000
  H   H6946     1.0  0.59816  0.48610  0.99167  1.0000
  H   H6947     1.0  0.67922  0.54052  0.02714  1.0000
  S   S870      1.0  0.63706  0.51048  0.01306  1.0000
  H   H6948     1.0  0.54308  0.71612  0.03609  1.0000
  H   H6949     1.0  0.71037  0.49830  0.00463  1.0000
  H   H6950     1.0  0.59836  0.71875  0.99583  1.0000
  C   C3907     1.0  0.52823  0.71416  0.05827  1.0000
  H   H6951     1.0  0.99290  0.54568  0.19561  1.0000
  H   H6952     1.0  0.79487  0.54922  0.99362  1.0000
  S   S871      1.0  0.93876  0.51291  0.20947  1.0000
  C   C3908     1.0  0.59321  0.69768  0.99499  1.0000
  H   H6953     1.0  0.51659  0.66291  0.05295  1.0000
  H   H6954     1.0  0.87810  0.51239  0.02629  1.0000
  H   H6955     1.0  0.81217  0.53950  0.00278  1.0000
  Fe  Fe438     1.0  0.71925  0.52264  0.02958  1.0000
  S   S872      1.0  0.71113  0.51896  0.04876  1.0000
  C   C3909     1.0  0.50758  0.58879  0.01548  1.0000
  Fe  Fe439     1.0  0.72801  0.50572  0.05008  1.0000
  S   S873      1.0  0.73781  0.50452  0.06363  1.0000
  Fe  Fe440     1.0  0.70529  0.50489  0.04482  1.0000
  S   S874      1.0  0.68692  0.50235  0.05239  1.0000
  C   C3910     1.0  0.68483  0.54677  0.02177  1.0000
  H   H6956     1.0  0.77189  0.50681  0.03718  1.0000
  Fe  Fe441     1.0  0.55088  0.65633  0.04682  1.0000
  H   H6957     1.0  0.99189  0.52875  0.21356  1.0000
  S   S875      1.0  0.55561  0.63691  0.04723  1.0000
  Fe  Fe442     1.0  0.55581  0.67715  0.05237  1.0000
  S   S876      1.0  0.54309  0.69023  0.04243  1.0000
  S   S877      1.0  0.56525  0.68352  0.06195  1.0000
  Fe  Fe443     1.0  0.53132  0.67771  0.05127  1.0000
  C   C3911     1.0  0.53966  0.67178  0.99399  1.0000
  H   H6958     1.0  0.68143  0.54937  0.99975  1.0000
  S   S878      1.0  0.54353  0.66513  0.06225  1.0000
  C   C3912     1.0  0.92840  0.50349  0.18348  1.0000
  H   H6959     1.0  0.70650  0.53522  0.06802  1.0000
  C   C3913     1.0  0.60347  0.55467  0.00767  1.0000
  C   C3914     1.0  0.50467  0.72028  0.99928  1.0000
  H   H6960     1.0  0.58354  0.72485  0.01426  1.0000
  C   C3915     1.0  0.95563  0.49466  0.21771  1.0000
  C   C3916     1.0  0.72895  0.53411  0.00104  1.0000
  H   H6961     1.0  0.69282  0.55161  0.10074  1.0000
  H   H6962     1.0  0.94141  0.52756  0.16978  1.0000
  H   H6963     1.0  0.50806  0.72210  0.00597  1.0000
  C   C3917     1.0  0.93539  0.49899  0.00601  1.0000
  H   H6964     1.0  0.72192  0.50570  0.99556  1.0000
  H   H6965     1.0  0.57760  0.55743  0.00052  1.0000
  C   C3918     1.0  0.85077  0.50018  0.00146  1.0000
  H   H6966     1.0  0.49709  0.67391  0.99390  1.0000
  S   S879      1.0  0.80848  0.51941  0.02987  1.0000
  H   H6967     1.0  0.59169  0.68160  0.01756  1.0000
  H   H6968     1.0  0.81419  0.50636  0.01060  1.0000
  Fe  Fe444     1.0  0.79258  0.52313  0.04443  1.0000
  S   S880      1.0  0.77545  0.53584  0.04195  1.0000
  S   S881      1.0  0.73662  0.51032  0.03105  1.0000
  H   H6969     1.0  0.95021  0.54094  0.22074  1.0000
  H   H6970     1.0  0.69205  0.56590  0.09077  1.0000
  S   S882      1.0  0.98335  0.52852  0.18002  1.0000
  H   H6971     1.0  0.50187  0.72063  0.04562  1.0000
  H   H6972     1.0  0.97419  0.55090  0.12519  1.0000
  H   H6973     1.0  0.52978  0.68198  0.01149  1.0000
  C   C3919     1.0  0.85924  0.51711  0.03183  1.0000
  H   H6974     1.0  0.85863  0.52617  0.02712  1.0000
  C   C3920     1.0  0.96286  0.51824  0.15073  1.0000
  C   C3921     1.0  0.95542  0.52574  0.14351  1.0000
  C   C3922     1.0  0.94856  0.52122  0.13911  1.0000
  H   H6975     1.0  0.90530  0.50587  0.04747  1.0000
  H   H6976     1.0  0.73691  0.53607  0.06493  1.0000
  C   C3923     1.0  0.96344  0.50610  0.15352  1.0000
  H   H6977     1.0  0.95503  0.53509  0.14122  1.0000
  H   H6978     1.0  0.94283  0.52713  0.13353  1.0000
  H   H6979     1.0  0.61168  0.49893  0.01246  1.0000
  H   H6980     1.0  0.52334  0.60652  0.01822  1.0000
  H   H6981     1.0  0.87329  0.51875  0.05862  1.0000
  H   H6982     1.0  0.50826  0.61263  0.00149  1.0000
  Fe  Fe445     1.0  0.81885  0.51690  0.04345  1.0000
  C   C3924     1.0  0.94934  0.50911  0.14156  1.0000
  H   H6983     1.0  0.84035  0.51219  0.01300  1.0000
  C   C3925     1.0  0.88224  0.49552  0.06966  1.0000
  C   C3926     1.0  0.71524  0.53310  0.07028  1.0000
  Fe  Fe446     1.0  0.63118  0.51926  0.99620  1.0000
  H   H6984     1.0  0.64476  0.49629  0.05661  1.0000
  H   H6985     1.0  0.51680  0.64966  0.01024  1.0000
  H   H6986     1.0  0.89722  0.51733  0.06370  1.0000
  H   H6987     1.0  0.52989  0.64255  0.03020  1.0000
  C   C3927     1.0  0.89060  0.49873  0.08418  1.0000
  H   H6988     1.0  0.59973  0.61446  0.99969  1.0000
  H   H6989     1.0  0.55567  0.65182  0.02408  1.0000
  H   H6990     1.0  0.93692  0.51097  0.16540  1.0000
  H   H6991     1.0  0.75037  0.54060  0.07963  1.0000
  H   H6992     1.0  0.88811  0.49342  0.99561  1.0000
  C   C3928     1.0  0.69326  0.54196  0.01133  1.0000
  S   S883      1.0  0.53744  0.66792  0.03676  1.0000
  C   C3929     1.0  0.56431  0.69875  0.05909  1.0000
  C   C3930     1.0  0.56230  0.70630  0.04841  1.0000
  C   C3931     1.0  0.56213  0.71835  0.04636  1.0000
  C   C3932     1.0  0.56366  0.72286  0.05512  1.0000
  C   C3933     1.0  0.56544  0.71534  0.06581  1.0000
  C   C3934     1.0  0.56595  0.70332  0.06771  1.0000
  H   H6993     1.0  0.56115  0.70281  0.04167  1.0000
  H   H6994     1.0  0.56077  0.72414  0.03806  1.0000
  H   H6995     1.0  0.56666  0.71876  0.07260  1.0000
  H   H6996     1.0  0.56757  0.69754  0.07594  1.0000
  C   C3935     1.0  0.74756  0.51404  0.05821  1.0000
  C   C3936     1.0  0.74659  0.52291  0.04808  1.0000
  C   C3937     1.0  0.75481  0.53004  0.04342  1.0000
  C   C3938     1.0  0.76414  0.52819  0.04878  1.0000
  C   C3939     1.0  0.76467  0.51983  0.05932  1.0000
  C   C3940     1.0  0.75639  0.51277  0.06404  1.0000
  H   H6997     1.0  0.73950  0.52434  0.04382  1.0000
  H   H6998     1.0  0.75420  0.53665  0.03540  1.0000
  H   H6999     1.0  0.77159  0.51867  0.06378  1.0000
  H   H7000     1.0  0.75708  0.50609  0.07200  1.0000
  C   C3941     1.0  0.50799  0.66787  0.05158  1.0000
  C   C3942     1.0  0.86023  0.49843  0.07101  1.0000
  C   C3943     1.0  0.97417  0.56358  0.22527  1.0000
  H   H7001     1.0  0.86753  0.50861  0.07771  1.0000
  H   H7002     1.0  0.50683  0.72854  0.06537  1.0000
  C   C3944     1.0  0.61502  0.62708  0.99252  1.0000
  Fe  Fe447     1.0  0.72849  0.49686  0.02913  1.0000
  C   C3945     1.0  0.58547  0.61124  0.01424  1.0000
  S   S884      1.0  0.71774  0.54170  0.02143  1.0000
  C   C3946     1.0  0.96963  0.55907  0.20565  1.0000
  C   C3947     1.0  0.66358  0.52251  0.02644  1.0000
  C   C3948     1.0  0.67377  0.51420  0.02302  1.0000
  C   C3949     1.0  0.68131  0.50842  0.03077  1.0000
  C   C3950     1.0  0.67821  0.51035  0.04222  1.0000
  C   C3951     1.0  0.66784  0.51841  0.04572  1.0000
  C   C3952     1.0  0.66072  0.52473  0.03773  1.0000
  C   C3953     1.0  0.69036  0.55700  0.09240  1.0000
  H   H7003     1.0  0.68935  0.50225  0.02799  1.0000
  H   H7004     1.0  0.66544  0.51994  0.05454  1.0000
  H   H7005     1.0  0.65287  0.53120  0.04037  1.0000
  C   C3954     1.0  0.73106  0.54107  0.07159  1.0000
  S   S885      1.0  0.51238  0.68569  0.05808  1.0000
  Fe  Fe448     1.0  0.55694  0.61052  0.99598  1.0000
  H   H7006     1.0  0.69428  0.55660  0.07414  1.0000
  H   H7007     1.0  0.87905  0.53747  0.05655  1.0000
  H   H7008     1.0  0.51258  0.66379  0.02421  1.0000
  H   H7009     1.0  0.72417  0.54177  0.04613  1.0000
  H   H7010     1.0  0.71392  0.56107  0.03595  1.0000
  H   H7011     1.0  0.97868  0.51457  0.11837  1.0000
  H   H7012     1.0  0.99486  0.56437  0.15600  1.0000
  H   H7013     1.0  0.86840  0.49370  0.08574  1.0000
  H   H7014     1.0  0.90131  0.51129  0.08266  1.0000
  Fe  Fe449     1.0  0.80799  0.50053  0.03769  1.0000
  C   C3955     1.0  0.59600  0.71213  0.00402  1.0000
  H   H7015     1.0  0.72439  0.56808  0.03787  1.0000
  H   H7016     1.0  0.49920  0.73880  0.01193  1.0000
  C   C3956     1.0  0.51902  0.58786  0.00825  1.0000
  C   C3957     1.0  0.72303  0.55973  0.03700  1.0000
  H   H7017     1.0  0.50769  0.63080  0.01029  1.0000
  C   C3958     1.0  0.86099  0.49364  0.04397  1.0000
  H   H7018     1.0  0.50739  0.61023  0.02237  1.0000
  S   S886      1.0  0.95460  0.53539  0.18389  1.0000
  H   H7019     1.0  0.75457  0.56100  0.00152  1.0000
  H   H7020     1.0  0.67958  0.53550  0.00860  1.0000
  H   H7021     1.0  0.50592  0.59037  0.02420  1.0000
  C   C3959     1.0  0.53199  0.70161  0.07794  1.0000
  C   C3960     1.0  0.58139  0.69976  0.01457  1.0000
  C   C3961     1.0  0.58999  0.68961  0.02104  1.0000
  H   H7022     1.0  0.58702  0.69278  0.99447  1.0000
  H   H7023     1.0  0.89571  0.49368  0.10617  1.0000
  C   C3962     1.0  0.88884  0.51428  0.06626  1.0000
  H   H7024     1.0  0.80938  0.49633  0.09897  1.0000
  C   C3963     1.0  0.58491  0.68659  0.03422  1.0000
  Fe  Fe450     1.0  0.64947  0.49705  0.00317  1.0000
  C   C3964     1.0  0.59655  0.61646  0.00857  1.0000
  H   H7025     1.0  0.91665  0.50328  0.00946  1.0000
  C   C3965     1.0  0.52656  0.67210  0.99515  1.0000
  C   C3966     1.0  0.93672  0.51130  0.00536  1.0000
  C   C3967     1.0  0.98829  0.49689  0.11953  1.0000
  H   H7026     1.0  0.94492  0.51065  0.00807  1.0000
  C   C3968     1.0  0.52392  0.64141  0.02537  1.0000
  H   H7027     1.0  0.57619  0.70594  0.02042  1.0000
  H   H7028     1.0  0.57477  0.69561  0.01360  1.0000
  H   H7029     1.0  0.59858  0.69173  0.01984  1.0000
  H   H7030     1.0  0.92913  0.49904  0.23832  1.0000
  N   N218      1.0  0.78219  0.53080  0.99953  1.0000
  H   H7031     1.0  0.59145  0.71216  0.02292  1.0000
  H   H7032     1.0  0.56362  0.70646  0.00155  1.0000
  H   H7033     1.0  0.53365  0.69356  0.07452  1.0000
  C   C3969     1.0  0.56564  0.68118  0.00119  1.0000
  C   C3970     1.0  0.88329  0.53185  0.05000  1.0000
  H   H7034     1.0  0.96969  0.49700  0.12638  1.0000
  H   H7035     1.0  0.57681  0.63454  0.00660  1.0000
  H   H7036     1.0  0.58233  0.62931  0.02488  1.0000
  H   H7037     1.0  0.57585  0.68534  0.03598  1.0000
  H   H7038     1.0  0.59042  0.67835  0.03837  1.0000
  H   H7039     1.0  0.58474  0.69374  0.03835  1.0000
  H   H7040     1.0  0.57257  0.72148  0.00401  1.0000
  C   C3971     1.0  0.50160  0.66869  0.00108  1.0000
  H   H7041     1.0  0.53776  0.71403  0.05644  1.0000
  H   H7042     1.0  0.92598  0.55114  0.21423  1.0000
  H   H7043     1.0  0.50865  0.66213  0.99702  1.0000
  H   H7044     1.0  0.59842  0.64684  0.01735  1.0000
  H   H7045     1.0  0.49963  0.64215  0.07153  1.0000
  H   H7046     1.0  0.90874  0.49601  0.08597  1.0000
  H   H7047     1.0  0.72815  0.52537  0.00600  1.0000
  H   H7048     1.0  0.60019  0.69082  0.99886  1.0000
  H   H7049     1.0  0.58268  0.64972  0.01940  1.0000
  C   C3972     1.0  0.58574  0.66953  0.99886  1.0000
  H   H7050     1.0  0.85131  0.50075  0.07662  1.0000
  C   C3973     1.0  0.54481  0.74081  0.08448  1.0000
  S   S887      1.0  0.81947  0.49769  0.05011  1.0000
  C   C3974     1.0  0.68640  0.54044  0.00309  1.0000
  C   C3975     1.0  0.87026  0.50930  0.03136  1.0000
  H   H7051     1.0  0.77561  0.54294  0.01134  1.0000
  H   H7052     1.0  0.88193  0.50330  0.08879  1.0000
  H   H7053     1.0  0.51494  0.70909  0.07405  1.0000
  H   H7054     1.0  0.75804  0.53476  0.01330  1.0000
  H   H7055     1.0  0.91016  0.49862  0.06698  1.0000
  H   H7056     1.0  0.82490  0.49374  0.08063  1.0000
  H   H7057     1.0  0.83323  0.51155  0.00201  1.0000
  C   C3976     1.0  0.50889  0.72817  0.05598  1.0000
  S   S888      1.0  0.55255  0.59349  0.00704  1.0000
  H   H7058     1.0  0.86049  0.50464  0.06232  1.0000
  C   C3977     1.0  0.95670  0.50154  0.14890  1.0000
  H   H7059     1.0  0.77466  0.50055  0.02458  1.0000
  H   H7060     1.0  0.93520  0.49406  0.01523  1.0000
  C   C3978     1.0  0.58911  0.64323  0.03525  1.0000
  C   C3979     1.0  0.93732  0.51039  0.17453  1.0000
  H   H7061     1.0  0.87854  0.53508  0.04273  1.0000
  H   H7062     1.0  0.93502  0.52297  0.18518  1.0000
  S   S889      1.0  0.79837  0.49374  0.08126  1.0000
  H   H7063     1.0  0.84494  0.51918  0.99779  1.0000
  C   C3980     1.0  0.81529  0.50138  0.99449  1.0000
  N   N219      1.0  0.51847  0.67387  0.00683  1.0000
  H   H7064     1.0  0.99090  0.53401  0.12669  1.0000
  C   C3981     1.0  0.52041  0.66332  0.01678  1.0000
  C   C3982     1.0  0.52079  0.68421  0.00976  1.0000
  H   H7065     1.0  0.91684  0.49950  0.17043  1.0000
  C   C3983     1.0  0.58859  0.59796  0.01533  1.0000
  H   H7066     1.0  0.85172  0.49989  0.99219  1.0000
  H   H7067     1.0  0.71307  0.51005  0.07412  1.0000
  H   H7068     1.0  0.71094  0.52687  0.08974  1.0000
  H   H7069     1.0  0.67915  0.55542  0.01870  1.0000
  H   H7070     1.0  0.91707  0.49330  0.23811  1.0000
  C   C3984     1.0  0.52338  0.65094  0.01411  1.0000
  C   C3985     1.0  0.77818  0.51793  0.02051  1.0000
  C   C3986     1.0  0.70903  0.51406  0.08191  1.0000
  H   H7071     1.0  0.55503  0.72784  0.99508  1.0000
  C   C3987     1.0  0.60444  0.53828  0.99943  1.0000
  H   H7072     1.0  0.97238  0.54792  0.11217  1.0000
  H   H7073     1.0  0.52819  0.69960  0.08753  1.0000
  H   H7074     1.0  0.92930  0.50308  0.19247  1.0000
  C   C3988     1.0  0.52118  0.58571  0.99701  1.0000
  H   H7075     1.0  0.49663  0.65740  0.01828  1.0000
  C   C3989     1.0  0.99175  0.52870  0.11040  1.0000
  H   H7076     1.0  0.61922  0.61801  0.99658  1.0000
  H   H7077     1.0  0.89949  0.50026  0.01161  1.0000
  H   H7078     1.0  0.52207  0.71946  0.07550  1.0000
  C   C3990     1.0  0.97144  0.57278  0.21588  1.0000
  H   H7079     1.0  0.50500  0.73721  0.05159  1.0000
  C   C3991     1.0  0.81875  0.49599  0.09841  1.0000
  H   H7080     1.0  0.78722  0.51490  0.02215  1.0000
  C   C3992     1.0  0.90017  0.50239  0.08768  1.0000
  H   H7081     1.0  0.61011  0.71950  0.01339  1.0000
  H   H7082     1.0  0.51502  0.64170  0.03120  1.0000
  H   H7083     1.0  0.68079  0.55795  0.09339  1.0000
  H   H7084     1.0  0.78518  0.51181  0.00459  1.0000
  C   C3993     1.0  0.60121  0.72537  0.01372  1.0000
  C   C3994     1.0  0.77119  0.50874  0.02788  1.0000
  H   H7085     1.0  0.94642  0.50610  0.17566  1.0000
  C   C3995     1.0  0.57525  0.67444  0.00605  1.0000
  H   H7086     1.0  0.52625  0.66394  0.99303  1.0000
  H   H7087     1.0  0.90436  0.50443  0.10311  1.0000
  H   H7088     1.0  0.98749  0.49693  0.11063  1.0000
  C   C3996     1.0  0.88273  0.51905  0.05566  1.0000
  H   H7089     1.0  0.64914  0.50566  0.04243  1.0000
  H   H7090     1.0  0.75333  0.51172  0.99691  1.0000
  C   C3997     1.0  0.77873  0.51969  0.00725  1.0000
  C   C3998     1.0  0.51693  0.69712  0.02437  1.0000
  C   C3999     1.0  0.97211  0.54982  0.21515  1.0000
  H   H7091     1.0  0.70972  0.50697  0.08991  1.0000
  H   H7092     1.0  0.60355  0.61125  0.01344  1.0000
  C   C4000     1.0  0.72535  0.54990  0.04766  1.0000
  C   C4001     1.0  0.56864  0.71171  0.99387  1.0000
  H   H7093     1.0  0.57883  0.61512  0.00874  1.0000
  H   H7094     1.0  0.73578  0.55815  0.06251  1.0000
  H   H7095     1.0  0.54724  0.71784  0.01479  1.0000
  H   H7096     1.0  0.53205  0.64940  0.00793  1.0000
  H   H7097     1.0  0.99458  0.51211  0.23776  1.0000
  C   C4002     1.0  0.59125  0.63102  0.02058  1.0000
  C   C4003     1.0  0.51518  0.62334  0.00842  1.0000
  H   H7098     1.0  0.95870  0.53639  0.23733  1.0000
  H   H7099     1.0  0.72148  0.52892  0.06314  1.0000
  H   H7100     1.0  0.52070  0.69180  0.00209  1.0000
  H   H7101     1.0  0.55358  0.64824  0.00581  1.0000
  H   H7102     1.0  0.98536  0.55674  0.16830  1.0000
  H   H7103     1.0  0.70780  0.55427  0.05784  1.0000
  C   C4004     1.0  0.73627  0.55158  0.07087  1.0000
  H   H7104     1.0  0.89257  0.53263  0.04631  1.0000
  S   S890      1.0  0.79134  0.50434  0.05092  1.0000
  S   S891      1.0  0.61223  0.52524  0.99458  1.0000
  H   H7105     1.0  0.50354  0.69351  0.01853  1.0000
  H   H7106     1.0  0.99492  0.51359  0.09684  1.0000
  H   H7107     1.0  0.57477  0.67329  0.01525  1.0000
  H   H7108     1.0  0.99425  0.56455  0.19899  1.0000
  C   C4005     1.0  0.99392  0.55568  0.16180  1.0000
  C   C4006     1.0  0.92388  0.49956  0.00263  1.0000
  H   H7109     1.0  0.54261  0.66662  0.00213  1.0000
  C   C4007     1.0  0.72574  0.55493  0.00016  1.0000
  H   H7110     1.0  0.94008  0.55346  0.20532  1.0000
  C   C4008     1.0  0.97445  0.55207  0.22493  1.0000
  C   C4009     1.0  0.98730  0.50956  0.12061  1.0000
  H   H7111     1.0  0.54050  0.70404  0.07652  1.0000
  H   H7112     1.0  0.88664  0.51392  0.04872  1.0000
  H   H7113     1.0  0.50439  0.68589  0.99936  1.0000
  C   C4010     1.0  0.52488  0.74024  0.06102  1.0000
  H   H7114     1.0  0.61162  0.63186  0.00893  1.0000
  H   H7115     1.0  0.69463  0.51835  0.00684  1.0000
  H   H7116     1.0  0.94326  0.49483  0.00007  1.0000
  C   C4011     1.0  0.93479  0.55188  0.21449  1.0000
  H   H7117     1.0  0.69957  0.51801  0.08199  1.0000
  N   N220      1.0  0.71848  0.54416  0.07039  1.0000
  C   C4012     1.0  0.59048  0.64343  0.02229  1.0000
  S   S892      1.0  0.96878  0.50741  0.18786  1.0000
  H   H7118     1.0  0.60144  0.73273  0.00584  1.0000
  Fe  Fe451     1.0  0.96978  0.52384  0.17391  1.0000
  C   C4013     1.0  0.60979  0.54411  0.00415  1.0000
  H   H7119     1.0  0.92915  0.51584  0.01135  1.0000
  H   H7120     1.0  0.69897  0.54825  0.00651  1.0000
  H   H7121     1.0  0.51878  0.70460  0.01698  1.0000
  S   S893      1.0  0.65470  0.53074  0.01654  1.0000
  H   H7122     1.0  0.97110  0.58171  0.21612  1.0000
  C   C4014     1.0  0.77386  0.54161  0.00333  1.0000
  C   C4015     1.0  0.89917  0.49391  0.00679  1.0000
  H   H7123     1.0  0.53066  0.73417  0.06683  1.0000
  H   H7124     1.0  0.60444  0.70568  0.00492  1.0000
  H   H7125     1.0  0.67600  0.51251  0.01429  1.0000
  C   C4016     1.0  0.93471  0.52296  0.17615  1.0000
  H   H7126     1.0  0.97669  0.54488  0.23205  1.0000
  H   H7127     1.0  0.62054  0.49563  0.02924  1.0000
  Fe  Fe452     1.0  0.57160  0.58563  0.99973  1.0000
  H   H7128     1.0  0.88892  0.50921  0.10294  1.0000
  H   H7129     1.0  0.71743  0.56182  0.05956  1.0000
  C   C4017     1.0  0.55379  0.64121  0.01351  1.0000
  C   C4018     1.0  0.71682  0.55300  0.05911  1.0000
  C   C4019     1.0  0.79435  0.53055  0.00048  1.0000
  H   H7130     1.0  0.52518  0.69247  0.02740  1.0000
  H   H7131     1.0  0.54853  0.73325  0.09097  1.0000
  H   H7132     1.0  0.69492  0.54245  0.08408  1.0000
  H   H7133     1.0  0.58134  0.61273  0.02323  1.0000
  C   C4020     1.0  0.97891  0.54716  0.11731  1.0000
  H   H7134     1.0  0.52735  0.63262  0.02314  1.0000
  C   C4021     1.0  0.84990  0.50150  0.04440  1.0000
  H   H7135     1.0  0.49973  0.67860  0.01407  1.0000
  N   N221      1.0  0.89117  0.50113  0.07114  1.0000
  H   H7136     1.0  0.53677  0.73348  0.04662  1.0000
  H   H7137     1.0  0.73465  0.54871  0.04795  1.0000
  C   C4022     1.0  0.94023  0.55216  0.24059  1.0000
  Fe  Fe453     1.0  0.96809  0.53851  0.19135  1.0000
  C   C4023     1.0  0.64542  0.49781  0.04702  1.0000
  H   H7138     1.0  0.97245  0.54095  0.21484  1.0000
  C   C4024     1.0  0.86947  0.49939  0.07675  1.0000
  C   C4025     1.0  0.52394  0.72321  0.03876  1.0000
  H   H7139     1.0  0.69879  0.53351  0.01499  1.0000
  C   C4026     1.0  0.49827  0.58787  0.01136  1.0000
  H   H7140     1.0  0.51589  0.61746  0.02684  1.0000
  S   S894      1.0  0.55248  0.68760  0.00989  1.0000
  C   C4027     1.0  0.90333  0.49515  0.06544  1.0000
  H   H7141     1.0  0.59325  0.66458  0.00257  1.0000
  H   H7142     1.0  0.59737  0.62451  0.02587  1.0000
  H   H7143     1.0  0.98553  0.55234  0.11190  1.0000
  C   C4028     1.0  0.55396  0.62081  0.02279  1.0000
  C   C4029     1.0  0.50186  0.71982  0.05496  1.0000
  H   H7144     1.0  0.93164  0.49628  0.16281  1.0000
  H   H7145     1.0  0.51813  0.73038  0.03369  1.0000
  H   H7146     1.0  0.98613  0.50944  0.13009  1.0000
  C   C4030     1.0  0.87117  0.49760  0.03746  1.0000
  H   H7147     1.0  0.92321  0.50637  0.99440  1.0000
  C   C4031     1.0  0.55302  0.63010  0.01300  1.0000
  H   H7148     1.0  0.58043  0.59456  0.01897  1.0000
  H   H7149     1.0  0.96722  0.57774  0.19886  1.0000
  H   H7150     1.0  0.51082  0.68131  0.02821  1.0000
  C   C4032     1.0  0.51203  0.58406  0.99324  1.0000
  H   H7151     1.0  0.52345  0.62647  0.00615  1.0000
  H   H7152     1.0  0.99383  0.54976  0.15632  1.0000
  C   C4033     1.0  0.89705  0.50242  0.10078  1.0000
  H   H7153     1.0  0.72922  0.55727  0.02894  1.0000
  H   H7154     1.0  0.52615  0.58875  0.01135  1.0000
  C   C4034     1.0  0.96918  0.57054  0.20613  1.0000
  H   H7155     1.0  0.79422  0.53102  0.00955  1.0000
  Fe  Fe454     1.0  0.95477  0.51930  0.19843  1.0000
  S   S895      1.0  0.56323  0.73784  0.05330  1.0000
  C   C4035     1.0  0.76053  0.54192  0.00579  1.0000
  H   H7156     1.0  0.68998  0.54794  0.02743  1.0000
  H   H7157     1.0  0.92590  0.52787  0.17450  1.0000
  S   S896      1.0  0.71195  0.50972  0.02536  1.0000
  S   S897      1.0  0.94080  0.50394  0.13543  1.0000
  S   S898      1.0  0.96699  0.52332  0.20670  1.0000
  H   H7158     1.0  0.50548  0.71059  0.00158  1.0000
  H   H7159     1.0  0.72456  0.51891  0.08233  1.0000
  H   H7160     1.0  0.85923  0.50099  0.00257  1.0000
  C   C4036     1.0  0.52348  0.71172  0.07179  1.0000
  C   C4037     1.0  0.57770  0.71584  0.99762  1.0000
  H   H7161     1.0  0.97790  0.52970  0.12686  1.0000
  C   C4038     1.0  0.81356  0.49962  0.00676  1.0000
  H   H7162     1.0  0.98563  0.53062  0.10445  1.0000
  C   C4039     1.0  0.71072  0.54954  0.08055  1.0000
  C   C4040     1.0  0.55501  0.64322  0.02386  1.0000
  H   H7163     1.0  0.94159  0.53331  0.21734  1.0000
  S   S899      1.0  0.96760  0.55673  0.19277  1.0000
  H   H7164     1.0  0.92504  0.54258  0.23558  1.0000
  C   C4041     1.0  0.84901  0.51326  0.03828  1.0000
  N   N222      1.0  0.59491  0.62938  0.00804  1.0000
  C   C4042     1.0  0.52704  0.73557  0.04981  1.0000
  H   H7165     1.0  0.55343  0.61218  0.02246  1.0000
  C   C4043     1.0  0.69728  0.55107  0.08216  1.0000
  S   S900      1.0  0.80295  0.52260  0.05726  1.0000
  S   S901      1.0  0.83543  0.52358  0.03878  1.0000
  C   C4044     1.0  0.71534  0.52336  0.08172  1.0000
  C   C4045     1.0  0.53802  0.71847  0.01987  1.0000
  C   C4046     1.0  0.70022  0.52237  0.99859  1.0000
  C   C4047     1.0  0.94102  0.54050  0.22161  1.0000
  H   H7166     1.0  0.88921  0.50798  0.99541  1.0000
  H   H7167     1.0  0.77395  0.52611  0.02370  1.0000
  Fe  Fe455     1.0  0.98108  0.51289  0.19484  1.0000
  H   H7168     1.0  0.59669  0.63703  0.03864  1.0000
  H   H7169     1.0  0.99550  0.56043  0.18130  1.0000
  H   H7170     1.0  0.52780  0.70624  0.05569  1.0000
  H   H7171     1.0  0.93380  0.55956  0.21820  1.0000
  H   H7172     1.0  0.52783  0.66343  0.02035  1.0000
  H   H7173     1.0  0.63643  0.49965  0.04546  1.0000
  H   H7174     1.0  0.73198  0.53494  0.08017  1.0000
  C   C4048     1.0  0.59218  0.71856  0.01435  1.0000
  H   H7175     1.0  0.91948  0.50910  0.18295  1.0000
  N   N223      1.0  0.52199  0.72517  0.05102  1.0000
  H   H7176     1.0  0.57809  0.51183  0.00277  1.0000
  Fe  Fe456     1.0  0.55049  0.67922  0.02900  1.0000
  H   H7177     1.0  0.58084  0.64056  0.04060  1.0000
  H   H7178     1.0  0.91460  0.51435  0.22892  1.0000
  H   H7179     1.0  0.94589  0.55442  0.23170  1.0000
  H   H7180     1.0  0.53891  0.73116  0.02848  1.0000
  H   H7181     1.0  0.77017  0.51911  0.00608  1.0000
  C   C4049     1.0  0.59276  0.54303  0.99832  1.0000
  H   H7182     1.0  0.53604  0.70966  0.02188  1.0000
  H   H7183     1.0  0.58877  0.65212  0.03626  1.0000
  H   H7184     1.0  0.76177  0.51205  0.02753  1.0000
  H   H7185     1.0  0.59465  0.59355  0.02138  1.0000
  C   C4050     1.0  0.53666  0.72242  0.03116  1.0000
  H   H7186     1.0  0.58845  0.53836  0.99508  1.0000
  H   H7187     1.0  0.71321  0.54442  0.08898  1.0000
  C   C4051     1.0  0.72466  0.54365  0.00657  1.0000
  S   S902      1.0  0.55003  0.62842  0.00029  1.0000
  H   H7188     1.0  0.75458  0.54392  0.06374  1.0000
  H   H7189     1.0  0.75256  0.55503  0.07169  1.0000
  Fe  Fe457     1.0  0.80278  0.50346  0.06268  1.0000
  C   C4052     1.0  0.60637  0.63330  0.00227  1.0000
  H   H7190     1.0  0.99202  0.49559  0.15663  1.0000
  H   H7191     1.0  0.55545  0.61574  0.04093  1.0000
  H   H7192     1.0  0.71219  0.55843  0.07957  1.0000
  N   N224      1.0  0.69363  0.53439  0.99321  1.0000
  S   S903      1.0  0.58432  0.57300  0.01041  1.0000
  H   H7193     1.0  0.88315  0.51911  0.07317  1.0000
  N   N225      1.0  0.58707  0.70633  0.00280  1.0000
  Fe  Fe458     1.0  0.65135  0.52049  0.00556  1.0000
  H   H7194     1.0  0.96931  0.50024  0.15896  1.0000
  C   C4053     1.0  0.55531  0.63412  0.03387  1.0000
  C   C4054     1.0  0.74921  0.54748  0.07156  1.0000
  H   H7195     1.0  0.52314  0.61283  0.99532  1.0000
  H   H7196     1.0  0.60759  0.55907  0.01146  1.0000
  C   C4055     1.0  0.55508  0.62284  0.03324  1.0000
  C   C4056     1.0  0.90603  0.49650  0.05197  1.0000
  C   C4057     1.0  0.51545  0.61376  0.01963  1.0000
  S   S904      1.0  0.97253  0.52407  0.15466  1.0000
  C   C4058     1.0  0.50361  0.67913  0.05394  1.0000
  S   S905      1.0  0.56443  0.66705  0.03811  1.0000
  H   H7197     1.0  0.61875  0.54045  0.00518  1.0000
  H   H7198     1.0  0.73148  0.55598  0.07829  1.0000
  C   C4059     1.0  0.93435  0.53751  0.23470  1.0000
  H   H7199     1.0  0.52145  0.71494  0.03918  1.0000
  C   C4060     1.0  0.50588  0.67718  0.00559  1.0000
  H   H7200     1.0  0.51038  0.70057  0.03179  1.0000
  H   H7201     1.0  0.53209  0.72488  0.01438  1.0000
  C   C4061     1.0  0.51221  0.68869  0.02060  1.0000
  H   H7202     1.0  0.59875  0.72911  0.02167  1.0000
  S   S906      1.0  0.99522  0.49969  0.20300  1.0000
  C   C4062     1.0  0.98489  0.53428  0.12120  1.0000
  C   C4063     1.0  0.58202  0.50301  0.00063  1.0000
  H   H7203     1.0  0.58404  0.64624  0.00182  1.0000
  C   C4064     1.0  0.75307  0.55349  0.00902  1.0000
  H   H7204     1.0  0.92504  0.49414  0.04909  1.0000
  H   H7205     1.0  0.50452  0.65414  0.04595  1.0000
  H   H7206     1.0  0.59280  0.59569  0.00662  1.0000
  H   H7207     1.0  0.80038  0.52202  0.99923  1.0000
  C   C4065     1.0  0.58660  0.55380  0.00144  1.0000
  H   H7208     1.0  0.52789  0.72372  0.99400  1.0000
  H   H7209     1.0  0.61841  0.49910  0.99245  1.0000
  C   C4066     1.0  0.59194  0.55965  0.00613  1.0000
  C   C4067     1.0  0.81251  0.53906  0.99367  1.0000
  H   H7210     1.0  0.88034  0.50013  0.00799  1.0000
  C   C4068     1.0  0.58534  0.63683  0.00179  1.0000
  H   H7211     1.0  0.84212  0.49856  0.04971  1.0000
  H   H7212     1.0  0.93365  0.52826  0.23644  1.0000
  H   H7213     1.0  0.96088  0.50102  0.21600  1.0000
  H   H7214     1.0  0.57656  0.49682  0.00653  1.0000
  H   H7215     1.0  0.49613  0.71878  0.02292  1.0000
  H   H7216     1.0  0.51559  0.74142  0.06591  1.0000
  H   H7217     1.0  0.75517  0.55479  0.01683  1.0000
  C   C4069     1.0  0.80014  0.54050  0.99198  1.0000
  C   C4070     1.0  0.94427  0.49822  0.21560  1.0000
  H   H7218     1.0  0.60456  0.64296  0.99853  1.0000
  C   C4071     1.0  0.84174  0.51142  0.00377  1.0000
  H   H7219     1.0  0.90648  0.49965  0.19641  1.0000
  H   H7220     1.0  0.88209  0.49696  0.06026  1.0000
  H   H7221     1.0  0.54611  0.73780  0.07628  1.0000
  C   C4072     1.0  0.50060  0.58535  0.00028  1.0000
  H   H7222     1.0  0.59419  0.49875  0.01164  1.0000
  C   C4073     1.0  0.71409  0.50272  0.99555  1.0000
  H   H7223     1.0  0.72241  0.56229  0.00446  1.0000
  C   C4074     1.0  0.88858  0.49916  0.00107  1.0000
  H   H7224     1.0  0.99289  0.58194  0.20655  1.0000
  H   H7225     1.0  0.82000  0.50515  0.09575  1.0000
  C   C4075     1.0  0.91268  0.51150  0.23867  1.0000
  C   C4076     1.0  0.95476  0.51950  0.24078  1.0000
  H   H7226     1.0  0.70796  0.52320  0.00123  1.0000
  H   H7227     1.0  0.97379  0.51739  0.23615  1.0000
  H   H7228     1.0  0.50572  0.71056  0.05869  1.0000
  H   H7229     1.0  0.74363  0.55327  0.01120  1.0000
  H   H7230     1.0  0.49813  0.64292  0.99355  1.0000
  C   C4077     1.0  0.59464  0.49890  0.00236  1.0000
  C   C4078     1.0  0.50113  0.66288  0.04770  1.0000
  H   H7231     1.0  0.93728  0.51662  0.99623  1.0000
  H   H7232     1.0  0.77544  0.54963  0.99651  1.0000
  C   C4079     1.0  0.51438  0.61866  0.99806  1.0000
  H   H7233     1.0  0.95016  0.57130  0.23534  1.0000
  H   H7234     1.0  0.95443  0.52039  0.23155  1.0000
  S   S907      1.0  0.66448  0.50627  0.99716  1.0000
  H   H7235     1.0  0.59950  0.50557  0.99649  1.0000
  H   H7236     1.0  0.99422  0.51197  0.16409  1.0000
  H   H7237     1.0  0.93129  0.55785  0.24020  1.0000
  H   H7238     1.0  0.77384  0.50275  0.99684  1.0000
  H   H7239     1.0  0.96886  0.50390  0.23984  1.0000
  H   H7240     1.0  0.75812  0.54102  0.99799  1.0000
  H   H7241     1.0  0.66754  0.54199  0.99304  1.0000
  S   S908      1.0  0.97730  0.56696  0.23709  1.0000
  H   H7242     1.0  0.54083  0.68087  0.99246  1.0000
  H   H7243     1.0  0.52817  0.70920  0.99262  1.0000
  H   H7244     1.0  0.52355  0.74302  0.04302  1.0000
  H   H7245     1.0  0.90309  0.51193  0.24189  1.0000
  H   H7246     1.0  0.62973  0.63432  0.99195  1.0000
  H   H7247     1.0  0.97042  0.52306  0.31100  1.0000
  C   C4080     1.0  0.97403  0.60845  0.41753  1.0000
  S   S909      1.0  0.99423  0.54699  0.26131  1.0000
  H   H7248     1.0  0.95000  0.50846  0.38000  1.0000
  H   H7249     1.0  0.99197  0.50010  0.30297  1.0000
  H   H7250     1.0  0.99234  0.73337  0.46284  1.0000
  H   H7251     1.0  0.97482  0.61409  0.40856  1.0000
  H   H7252     1.0  0.95984  0.52680  0.32405  1.0000
  C   C4081     1.0  0.96451  0.51153  0.27712  1.0000
  H   H7253     1.0  0.95407  0.53047  0.25247  1.0000
  H   H7254     1.0  0.94845  0.51414  0.24640  1.0000
  C   C4082     1.0  0.99030  0.54979  0.30398  1.0000
  H   H7255     1.0  0.99040  0.49512  0.29100  1.0000
  H   H7256     1.0  0.98758  0.73545  0.37103  1.0000
  H   H7257     1.0  0.98601  0.66841  0.43577  1.0000
  S   S910      1.0  0.97917  0.53064  0.28353  1.0000
  H   H7258     1.0  0.93512  0.53885  0.26235  1.0000
  H   H7259     1.0  0.98377  0.56262  0.39688  1.0000
  Fe  Fe459     1.0  0.97791  0.55356  0.25411  1.0000
  Fe  Fe460     1.0  0.96414  0.53835  0.27446  1.0000
  S   S911      1.0  0.94785  0.53098  0.28173  1.0000
  C   C4083     1.0  0.91972  0.49897  0.24216  1.0000
  S   S912      1.0  0.96584  0.55697  0.27126  1.0000
  H   H7260     1.0  0.97229  0.57558  0.39869  1.0000
  H   H7261     1.0  0.98428  0.49362  0.36340  1.0000
  H   H7262     1.0  0.97067  0.51709  0.27412  1.0000
  C   C4084     1.0  0.96344  0.71577  0.45362  1.0000
  S   S913      1.0  0.98372  0.71445  0.48715  1.0000
  C   C4085     1.0  0.95217  0.49988  0.38614  1.0000
  S   S914      1.0  0.97484  0.53573  0.25665  1.0000
  H   H7263     1.0  0.95112  0.49579  0.33882  1.0000
  Fe  Fe461     1.0  0.99245  0.68898  0.43843  1.0000
  H   H7264     1.0  0.95349  0.50023  0.35791  1.0000
  H   H7265     1.0  0.94759  0.54242  0.31247  1.0000
  C   C4086     1.0  0.96452  0.72851  0.45105  1.0000
  C   C4087     1.0  0.95370  0.50427  0.33407  1.0000
  C   C4088     1.0  0.94917  0.49634  0.28559  1.0000
  C   C4089     1.0  0.97730  0.69630  0.48304  1.0000
  H   H7266     1.0  0.99272  0.51389  0.37446  1.0000
  C   C4090     1.0  0.95202  0.53178  0.24375  1.0000
  H   H7267     1.0  0.97198  0.50800  0.29819  1.0000
  H   H7268     1.0  0.98811  0.62552  0.48481  1.0000
  C   C4091     1.0  0.98340  0.58498  0.41009  1.0000
  C   C4092     1.0  0.98880  0.57559  0.40243  1.0000
  H   H7269     1.0  0.98981  0.71514  0.38336  1.0000
  H   H7270     1.0  0.96882  0.61136  0.43542  1.0000
  C   C4093     1.0  0.96710  0.51256  0.24215  1.0000
  H   H7271     1.0  0.95543  0.71433  0.46051  1.0000
  H   H7272     1.0  0.97093  0.50222  0.39299  1.0000
  H   H7273     1.0  0.96840  0.51149  0.33480  1.0000
  C   C4094     1.0  0.97962  0.56925  0.40242  1.0000
  H   H7274     1.0  0.96150  0.62267  0.42500  1.0000
  H   H7275     1.0  0.95129  0.49910  0.30857  1.0000
  H   H7276     1.0  0.99374  0.61696  0.40146  1.0000
  C   C4095     1.0  0.99407  0.60006  0.39792  1.0000
  N   N226      1.0  0.93976  0.53932  0.24365  1.0000
  C   C4096     1.0  0.93168  0.53706  0.25564  1.0000
  C   C4097     1.0  0.98744  0.49462  0.30063  1.0000
  H   H7277     1.0  0.95192  0.51586  0.35177  1.0000
  H   H7278     1.0  0.95632  0.73155  0.46833  1.0000
  S   S915      1.0  0.98741  0.67864  0.45683  1.0000
  H   H7279     1.0  0.94441  0.52183  0.31795  1.0000
  H   H7280     1.0  0.97551  0.59073  0.40687  1.0000
  H   H7281     1.0  0.97549  0.64726  0.45024  1.0000
  C   C4098     1.0  0.95671  0.53860  0.30813  1.0000
  H   H7282     1.0  0.95684  0.53866  0.29895  1.0000
  C   C4099     1.0  0.96097  0.52611  0.31489  1.0000
  H   H7283     1.0  0.98360  0.59376  0.42809  1.0000
  H   H7284     1.0  0.98888  0.73523  0.39619  1.0000
  H   H7285     1.0  0.92290  0.54323  0.25559  1.0000
  H   H7286     1.0  0.93577  0.51162  0.28972  1.0000
  H   H7287     1.0  0.97805  0.72039  0.39495  1.0000
  C   C4100     1.0  0.94521  0.55627  0.24883  1.0000
  C   C4101     1.0  0.96969  0.49945  0.31699  1.0000
  H   H7288     1.0  0.97192  0.68269  0.47898  1.0000
  C   C4102     1.0  0.95266  0.51595  0.28163  1.0000
  S   S916      1.0  0.99480  0.70736  0.43532  1.0000
  H   H7289     1.0  0.97932  0.64521  0.47297  1.0000
  C   C4103     1.0  0.96341  0.50469  0.33987  1.0000
  C   C4104     1.0  0.99420  0.70276  0.46940  1.0000
  H   H7290     1.0  0.95420  0.51823  0.30502  1.0000
  H   H7291     1.0  0.93987  0.55516  0.25796  1.0000
  Fe  Fe462     1.0  0.98203  0.54895  0.27877  1.0000
  C   C4105     1.0  0.99017  0.53277  0.32024  1.0000
  H   H7292     1.0  0.99395  0.64168  0.39791  1.0000
  H   H7293     1.0  0.96252  0.54428  0.30792  1.0000
  C   C4106     1.0  0.94494  0.50831  0.28601  1.0000
  C   C4107     1.0  0.99462  0.55513  0.31022  1.0000
  N   N227      1.0  0.95686  0.50512  0.32090  1.0000
  H   H7294     1.0  0.99169  0.65064  0.47174  1.0000
  C   C4108     1.0  0.92004  0.52397  0.27202  1.0000
  C   C4109     1.0  0.97825  0.68815  0.47640  1.0000
  C   C4110     1.0  0.97410  0.49912  0.30378  1.0000
  C   C4111     1.0  0.92977  0.52440  0.26080  1.0000
  H   H7295     1.0  0.98334  0.65720  0.43036  1.0000
  H   H7296     1.0  0.97508  0.72117  0.38104  1.0000
  C   C4112     1.0  0.98029  0.66219  0.43746  1.0000
  C   C4113     1.0  0.99112  0.63363  0.48376  1.0000
  C   C4114     1.0  0.94966  0.49831  0.31820  1.0000
  H   H7297     1.0  0.97607  0.56466  0.41148  1.0000
  C   C4115     1.0  0.98794  0.49988  0.36564  1.0000
  C   C4116     1.0  0.98057  0.65380  0.44941  1.0000
  C   C4117     1.0  0.91766  0.49472  0.25571  1.0000
  H   H7298     1.0  0.92212  0.52745  0.27855  1.0000
  H   H7299     1.0  0.97116  0.66733  0.43728  1.0000
  C   C4118     1.0  0.97002  0.61655  0.42623  1.0000
  H   H7300     1.0  0.97133  0.72454  0.46678  1.0000
  C   C4119     1.0  0.98514  0.70377  0.47939  1.0000
  S   S917      1.0  0.97072  0.72717  0.41784  1.0000
  H   H7301     1.0  0.94979  0.50126  0.39526  1.0000
  C   C4120     1.0  0.98827  0.53850  0.30894  1.0000
  C   C4121     1.0  0.99317  0.73585  0.38669  1.0000
  C   C4122     1.0  0.99283  0.50552  0.38124  1.0000
  H   H7302     1.0  0.91146  0.52924  0.27003  1.0000
  H   H7303     1.0  0.93273  0.51127  0.31794  1.0000
  H   H7304     1.0  0.95437  0.55133  0.24897  1.0000
  N   N228      1.0  0.98610  0.49802  0.37883  1.0000
  C   C4123     1.0  0.96507  0.73180  0.46229  1.0000
  H   H7305     1.0  0.92011  0.49745  0.32260  1.0000
  C   C4124     1.0  0.99343  0.64801  0.45063  1.0000
  H   H7306     1.0  0.92108  0.50065  0.25873  1.0000
  C   C4125     1.0  0.95372  0.51775  0.31442  1.0000
  H   H7307     1.0  0.97599  0.65896  0.45631  1.0000
  H   H7308     1.0  0.97659  0.62187  0.42471  1.0000
  Fe  Fe463     1.0  0.98999  0.52932  0.26546  1.0000
  H   H7309     1.0  0.95511  0.73660  0.48468  1.0000
  C   C4126     1.0  0.93609  0.50214  0.32246  1.0000
  C   C4127     1.0  0.95816  0.50714  0.35218  1.0000
  H   H7310     1.0  0.98980  0.61118  0.44188  1.0000
  H   H7311     1.0  0.97793  0.49663  0.27325  1.0000
  H   H7312     1.0  0.93348  0.50156  0.33209  1.0000
  H   H7313     1.0  0.97750  0.61650  0.45296  1.0000
  S   S918      1.0  0.98752  0.55751  0.29006  1.0000
  C   C4128     1.0  0.99267  0.62420  0.44920  1.0000
  H   H7314     1.0  0.96286  0.71369  0.44548  1.0000
  H   H7315     1.0  0.97621  0.73685  0.47566  1.0000
  H   H7316     1.0  0.96981  0.51118  0.37905  1.0000
  C   C4129     1.0  0.97303  0.50194  0.38358  1.0000
  H   H7317     1.0  0.97961  0.63087  0.46363  1.0000
  H   H7318     1.0  0.99053  0.73363  0.42126  1.0000
  C   C4130     1.0  0.97347  0.74074  0.41711  1.0000
  H   H7319     1.0  0.98591  0.60403  0.39449  1.0000
  N   N229      1.0  0.99490  0.63794  0.46105  1.0000
  C   C4131     1.0  0.94525  0.56934  0.24461  1.0000
  H   H7320     1.0  0.99053  0.60626  0.45714  1.0000
  H   H7321     1.0  0.93194  0.49477  0.31011  1.0000
  H   H7322     1.0  0.97129  0.70966  0.45657  1.0000
  S   S919      1.0  0.98147  0.69357  0.42507  1.0000
  C   C4132     1.0  0.98937  0.62829  0.46100  1.0000
  H   H7323     1.0  0.99504  0.50711  0.34194  1.0000
  H   H7324     1.0  0.91926  0.51475  0.27599  1.0000
  H   H7325     1.0  0.96699  0.60370  0.41904  1.0000
  H   H7326     1.0  0.98838  0.52412  0.32412  1.0000
  H   H7327     1.0  0.98942  0.63139  0.44215  1.0000
  H   H7328     1.0  0.97982  0.58049  0.41921  1.0000
  C   C4133     1.0  0.98712  0.68743  0.46618  1.0000
  C   C4134     1.0  0.99532  0.69445  0.46295  1.0000
  H   H7329     1.0  0.97571  0.74071  0.38251  1.0000
  C   C4135     1.0  0.98902  0.64247  0.47215  1.0000
  H   H7330     1.0  0.98106  0.51733  0.39252  1.0000
  H   H7331     1.0  0.95667  0.73417  0.44779  1.0000
  H   H7332     1.0  0.98514  0.53427  0.30411  1.0000
  H   H7333     1.0  0.93611  0.57474  0.24534  1.0000
  H   H7334     1.0  0.96532  0.50727  0.35608  1.0000
  H   H7335     1.0  0.97250  0.72938  0.44397  1.0000
  H   H7336     1.0  0.94575  0.51121  0.33646  1.0000
  C   C4136     1.0  0.98574  0.59956  0.41927  1.0000
  H   H7337     1.0  0.94683  0.49407  0.38564  1.0000
  C   C4137     1.0  0.98843  0.50943  0.39321  1.0000
  H   H7338     1.0  0.98513  0.50267  0.40061  1.0000
  H   H7339     1.0  0.96793  0.51104  0.25136  1.0000
  C   C4138     1.0  0.98421  0.73429  0.38067  1.0000
  C   C4139     1.0  0.99045  0.73416  0.45423  1.0000
  H   H7340     1.0  0.92576  0.49390  0.27551  1.0000
  C   C4140     1.0  0.99459  0.53808  0.32644  1.0000
  H   H7341     1.0  0.93793  0.51849  0.26325  1.0000
  H   H7342     1.0  0.90802  0.49665  0.25952  1.0000
  H   H7343     1.0  0.97547  0.50394  0.31891  1.0000
  H   H7344     1.0  0.96986  0.49608  0.34064  1.0000
  H   H7345     1.0  0.98894  0.72567  0.45398  1.0000
  H   H7346     1.0  0.99197  0.60432  0.42008  1.0000
  H   H7347     1.0  0.92720  0.52094  0.25462  1.0000
  C   C4141     1.0  0.96868  0.49974  0.27661  1.0000
  C   C4142     1.0  0.99528  0.74093  0.48584  1.0000
  C   C4143     1.0  0.98725  0.61390  0.45043  1.0000
  Fe  Fe464     1.0  0.98541  0.71140  0.42085  1.0000
  C   C4144     1.0  0.98402  0.74154  0.41898  1.0000
  C   C4145     1.0  0.98167  0.72199  0.38530  1.0000
  H   H7348     1.0  0.99188  0.62034  0.46780  1.0000
  H   H7349     1.0  0.99230  0.57966  0.39317  1.0000
  H   H7350     1.0  0.98314  0.50886  0.36194  1.0000
  N   N230      1.0  0.99153  0.59233  0.41005  1.0000
  H   H7351     1.0  0.99339  0.66300  0.39067  1.0000
  H   H7352     1.0  0.94960  0.57189  0.25013  1.0000
  C   C4146     1.0  0.92978  0.49437  0.31971  1.0000
  C   C4147     1.0  0.96524  0.49416  0.38278  1.0000
  H   H7353     1.0  0.99580  0.62015  0.37991  1.0000
  H   H7354     1.0  0.99458  0.51581  0.40489  1.0000
  H   H7355     1.0  0.91518  0.51767  0.24226  1.0000
  H   H7356     1.0  0.97030  0.69699  0.49079  1.0000
  H   H7357     1.0  0.99587  0.57004  0.42562  1.0000
  H   H7358     1.0  0.97012  0.49311  0.30151  1.0000
  H   H7359     1.0  0.99576  0.67795  0.49096  1.0000
  H   H7360     1.0  0.92692  0.49706  0.72746  1.0000
  H   H7361     1.0  0.97346  0.63726  0.58054  1.0000
  S   S920      1.0  0.94442  0.51214  0.71261  1.0000
  H   H7362     1.0  0.97372  0.52930  0.58777  1.0000
  H   H7363     1.0  0.97759  0.65080  0.60270  1.0000
  H   H7364     1.0  0.96374  0.71204  0.57335  1.0000
  C   C4148     1.0  0.99323  0.63625  0.52404  1.0000
  H   H7365     1.0  0.99343  0.50397  0.59057  1.0000
  C   C4149     1.0  0.99363  0.52213  0.62898  1.0000
  H   H7366     1.0  0.96537  0.70305  0.56316  1.0000
  H   H7367     1.0  0.98130  0.54811  0.58374  1.0000
  H   H7368     1.0  0.96801  0.65669  0.58598  1.0000
  H   H7369     1.0  0.99053  0.54246  0.64451  1.0000
  C   C4150     1.0  0.98913  0.73494  0.55340  1.0000
  H   H7370     1.0  0.97944  0.51684  0.58143  1.0000
  H   H7371     1.0  0.98737  0.64690  0.49406  1.0000
  H   H7372     1.0  0.98280  0.56402  0.65554  1.0000
  H   H7373     1.0  0.93316  0.73167  0.55777  1.0000
  C   C4151     1.0  0.98472  0.53627  0.73391  1.0000
  Fe  Fe465     1.0  0.97559  0.50210  0.67681  1.0000
  C   C4152     1.0  0.99196  0.53200  0.59236  1.0000
  C   C4153     1.0  0.94462  0.73120  0.54067  1.0000
  C   C4154     1.0  0.99192  0.74237  0.51488  1.0000
  C   C4155     1.0  0.95314  0.51773  0.74025  1.0000
  C   C4156     1.0  0.98380  0.55963  0.64831  1.0000
  H   H7374     1.0  0.98859  0.54259  0.65955  1.0000
  C   C4157     1.0  0.97221  0.71879  0.55524  1.0000
  H   H7375     1.0  0.98128  0.73161  0.57247  1.0000
  Fe  Fe466     1.0  0.97172  0.68461  0.52182  1.0000
  H   H7376     1.0  0.95942  0.64963  0.57032  1.0000
  H   H7377     1.0  0.98740  0.52808  0.56227  1.0000
  H   H7378     1.0  0.97325  0.73866  0.53302  1.0000
  H   H7379     1.0  0.97820  0.49739  0.62183  1.0000
  H   H7380     1.0  0.92485  0.52182  0.72943  1.0000
  H   H7381     1.0  0.94844  0.67533  0.55687  1.0000
  H   H7382     1.0  0.97493  0.51356  0.60445  1.0000
  H   H7383     1.0  0.96765  0.55332  0.65655  1.0000
  H   H7384     1.0  0.95551  0.73365  0.52317  1.0000
  Fe  Fe467     1.0  0.96219  0.50796  0.70045  1.0000
  Fe  Fe468     1.0  0.98368  0.51749  0.68734  1.0000
  S   S921      1.0  0.94564  0.71620  0.54217  1.0000
  H   H7385     1.0  0.96534  0.63372  0.56227  1.0000
  C   C4158     1.0  0.99037  0.54486  0.58526  1.0000
  H   H7386     1.0  0.96239  0.51184  0.72441  1.0000
  C   C4159     1.0  0.97727  0.65160  0.58472  1.0000
  C   C4160     1.0  0.99082  0.65907  0.52653  1.0000
  C   C4161     1.0  0.98314  0.52633  0.63654  1.0000
  H   H7387     1.0  0.97006  0.52185  0.65227  1.0000
  C   C4162     1.0  0.99324  0.50223  0.64013  1.0000
  C   C4163     1.0  0.94377  0.51663  0.72546  1.0000
  S   S922      1.0  0.96675  0.51926  0.68237  1.0000
  C   C4164     1.0  0.95393  0.51523  0.72942  1.0000
  C   C4165     1.0  0.96334  0.71223  0.56428  1.0000
  C   C4166     1.0  0.96538  0.65537  0.56443  1.0000
  C   C4167     1.0  0.98194  0.63995  0.55668  1.0000
  Fe  Fe469     1.0  0.96121  0.70753  0.52999  1.0000
  H   H7388     1.0  0.96659  0.73247  0.56511  1.0000
  H   H7389     1.0  0.99409  0.62740  0.52320  1.0000
  C   C4168     1.0  0.95065  0.73770  0.53052  1.0000
  C   C4169     1.0  0.97799  0.51855  0.64622  1.0000
  H   H7390     1.0  0.96937  0.54157  0.55732  1.0000
  H   H7391     1.0  0.98312  0.65790  0.58132  1.0000
  C   C4170     1.0  0.98304  0.50649  0.64802  1.0000
  C   C4171     1.0  0.96900  0.73199  0.55573  1.0000
  C   C4172     1.0  0.93277  0.52078  0.73236  1.0000
  C   C4173     1.0  0.98136  0.73722  0.53625  1.0000
  C   C4174     1.0  0.97839  0.62239  0.55189  1.0000
  S   S923      1.0  0.97108  0.68997  0.53826  1.0000
  H   H7392     1.0  0.96756  0.66536  0.54604  1.0000
  C   C4175     1.0  0.96909  0.53628  0.56644  1.0000
  C   C4176     1.0  0.98492  0.49761  0.61341  1.0000
  H   H7393     1.0  0.98573  0.55249  0.60071  1.0000
  H   H7394     1.0  0.97344  0.63845  0.60084  1.0000
  H   H7395     1.0  0.99131  0.63538  0.55640  1.0000
  S   S924      1.0  0.98876  0.68975  0.51237  1.0000
  C   C4177     1.0  0.94916  0.66737  0.55368  1.0000
  H   H7396     1.0  0.96596  0.52828  0.56728  1.0000
  H   H7397     1.0  0.95426  0.71651  0.56304  1.0000
  H   H7398     1.0  0.97917  0.53563  0.63512  1.0000
  H   H7399     1.0  0.98519  0.66170  0.54903  1.0000
  C   C4178     1.0  0.97148  0.55894  0.64821  1.0000
  H   H7400     1.0  0.97178  0.55525  0.64070  1.0000
  C   C4179     1.0  0.97961  0.64326  0.57629  1.0000
  C   C4180     1.0  0.98792  0.73618  0.56603  1.0000
  H   H7401     1.0  0.96277  0.54165  0.57259  1.0000
  H   H7402     1.0  0.98486  0.51544  0.61202  1.0000
  C   C4181     1.0  0.98387  0.51027  0.60629  1.0000
  S   S925      1.0  0.97865  0.50727  0.70559  1.0000
  C   C4182     1.0  0.98330  0.64505  0.52168  1.0000
  C   C4183     1.0  0.99352  0.51103  0.59472  1.0000
  H   H7403     1.0  0.94494  0.49382  0.73505  1.0000
  H   H7404     1.0  0.96565  0.56788  0.64729  1.0000
  H   H7405     1.0  0.98255  0.53061  0.72943  1.0000
  H   H7406     1.0  0.97645  0.64301  0.51906  1.0000
  H   H7407     1.0  0.97204  0.71787  0.54645  1.0000
  C   C4184     1.0  0.97496  0.63010  0.56089  1.0000
  S   S926      1.0  0.97728  0.71487  0.52094  1.0000
  C   C4185     1.0  0.98208  0.65645  0.52299  1.0000
  H   H7408     1.0  0.96316  0.66316  0.56841  1.0000
  N   N231      1.0  0.97813  0.64917  0.56397  1.0000
  C   C4186     1.0  0.96170  0.65987  0.55242  1.0000
  H   H7409     1.0  0.97559  0.62756  0.54365  1.0000
  C   C4187     1.0  0.93794  0.73664  0.54995  1.0000
  H   H7410     1.0  0.99051  0.56214  0.58692  1.0000
  H   H7411     1.0  0.98615  0.72796  0.53595  1.0000
  H   H7412     1.0  0.99375  0.49407  0.61553  1.0000
  H   H7413     1.0  0.98807  0.61881  0.54985  1.0000
  H   H7414     1.0  0.98446  0.53226  0.60011  1.0000
  N   N232      1.0  0.97809  0.73904  0.54869  1.0000
  H   H7415     1.0  0.94280  0.66223  0.55983  1.0000
  H   H7416     1.0  0.96205  0.65243  0.54862  1.0000
  H   H7417     1.0  0.94682  0.67031  0.54494  1.0000
  C   C4188     1.0  0.99204  0.55293  0.59203  1.0000
  S   S927      1.0  0.96033  0.70156  0.51443  1.0000
  Fe  Fe470     1.0  0.97742  0.70711  0.50616  1.0000
  S   S928      1.0  0.96932  0.66723  0.52103  1.0000
  H   H7418     1.0  0.98104  0.71431  0.55700  1.0000
  C   C4189     1.0  0.98557  0.65819  0.55840  1.0000
  Fe  Fe471     1.0  0.98706  0.69687  0.52801  1.0000
  H   H7419     1.0  0.96069  0.73593  0.55256  1.0000
  S   S929      1.0  0.99298  0.50144  0.68010  1.0000
  H   H7420     1.0  0.98846  0.73717  0.49294  1.0000
  H   H7421     1.0  0.97695  0.62431  0.56927  1.0000
  H   H7422     1.0  0.99326  0.72566  0.55285  1.0000
  H   H7423     1.0  0.98159  0.64412  0.54738  1.0000
  C   C4190     1.0  0.97939  0.64465  0.59682  1.0000
  H   H7424     1.0  0.96736  0.73816  0.49692  1.0000
  H   H7425     1.0  0.98424  0.54116  0.56761  1.0000
  H   H7426     1.0  0.98986  0.66778  0.52775  1.0000
  H   H7427     1.0  0.98857  0.63746  0.57615  1.0000
  H   H7428     1.0  0.98112  0.54560  0.73005  1.0000
  H   H7429     1.0  0.97396  0.61491  0.55544  1.0000
  C   C4191     1.0  0.98143  0.52519  0.58155  1.0000
  H   H7430     1.0  0.98736  0.56517  0.63981  1.0000
  S   S930      1.0  0.99242  0.53247  0.68367  1.0000
  C   C4192     1.0  0.98138  0.53294  0.56898  1.0000
  H   H7431     1.0  0.98192  0.66604  0.56240  1.0000
  H   H7432     1.0  0.98609  0.63239  0.50255  1.0000
  S   S931      1.0  0.97676  0.49674  0.66018  1.0000
  H   H7433     1.0  0.97910  0.49797  0.73413  1.0000
  N   N233      1.0  0.99249  0.52274  0.58602  1.0000
  H   H7434     1.0  0.99261  0.52000  0.70782  1.0000
  C   C4193     1.0  0.99198  0.54721  0.65039  1.0000
  H   H7435     1.0  0.98868  0.63965  0.59610  1.0000
  C   C4194     1.0  0.98440  0.63895  0.49443  1.0000
  H   H7436     1.0  0.97479  0.64133  0.49488  1.0000
  H   H7437     1.0  0.99578  0.74002  0.54785  1.0000
  Fe  Fe472     1.0  0.57122  0.59994  0.97492  1.0000
  S   S932      1.0  0.55233  0.60901  0.97995  1.0000
  S   S933      1.0  0.58172  0.60180  0.95624  1.0000
  H   H7438     1.0  0.97249  0.50136  0.80807  1.0000
  H   H7439     1.0  0.50106  0.72559  0.96110  1.0000
  C   C4195     1.0  0.79001  0.52346  0.96837  1.0000
  H   H7440     1.0  0.56870  0.64022  0.98868  1.0000
  C   C4196     1.0  0.75686  0.54750  0.90777  1.0000
  H   H7441     1.0  0.51230  0.71799  0.98136  1.0000
  H   H7442     1.0  0.55931  0.68846  0.98523  1.0000
  H   H7443     1.0  0.79987  0.52150  0.98108  1.0000
  C   C4197     1.0  0.87762  0.53187  0.91231  1.0000
  S   S934      1.0  0.66498  0.51827  0.96228  1.0000
  Fe  Fe473     1.0  0.60136  0.68646  0.93492  1.0000
  S   S935      1.0  0.59036  0.69036  0.95215  1.0000
  S   S936      1.0  0.61392  0.69676  0.92170  1.0000
  Fe  Fe474     1.0  0.59383  0.66380  0.93863  1.0000
  S   S937      1.0  0.58199  0.66538  0.95617  1.0000
  S   S938      1.0  0.59713  0.64935  0.92907  1.0000
  Fe  Fe475     1.0  0.57651  0.68438  0.94795  1.0000
  S   S939      1.0  0.55751  0.69282  0.95333  1.0000
  Fe  Fe476     1.0  0.59648  0.67111  0.95947  1.0000
  H   H7444     1.0  0.52248  0.61718  0.97562  1.0000
  S   S940      1.0  0.58683  0.68244  0.92989  1.0000
  S   S941      1.0  0.60903  0.66767  0.94266  1.0000
  C   C4198     1.0  0.50927  0.60723  0.96903  1.0000
  Fe  Fe477     1.0  0.74211  0.53473  0.95994  1.0000
  S   S942      1.0  0.74156  0.53910  0.94099  1.0000
  H   H7445     1.0  0.52665  0.62746  0.94442  1.0000
  C   C4199     1.0  0.84800  0.49501  0.92276  1.0000
  C   C4200     1.0  0.75285  0.58651  0.90540  1.0000
  Fe  Fe478     1.0  0.75668  0.52357  0.93961  1.0000
  S   S943      1.0  0.77346  0.52374  0.92581  1.0000
  Fe  Fe479     1.0  0.73007  0.52610  0.94648  1.0000
  S   S944      1.0  0.71456  0.53114  0.93812  1.0000
  S   S945      1.0  0.90298  0.50085  0.96817  1.0000
  H   H7446     1.0  0.92322  0.51816  0.93734  1.0000
  H   H7447     1.0  0.61230  0.58891  0.98403  1.0000
  C   C4201     1.0  0.61598  0.71749  0.90620  1.0000
  S   S946      1.0  0.80532  0.54696  0.94145  1.0000
  S   S947      1.0  0.59962  0.66509  0.97777  1.0000
  H   H7448     1.0  0.78578  0.56523  0.89138  1.0000
  H   H7449     1.0  0.57757  0.72010  0.94768  1.0000
  S   S948      1.0  0.72933  0.52300  0.96571  1.0000
  C   C4202     1.0  0.90572  0.51996  0.93500  1.0000
  H   H7450     1.0  0.57943  0.71194  0.96228  1.0000
  H   H7451     1.0  0.59873  0.74104  0.96196  1.0000
  H   H7452     1.0  0.93431  0.51431  0.84008  1.0000
  H   H7453     1.0  0.54194  0.62364  0.95628  1.0000
  H   H7454     1.0  0.66132  0.54881  0.97433  1.0000
  Fe  Fe480     1.0  0.95621  0.51380  0.76938  1.0000
  C   C4203     1.0  0.77628  0.55715  0.90866  1.0000
  S   S949      1.0  0.94092  0.52406  0.76114  1.0000
  H   H7455     1.0  0.52342  0.64153  0.96509  1.0000
  C   C4204     1.0  0.52061  0.71608  0.91867  1.0000
  C   C4205     1.0  0.60054  0.73533  0.90511  1.0000
  H   H7456     1.0  0.59812  0.56297  0.94406  1.0000
  S   S950      1.0  0.95753  0.51828  0.78556  1.0000
  C   C4206     1.0  0.97553  0.49905  0.82517  1.0000
  H   H7457     1.0  0.54472  0.67147  0.97533  1.0000
  H   H7458     1.0  0.52486  0.66121  0.96287  1.0000
  H   H7459     1.0  0.64241  0.54488  0.95148  1.0000
  H   H7460     1.0  0.55482  0.59768  0.96015  1.0000
  H   H7461     1.0  0.98043  0.53427  0.74339  1.0000
  S   S951      1.0  0.85216  0.50763  0.92285  1.0000
  H   H7462     1.0  0.73851  0.54902  0.90789  1.0000
  C   C4207     1.0  0.76370  0.56938  0.92980  1.0000
  H   H7463     1.0  0.55830  0.64752  0.93434  1.0000
  H   H7464     1.0  0.54961  0.67027  0.92981  1.0000
  S   S952      1.0  0.74106  0.54987  0.96748  1.0000
  H   H7465     1.0  0.51194  0.62892  0.96928  1.0000
  S   S953      1.0  0.81511  0.49475  0.97460  1.0000
  H   H7466     1.0  0.52033  0.68387  0.95563  1.0000
  H   H7467     1.0  0.61064  0.68572  0.98008  1.0000
  H   H7468     1.0  0.62116  0.74091  0.97713  1.0000
  C   C4208     1.0  0.58731  0.63628  0.98879  1.0000
  Fe  Fe481     1.0  0.82450  0.50842  0.96263  1.0000
  H   H7469     1.0  0.99035  0.52108  0.82388  1.0000
  H   H7470     1.0  0.62061  0.72440  0.92754  1.0000
  C   C4209     1.0  0.56661  0.68311  0.98912  1.0000
  H   H7471     1.0  0.75876  0.56357  0.89478  1.0000
  H   H7472     1.0  0.56978  0.61162  0.91587  1.0000
  H   H7473     1.0  0.56258  0.67874  0.93606  1.0000
  N   N234      1.0  0.76400  0.56478  0.91002  1.0000
  H   H7474     1.0  0.75472  0.50829  0.98301  1.0000
  H   H7475     1.0  0.74885  0.56739  0.92454  1.0000
  C   C4210     1.0  0.78241  0.53010  0.93015  1.0000
  C   C4211     1.0  0.79450  0.52830  0.92521  1.0000
  C   C4212     1.0  0.80157  0.53354  0.92860  1.0000
  C   C4213     1.0  0.79652  0.54074  0.93677  1.0000
  C   C4214     1.0  0.78440  0.54275  0.94147  1.0000
  C   C4215     1.0  0.77739  0.53733  0.93828  1.0000
  S   S954      1.0  0.64259  0.50512  0.98687  1.0000
  H   H7476     1.0  0.81094  0.53201  0.92487  1.0000
  C   C4216     1.0  0.52396  0.65576  0.97189  1.0000
  H   H7477     1.0  0.76806  0.53883  0.94207  1.0000
  C   C4217     1.0  0.54860  0.68659  0.94892  1.0000
  C   C4218     1.0  0.55332  0.68004  0.94017  1.0000
  H   H7478     1.0  0.57258  0.62560  0.90679  1.0000
  C   C4219     1.0  0.55089  0.64512  0.95304  1.0000
  C   C4220     1.0  0.98117  0.53436  0.81122  1.0000
  Fe  Fe482     1.0  0.97708  0.49351  0.77030  1.0000
  S   S955      1.0  0.64439  0.53048  0.98947  1.0000
  H   H7479     1.0  0.77293  0.53086  0.98672  1.0000
  C   C4221     1.0  0.58656  0.67119  0.98684  1.0000
  H   H7480     1.0  0.63494  0.49848  0.96834  1.0000
  H   H7481     1.0  0.59536  0.57860  0.92665  1.0000
  H   H7482     1.0  0.54127  0.61232  0.94108  1.0000
  H   H7483     1.0  0.57737  0.67934  0.97280  1.0000
  C   C4222     1.0  0.67899  0.52152  0.95633  1.0000
  C   C4223     1.0  0.68130  0.52752  0.94460  1.0000
  C   C4224     1.0  0.69222  0.53038  0.93928  1.0000
  C   C4225     1.0  0.70109  0.52712  0.94554  1.0000
  C   C4226     1.0  0.69894  0.52093  0.95729  1.0000
  C   C4227     1.0  0.68783  0.51817  0.96273  1.0000
  H   H7484     1.0  0.67457  0.53004  0.93958  1.0000
  H   H7485     1.0  0.69384  0.53509  0.93020  1.0000
  H   H7486     1.0  0.70585  0.51822  0.96209  1.0000
  H   H7487     1.0  0.68617  0.51333  0.97174  1.0000
  H   H7488     1.0  0.57117  0.61741  0.93347  1.0000
  H   H7489     1.0  0.92500  0.50178  0.77151  1.0000
  C   C4228     1.0  0.55671  0.63998  0.94186  1.0000
  C   C4229     1.0  0.87440  0.50844  0.93468  1.0000
  H   H7490     1.0  0.60464  0.73834  0.93214  1.0000
  C   C4230     1.0  0.58699  0.61467  0.94953  1.0000
  C   C4231     1.0  0.59286  0.61612  0.93770  1.0000
  C   C4232     1.0  0.59616  0.62671  0.93162  1.0000
  C   C4233     1.0  0.59382  0.63586  0.93739  1.0000
  C   C4234     1.0  0.58853  0.63422  0.94941  1.0000
  C   C4235     1.0  0.58500  0.62364  0.95548  1.0000
  H   H7491     1.0  0.59450  0.60921  0.93307  1.0000
  H   H7492     1.0  0.60037  0.62787  0.92237  1.0000
  H   H7493     1.0  0.58696  0.64117  0.95394  1.0000
  H   H7494     1.0  0.58061  0.62250  0.96469  1.0000
  C   C4236     1.0  0.57410  0.61886  0.91486  1.0000
  C   C4237     1.0  0.96946  0.49821  0.81733  1.0000
  H   H7495     1.0  0.58513  0.56145  0.96239  1.0000
  H   H7496     1.0  0.75536  0.54410  0.91738  1.0000
  H   H7497     1.0  0.76554  0.54251  0.90369  1.0000
  S   S956      1.0  0.82130  0.52637  0.96589  1.0000
  C   C4238     1.0  0.59530  0.58097  0.93486  1.0000
  H   H7498     1.0  0.55744  0.61900  0.95255  1.0000
  H   H7499     1.0  0.94413  0.49783  0.75817  1.0000
  H   H7500     1.0  0.78179  0.56004  0.91272  1.0000
  H   H7501     1.0  0.53300  0.69312  0.96114  1.0000
  C   C4239     1.0  0.61947  0.72170  0.94657  1.0000
  H   H7502     1.0  0.88297  0.51087  0.94686  1.0000
  S   S957      1.0  0.85103  0.52990  0.96855  1.0000
  C   C4240     1.0  0.64162  0.54910  0.95877  1.0000
  H   H7503     1.0  0.64511  0.55720  0.95515  1.0000
  H   H7504     1.0  0.89417  0.52052  0.91600  1.0000
  H   H7505     1.0  0.78916  0.51276  0.98572  1.0000
  C   C4241     1.0  0.88395  0.51287  0.93718  1.0000
  C   C4242     1.0  0.75752  0.56755  0.94280  1.0000
  Fe  Fe483     1.0  0.96057  0.49893  0.79296  1.0000
  H   H7506     1.0  0.53270  0.70748  0.93023  1.0000
  C   C4243     1.0  0.86487  0.52093  0.97021  1.0000
  C   C4244     1.0  0.93196  0.52346  0.74312  1.0000
  H   H7507     1.0  0.53208  0.72013  0.97971  1.0000
  H   H7508     1.0  0.79639  0.51628  0.96438  1.0000
  H   H7509     1.0  0.53927  0.71351  0.91570  1.0000
  Fe  Fe484     1.0  0.84132  0.51389  0.93915  1.0000
  H   H7510     1.0  0.59941  0.58863  0.93246  1.0000
  H   H7511     1.0  0.56799  0.72503  0.96048  1.0000
  H   H7512     1.0  0.59276  0.57709  0.95836  1.0000
  C   C4245     1.0  0.55947  0.64962  0.95678  1.0000
  C   C4246     1.0  0.51077  0.72429  0.95812  1.0000
  H   H7513     1.0  0.59134  0.71312  0.92713  1.0000
  H   H7514     1.0  0.74676  0.58486  0.90107  1.0000
  H   H7515     1.0  0.50306  0.60164  0.97014  1.0000
  H   H7516     1.0  0.87508  0.53453  0.89472  1.0000
  H   H7517     1.0  0.62591  0.54352  0.96919  1.0000
  H   H7518     1.0  0.55453  0.65548  0.96296  1.0000
  H   H7519     1.0  0.78105  0.52346  0.96782  1.0000
  H   H7520     1.0  0.89018  0.52761  0.94668  1.0000
  H   H7521     1.0  0.86547  0.51390  0.93715  1.0000
  S   S958      1.0  0.52482  0.67066  0.93783  1.0000
  H   H7522     1.0  0.87644  0.50812  0.92527  1.0000
  H   H7523     1.0  0.56559  0.63464  0.94301  1.0000
  N   N235      1.0  0.60753  0.72970  0.94960  1.0000
  C   C4247     1.0  0.87239  0.53313  0.93695  1.0000
  H   H7524     1.0  0.59804  0.69032  0.97345  1.0000
  C   C4248     1.0  0.89327  0.52816  0.93702  1.0000
  C   C4249     1.0  0.57696  0.67799  0.98202  1.0000
  H   H7525     1.0  0.51810  0.60141  0.96945  1.0000
  C   C4250     1.0  0.87189  0.54643  0.93486  1.0000
  C   C4251     1.0  0.54945  0.62175  0.94879  1.0000
  H   H7526     1.0  0.51369  0.73051  0.96126  1.0000
  C   C4252     1.0  0.99186  0.52488  0.81427  1.0000
  H   H7527     1.0  0.80099  0.54043  0.98267  1.0000
  C   C4253     1.0  0.85919  0.55352  0.93717  1.0000
  H   H7528     1.0  0.86955  0.52991  0.94659  1.0000
  H   H7529     1.0  0.86538  0.53228  0.93330  1.0000
  C   C4254     1.0  0.97158  0.49525  0.83726  1.0000
  C   C4255     1.0  0.59310  0.72949  0.91460  1.0000
  H   H7530     1.0  0.96909  0.55685  0.80746  1.0000
  H   H7531     1.0  0.89443  0.53730  0.93308  1.0000
  N   N236      1.0  0.88418  0.52568  0.93230  1.0000
  H   H7532     1.0  0.69753  0.50950  0.99048  1.0000
  H   H7533     1.0  0.59823  0.72185  0.94204  1.0000
  C   C4256     1.0  0.52521  0.73752  0.92086  1.0000
  H   H7534     1.0  0.87631  0.54789  0.94101  1.0000
  H   H7535     1.0  0.87636  0.54991  0.92574  1.0000
  H   H7536     1.0  0.51232  0.71827  0.92513  1.0000
  H   H7537     1.0  0.74795  0.57158  0.94392  1.0000
  C   C4257     1.0  0.62536  0.50221  0.96902  1.0000
  H   H7538     1.0  0.61131  0.56837  0.93727  1.0000
  C   C4258     1.0  0.76470  0.57727  0.90399  1.0000
  H   H7539     1.0  0.64096  0.71567  0.93060  1.0000
  H   H7540     1.0  0.57435  0.63111  0.92446  1.0000
  S   S959      1.0  0.95775  0.49454  0.77738  1.0000
  H   H7541     1.0  0.53240  0.63059  0.92864  1.0000
  C   C4259     1.0  0.60869  0.58119  0.98500  1.0000
  H   H7542     1.0  0.85445  0.55283  0.93089  1.0000
  H   H7543     1.0  0.85447  0.55027  0.94630  1.0000
  H   H7544     1.0  0.85908  0.56292  0.93609  1.0000
  H   H7545     1.0  0.54578  0.59301  0.95372  1.0000
  N   N237      1.0  0.95920  0.53716  0.81087  1.0000
  C   C4260     1.0  0.96159  0.54116  0.79765  1.0000
  C   C4261     1.0  0.97026  0.52905  0.81425  1.0000
  C   C4262     1.0  0.94994  0.52996  0.81454  1.0000
  C   C4263     1.0  0.95485  0.54725  0.81713  1.0000
  C   C4264     1.0  0.95945  0.55863  0.81083  1.0000
  C   C4265     1.0  0.95067  0.54769  0.79234  1.0000
  C   C4266     1.0  0.94676  0.52419  0.82782  1.0000
  H   H7546     1.0  0.95937  0.57524  0.81429  1.0000
  H   H7547     1.0  0.56424  0.72750  0.98058  1.0000
  C   C4267     1.0  0.95628  0.56706  0.81910  1.0000
  C   C4268     1.0  0.95432  0.55368  0.77944  1.0000
  C   C4269     1.0  0.93597  0.51898  0.83070  1.0000
  H   H7548     1.0  0.96591  0.53346  0.79354  1.0000
  H   H7549     1.0  0.98333  0.50259  0.82187  1.0000
  H   H7550     1.0  0.96874  0.52542  0.82389  1.0000
  C   C4270     1.0  0.55975  0.72216  0.98868  1.0000
  H   H7551     1.0  0.95270  0.52277  0.80961  1.0000
  H   H7552     1.0  0.94154  0.53550  0.81228  1.0000
  H   H7553     1.0  0.94507  0.55009  0.81878  1.0000
  H   H7554     1.0  0.95688  0.54426  0.82602  1.0000
  H   H7555     1.0  0.95541  0.56334  0.80320  1.0000
  C   C4271     1.0  0.88770  0.52825  0.91902  1.0000
  H   H7556     1.0  0.94552  0.54136  0.79266  1.0000
  H   H7557     1.0  0.94476  0.55439  0.79726  1.0000
  H   H7558     1.0  0.94484  0.53065  0.83339  1.0000
  H   H7559     1.0  0.95406  0.51687  0.83036  1.0000
  H   H7560     1.0  0.89242  0.50712  0.93369  1.0000
  C   C4272     1.0  0.73118  0.55669  0.98821  1.0000
  C   C4273     1.0  0.88246  0.53157  0.89931  1.0000
  H   H7561     1.0  0.53033  0.73120  0.94326  1.0000
  H   H7562     1.0  0.62359  0.50428  0.96010  1.0000
  C   C4274     1.0  0.60584  0.73296  0.96121  1.0000
  H   H7563     1.0  0.61616  0.71111  0.93638  1.0000
  H   H7564     1.0  0.94659  0.56945  0.82242  1.0000
  H   H7565     1.0  0.94638  0.55785  0.77572  1.0000
  H   H7566     1.0  0.95903  0.56057  0.77857  1.0000
  H   H7567     1.0  0.96013  0.54710  0.77427  1.0000
  H   H7568     1.0  0.92806  0.52602  0.82919  1.0000
  H   H7569     1.0  0.93744  0.51255  0.82519  1.0000
  Fe  Fe485     1.0  0.54949  0.59131  0.99044  1.0000
  H   H7570     1.0  0.55682  0.60723  0.93933  1.0000
  C   C4275     1.0  0.59709  0.71762  0.91984  1.0000
  C   C4276     1.0  0.57718  0.72085  0.95671  1.0000
  H   H7571     1.0  0.87260  0.54097  0.91284  1.0000
  H   H7572     1.0  0.60645  0.58638  0.96735  1.0000
  H   H7573     1.0  0.74847  0.58633  0.91477  1.0000
  H   H7574     1.0  0.54359  0.65275  0.95119  1.0000
  H   H7575     1.0  0.96058  0.56299  0.82666  1.0000
  H   H7576     1.0  0.53846  0.64834  0.93133  1.0000
  H   H7577     1.0  0.53905  0.60349  0.96298  1.0000
  H   H7578     1.0  0.96809  0.54679  0.79436  1.0000
  H   H7579     1.0  0.61774  0.73372  0.89360  1.0000
  H   H7580     1.0  0.73727  0.52862  0.98464  1.0000
  H   H7581     1.0  0.91152  0.52465  0.94813  1.0000
  H   H7582     1.0  0.74815  0.53512  0.90582  1.0000
  C   C4277     1.0  0.62881  0.55194  0.96551  1.0000
  H   H7583     1.0  0.86131  0.50481  0.96945  1.0000
  C   C4278     1.0  0.54599  0.67523  0.93665  1.0000
  C   C4279     1.0  0.60853  0.71161  0.91558  1.0000
  C   C4280     1.0  0.52757  0.72479  0.94013  1.0000
  C   C4281     1.0  0.78180  0.53135  0.98707  1.0000
  C   C4282     1.0  0.70486  0.51309  0.99077  1.0000
  C   C4283     1.0  0.63464  0.71003  0.93233  1.0000
  H   H7584     1.0  0.97957  0.54099  0.81651  1.0000
  C   C4284     1.0  0.86787  0.50898  0.96987  1.0000
  H   H7585     1.0  0.53159  0.71591  0.94483  1.0000
  S   S960      1.0  0.83956  0.53236  0.94049  1.0000
  H   H7586     1.0  0.51332  0.64725  0.94296  1.0000
  H   H7587     1.0  0.60277  0.72599  0.96864  1.0000
  C   C4285     1.0  0.51411  0.72658  0.94475  1.0000
  H   H7588     1.0  0.74706  0.56542  0.90713  1.0000
  C   C4286     1.0  0.75852  0.56370  0.92300  1.0000
  H   H7589     1.0  0.69181  0.55900  0.98369  1.0000
  H   H7590     1.0  0.60656  0.54619  0.97273  1.0000
  H   H7591     1.0  0.62054  0.71387  0.95394  1.0000
  C   C4287     1.0  0.75645  0.56088  0.90454  1.0000
  C   C4288     1.0  0.54695  0.60064  0.95625  1.0000
  C   C4289     1.0  0.74745  0.54477  0.90352  1.0000
  H   H7592     1.0  0.74865  0.54782  0.89383  1.0000
  H   H7593     1.0  0.63601  0.70665  0.92433  1.0000
  H   H7594     1.0  0.77118  0.58001  0.90697  1.0000
  H   H7595     1.0  0.55526  0.63839  0.92024  1.0000
  H   H7596     1.0  0.99381  0.51773  0.80950  1.0000
  H   H7597     1.0  0.79228  0.53192  0.96322  1.0000
  H   H7598     1.0  0.57296  0.70639  0.98709  1.0000
  C   C4290     1.0  0.91447  0.52433  0.93866  1.0000
  C   C4291     1.0  0.52890  0.63441  0.93656  1.0000
  C   C4292     1.0  0.70273  0.54096  0.98512  1.0000
  C   C4293     1.0  0.69810  0.55326  0.97792  1.0000
  H   H7599     1.0  0.56537  0.64215  0.96139  1.0000
  C   C4294     1.0  0.61077  0.57838  0.97299  1.0000
  C   C4295     1.0  0.67452  0.54283  0.98483  1.0000
  C   C4296     1.0  0.66967  0.54212  0.97483  1.0000
  C   C4297     1.0  0.70816  0.55937  0.97108  1.0000
  H   H7600     1.0  0.63243  0.66212  0.91984  1.0000
  H   H7601     1.0  0.62448  0.56876  0.95358  1.0000
  H   H7602     1.0  0.72886  0.49537  0.96430  1.0000
  H   H7603     1.0  0.91540  0.53319  0.93331  1.0000
  H   H7604     1.0  0.69079  0.53120  0.97771  1.0000
  H   H7605     1.0  0.50446  0.60769  0.98730  1.0000
  H   H7606     1.0  0.51292  0.70486  0.91337  1.0000
  C   C4298     1.0  0.53664  0.68818  0.95427  1.0000
  H   H7607     1.0  0.93275  0.49658  0.75215  1.0000
  H   H7608     1.0  0.70855  0.53582  0.97858  1.0000
  H   H7609     1.0  0.59912  0.58335  0.98894  1.0000
  H   H7610     1.0  0.69385  0.55240  0.97133  1.0000
  H   H7611     1.0  0.61058  0.69681  0.96675  1.0000
  H   H7612     1.0  0.71705  0.49619  0.98988  1.0000
  H   H7613     1.0  0.62279  0.72603  0.96640  1.0000
  S   S961      1.0  0.56814  0.58199  0.98410  1.0000
  H   H7614     1.0  0.88705  0.52247  0.89829  1.0000
  H   H7615     1.0  0.67610  0.55174  0.98289  1.0000
  H   H7616     1.0  0.91057  0.49844  0.98977  1.0000
  H   H7617     1.0  0.58420  0.73406  0.91774  1.0000
  H   H7618     1.0  0.50964  0.61331  0.96027  1.0000
  H   H7619     1.0  0.70471  0.56786  0.96544  1.0000
  C   C4299     1.0  0.62479  0.63363  0.98584  1.0000
  H   H7620     1.0  0.71494  0.55383  0.96535  1.0000
  Fe  Fe486     1.0  0.97700  0.51490  0.77802  1.0000
  C   C4300     1.0  0.73412  0.53594  0.98898  1.0000
  Fe  Fe487     1.0  0.50605  0.67960  0.94434  1.0000
  H   H7621     1.0  0.54735  0.63851  0.96057  1.0000
  H   H7622     1.0  0.60897  0.56035  0.98089  1.0000
  C   C4301     1.0  0.58549  0.72833  0.95642  1.0000
  N   N238      1.0  0.60567  0.67742  0.89449  1.0000
  C   C4302     1.0  0.60597  0.67808  0.88182  1.0000
  C   C4303     1.0  0.60401  0.68962  0.89647  1.0000
  C   C4304     1.0  0.61743  0.67014  0.89700  1.0000
  C   C4305     1.0  0.59633  0.67129  0.90280  1.0000
  C   C4306     1.0  0.58341  0.67716  0.90209  1.0000
  C   C4307     1.0  0.60836  0.66616  0.87826  1.0000
  C   C4308     1.0  0.62026  0.67099  0.90842  1.0000
  C   C4309     1.0  0.59599  0.69995  0.88950  1.0000
  C   C4310     1.0  0.59323  0.71114  0.89409  1.0000
  C   C4311     1.0  0.57515  0.66925  0.91000  1.0000
  C   C4312     1.0  0.60846  0.66805  0.86525  1.0000
  C   C4313     1.0  0.63030  0.66090  0.91200  1.0000
  H   H7623     1.0  0.61285  0.68281  0.87597  1.0000
  H   H7624     1.0  0.59757  0.68335  0.87942  1.0000
  H   H7625     1.0  0.60076  0.68966  0.90601  1.0000
  H   H7626     1.0  0.61263  0.69222  0.89392  1.0000
  H   H7627     1.0  0.62478  0.67267  0.88963  1.0000
  H   H7628     1.0  0.61809  0.66067  0.89761  1.0000
  H   H7629     1.0  0.59816  0.66202  0.90195  1.0000
  H   H7630     1.0  0.59669  0.67040  0.91198  1.0000
  H   H7631     1.0  0.58216  0.67900  0.89301  1.0000
  H   H7632     1.0  0.58064  0.68544  0.90531  1.0000
  H   H7633     1.0  0.61703  0.66056  0.87964  1.0000
  H   H7634     1.0  0.60140  0.66131  0.88338  1.0000
  H   H7635     1.0  0.61260  0.67083  0.91596  1.0000
  H   H7636     1.0  0.62304  0.67932  0.90697  1.0000
  H   H7637     1.0  0.60057  0.70191  0.88008  1.0000
  H   H7638     1.0  0.58755  0.69801  0.88988  1.0000
  H   H7639     1.0  0.58869  0.70968  0.90353  1.0000
  H   H7640     1.0  0.52867  0.63118  0.98326  1.0000
  H   H7641     1.0  0.58740  0.71835  0.88908  1.0000
  H   H7642     1.0  0.56590  0.67376  0.90958  1.0000
  H   H7643     1.0  0.57727  0.66083  0.90711  1.0000
  H   H7644     1.0  0.57591  0.66730  0.91929  1.0000
  H   H7645     1.0  0.61550  0.67264  0.85965  1.0000
  H   H7646     1.0  0.61020  0.65941  0.86291  1.0000
  H   H7647     1.0  0.59982  0.67331  0.86339  1.0000
  H   H7648     1.0  0.62765  0.65237  0.91437  1.0000
  H   H7649     1.0  0.63830  0.66071  0.90476  1.0000
  H   H7650     1.0  0.54748  0.65713  0.98511  1.0000
  H   H7651     1.0  0.60628  0.58115  0.95148  1.0000
  H   H7652     1.0  0.52006  0.72282  0.91043  1.0000
  C   C4314     1.0  0.54474  0.72710  0.92424  1.0000
  C   C4315     1.0  0.52111  0.70434  0.91603  1.0000
  H   H7653     1.0  0.56723  0.72566  0.92686  1.0000
  H   H7654     1.0  0.62484  0.71290  0.90291  1.0000
  H   H7655     1.0  0.56477  0.65470  0.94908  1.0000
  C   C4316     1.0  0.62199  0.71708  0.93522  1.0000
  H   H7656     1.0  0.55191  0.70820  0.93044  1.0000
  H   H7657     1.0  0.54471  0.73398  0.96832  1.0000
  H   H7658     1.0  0.62862  0.55568  0.97293  1.0000
  H   H7659     1.0  0.76258  0.57898  0.92631  1.0000
  H   H7660     1.0  0.53279  0.65248  0.97402  1.0000
  H   H7661     1.0  0.62039  0.57667  0.96930  1.0000
  C   C4317     1.0  0.79457  0.54711  0.89579  1.0000
  H   H7662     1.0  0.55677  0.66719  0.98254  1.0000
  H   H7663     1.0  0.88185  0.49330  0.96938  1.0000
  H   H7664     1.0  0.58457  0.72884  0.96561  1.0000
  H   H7665     1.0  0.58174  0.72188  0.98977  1.0000
  H   H7666     1.0  0.78162  0.50020  0.96040  1.0000
  C   C4318     1.0  0.58583  0.54329  0.97018  1.0000
  C   C4319     1.0  0.56581  0.71730  0.92614  1.0000
  C   C4320     1.0  0.49853  0.63511  0.99026  1.0000
  S   S962      1.0  0.98789  0.52695  0.77843  1.0000
  H   H7667     1.0  0.60641  0.54844  0.95778  1.0000
  H   H7668     1.0  0.77605  0.54803  0.91358  1.0000
  C   C4321     1.0  0.61318  0.74050  0.97468  1.0000
  H   H7669     1.0  0.59602  0.57031  0.97760  1.0000
  H   H7670     1.0  0.76135  0.57165  0.94750  1.0000
  H   H7671     1.0  0.62248  0.55669  0.94963  1.0000
  Fe  Fe488     1.0  0.65647  0.51552  0.98154  1.0000
  C   C4322     1.0  0.78325  0.55672  0.89588  1.0000
  S   S963      1.0  0.97906  0.49673  0.84691  1.0000
  H   H7672     1.0  0.75940  0.55429  0.92752  1.0000
  H   H7673     1.0  0.55169  0.62452  0.92480  1.0000
  H   H7674     1.0  0.60640  0.70693  0.98253  1.0000
  H   H7675     1.0  0.58602  0.58349  0.93965  1.0000
  C   C4323     1.0  0.54760  0.66655  0.98360  1.0000
  C   C4324     1.0  0.51852  0.64565  0.97264  1.0000
  H   H7676     1.0  0.58607  0.55743  0.97747  1.0000
  C   C4325     1.0  0.54861  0.61060  0.94543  1.0000
  N   N239      1.0  0.60793  0.56370  0.96269  1.0000
  C   C4326     1.0  0.60203  0.57355  0.95410  1.0000
  C   C4327     1.0  0.60565  0.56772  0.97397  1.0000
  C   C4328     1.0  0.62093  0.56068  0.95729  1.0000
  C   C4329     1.0  0.60315  0.55284  0.96537  1.0000
  C   C4330     1.0  0.58954  0.55466  0.96895  1.0000
  C   C4331     1.0  0.60216  0.57053  0.94245  1.0000
  H   H7677     1.0  0.81655  0.54620  0.98745  1.0000
  H   H7678     1.0  0.62668  0.72597  0.94569  1.0000
  H   H7679     1.0  0.88473  0.49702  0.89755  1.0000
  H   H7680     1.0  0.76818  0.57798  0.89436  1.0000
  H   H7681     1.0  0.77808  0.55489  0.89069  1.0000
  S   S964      1.0  0.98008  0.49580  0.78667  1.0000
  H   H7682     1.0  0.90557  0.51097  0.94045  1.0000
  C   C4332     1.0  0.53779  0.64026  0.93842  1.0000
  H   H7683     1.0  0.64716  0.54288  0.96473  1.0000
  C   C4333     1.0  0.94214  0.52177  0.74716  1.0000
  S   S965      1.0  0.75812  0.52017  0.95822  1.0000
  Fe  Fe489     1.0  0.82031  0.53259  0.94694  1.0000
  H   H7684     1.0  0.73201  0.56543  0.98325  1.0000
  Fe  Fe490     1.0  0.74542  0.50874  0.96201  1.0000
  H   H7685     1.0  0.59489  0.64012  0.98338  1.0000
  H   H7686     1.0  0.78048  0.54824  0.94785  1.0000
  C   C4334     1.0  0.53400  0.67681  0.94204  1.0000
  H   H7687     1.0  0.51814  0.66148  0.97789  1.0000
  H   H7688     1.0  0.57128  0.70990  0.93136  1.0000
  C   C4335     1.0  0.56936  0.62434  0.92565  1.0000
  C   C4336     1.0  0.78746  0.50053  0.95148  1.0000
  C   C4337     1.0  0.51933  0.63625  0.98416  1.0000
  H   H7689     1.0  0.55072  0.71728  0.94041  1.0000
  H   H7690     1.0  0.89148  0.52398  0.97124  1.0000
  C   C4338     1.0  0.51334  0.72290  0.98730  1.0000
  H   H7691     1.0  0.56865  0.71653  0.91681  1.0000
  H   H7692     1.0  0.87126  0.52613  0.91593  1.0000
  H   H7693     1.0  0.57620  0.54446  0.97384  1.0000
  N   N240      1.0  0.53206  0.72616  0.92698  1.0000
  H   H7694     1.0  0.58372  0.61517  0.91388  1.0000
  H   H7695     1.0  0.60145  0.71397  0.89301  1.0000
  H   H7696     1.0  0.58789  0.54104  0.96146  1.0000
  C   C4339     1.0  0.53164  0.71550  0.92306  1.0000
  H   H7697     1.0  0.79246  0.53832  0.89965  1.0000
  C   C4340     1.0  0.88806  0.50798  0.97003  1.0000
  C   C4341     1.0  0.51318  0.62226  0.97747  1.0000
  H   H7698     1.0  0.97287  0.52141  0.80997  1.0000
  H   H7699     1.0  0.75881  0.59972  0.89018  1.0000
  C   C4342     1.0  0.59838  0.72295  0.95079  1.0000
  N   N241      1.0  0.54994  0.63274  0.93913  1.0000
  C   C4343     1.0  0.51738  0.64335  0.93509  1.0000
  H   H7700     1.0  0.52876  0.70222  0.90877  1.0000
  H   H7701     1.0  0.63103  0.62882  0.97918  1.0000
  H   H7702     1.0  0.87102  0.53535  0.97152  1.0000
  C   C4344     1.0  0.88489  0.51973  0.97099  1.0000
  C   C4345     1.0  0.73520  0.54725  0.98259  1.0000
  H   H7703     1.0  0.51894  0.65053  0.92723  1.0000
  C   C4346     1.0  0.52941  0.68313  0.95098  1.0000
  C   C4347     1.0  0.59934  0.70291  0.98236  1.0000
  C   C4348     1.0  0.60500  0.69336  0.97526  1.0000
  S   S966      1.0  0.74525  0.51087  0.94316  1.0000
  H   H7704     1.0  0.52183  0.69712  0.92393  1.0000
  H   H7705     1.0  0.59045  0.53587  0.97616  1.0000
  H   H7706     1.0  0.77698  0.50067  0.98212  1.0000
  H   H7707     1.0  0.54526  0.73540  0.92611  1.0000
  S   S967      1.0  0.50226  0.69840  0.94560  1.0000
  Fe  Fe491     1.0  0.84081  0.52409  0.95926  1.0000
  H   H7708     1.0  0.51066  0.72046  0.94217  1.0000
  H   H7709     1.0  0.76050  0.60117  0.90402  1.0000
  C   C4349     1.0  0.57667  0.64355  0.98373  1.0000
  C   C4350     1.0  0.87332  0.52615  0.97114  1.0000
  S   S968      1.0  0.82199  0.51471  0.94421  1.0000
  C   C4351     1.0  0.75474  0.59894  0.89971  1.0000
  H   H7710     1.0  0.96104  0.51641  0.74330  1.0000
  H   H7711     1.0  0.74614  0.60537  0.90072  1.0000
  H   H7712     1.0  0.63638  0.70240  0.93968  1.0000
  H   H7713     1.0  0.76218  0.51883  0.98370  1.0000
  C   C4352     1.0  0.87947  0.50244  0.96992  1.0000
  C   C4353     1.0  0.68562  0.53283  0.98650  1.0000
  H   H7714     1.0  0.79968  0.54722  0.88661  1.0000
  H   H7715     1.0  0.89246  0.53553  0.91564  1.0000
  H   H7716     1.0  0.51594  0.73708  0.92199  1.0000
  C   C4354     1.0  0.79076  0.52158  0.98113  1.0000
  H   H7717     1.0  0.53336  0.64348  0.94657  1.0000
  H   H7718     1.0  0.78303  0.54002  0.98132  1.0000
  C   C4355     1.0  0.55289  0.71681  0.93101  1.0000
  S   S969      1.0  0.97543  0.51238  0.76099  1.0000
  C   C4356     1.0  0.55605  0.63012  0.92717  1.0000
  H   H7719     1.0  0.79844  0.52272  0.91892  1.0000
  H   H7720     1.0  0.75872  0.55804  0.94691  1.0000
  H   H7721     1.0  0.80011  0.54851  0.90092  1.0000
  H   H7722     1.0  0.60068  0.71388  0.95605  1.0000
  S   S970      1.0  0.84414  0.50554  0.95737  1.0000
  C   C4357     1.0  0.61196  0.72927  0.90092  1.0000
  H   H7723     1.0  0.88865  0.53751  0.89512  1.0000
  H   H7724     1.0  0.77320  0.56545  0.92929  1.0000
  H   H7725     1.0  0.95963  0.49367  0.74420  1.0000
  H   H7726     1.0  0.81725  0.50949  0.98884  1.0000
  H   H7727     1.0  0.98354  0.53836  0.80173  1.0000
  H   H7728     1.0  0.51105  0.63895  0.93395  1.0000
  C   C4358     1.0  0.77025  0.50063  0.99052  1.0000
  H   H7729     1.0  0.61062  0.62640  0.98601  1.0000
  H   H7730     1.0  0.58244  0.73727  0.95140  1.0000
  H   H7731     1.0  0.77553  0.49468  0.93776  1.0000
  C   C4359     1.0  0.52613  0.71872  0.98855  1.0000
  H   H7732     1.0  0.90906  0.51944  0.92561  1.0000
  H   H7733     1.0  0.51774  0.64113  0.99118  1.0000
  H   H7734     1.0  0.85255  0.49770  0.90389  1.0000
  H   H7735     1.0  0.53432  0.73394  0.90323  1.0000
  H   H7736     1.0  0.50929  0.64938  0.97173  1.0000
  H   H7737     1.0  0.57828  0.64295  0.97445  1.0000
  H   H7738     1.0  0.51368  0.58216  0.98466  1.0000
  C   C4360     1.0  0.87414  0.49596  0.94173  1.0000
  H   H7739     1.0  0.51160  0.73241  0.98315  1.0000
  C   C4361     1.0  0.75948  0.51046  0.98840  1.0000
  H   H7740     1.0  0.79616  0.50146  0.95187  1.0000
  H   H7741     1.0  0.50970  0.73578  0.94148  1.0000
  H   H7742     1.0  0.57515  0.65292  0.98405  1.0000
  H   H7743     1.0  0.78365  0.50834  0.94533  1.0000
  C   C4362     1.0  0.50498  0.61410  0.97882  1.0000
  H   H7744     1.0  0.60786  0.73543  0.98237  1.0000
  H   H7745     1.0  0.71230  0.56119  0.97722  1.0000
  C   C4363     1.0  0.61829  0.49337  0.97731  1.0000
  H   H7746     1.0  0.67606  0.54376  0.96629  1.0000
  H   H7747     1.0  0.93419  0.49911  0.97920  1.0000
  H   H7748     1.0  0.51481  0.71508  0.96193  1.0000
  H   H7749     1.0  0.70874  0.54184  0.99007  1.0000
  H   H7750     1.0  0.70882  0.51696  0.98164  1.0000
  H   H7751     1.0  0.66791  0.53329  0.97637  1.0000
  H   H7752     1.0  0.76198  0.49396  0.93033  1.0000
  H   H7753     1.0  0.87192  0.49570  0.95130  1.0000
  N   N242      1.0  0.51107  0.62803  0.98763  1.0000
  H   H7754     1.0  0.62179  0.74023  0.95669  1.0000
  H   H7755     1.0  0.54877  0.72760  0.91472  1.0000
  C   C4364     1.0  0.61677  0.73472  0.96412  1.0000
  H   H7756     1.0  0.92343  0.52656  0.74845  1.0000
  H   H7757     1.0  0.59291  0.70965  0.97772  1.0000
  H   H7758     1.0  0.62283  0.51052  0.97220  1.0000
  S   S971      1.0  0.53497  0.58545  0.98714  1.0000
  H   H7759     1.0  0.58880  0.62714  0.98780  1.0000
  H   H7760     1.0  0.60889  0.49729  0.97718  1.0000
  C   C4365     1.0  0.60561  0.74060  0.94005  1.0000
  C   C4366     1.0  0.95945  0.49351  0.82153  1.0000
  H   H7761     1.0  0.52359  0.67930  0.98787  1.0000
  C   C4367     1.0  0.53045  0.74153  0.90756  1.0000
  S   S972      1.0  0.57620  0.60300  0.98998  1.0000
  H   H7762     1.0  0.62102  0.64261  0.98119  1.0000
  H   H7763     1.0  0.68199  0.52489  0.99114  1.0000
  S   S973      1.0  0.55414  0.74133  0.94363  1.0000
  H   H7764     1.0  0.81821  0.53051  0.99190  1.0000
  H   H7765     1.0  0.55320  0.71892  0.98639  1.0000
  H   H7766     1.0  0.61310  0.57362  0.99101  1.0000
  C   C4368     1.0  0.53924  0.74232  0.96503  1.0000
  H   H7767     1.0  0.62400  0.74292  0.93394  1.0000
  H   H7768     1.0  0.58188  0.50374  0.99135  1.0000
  Fe  Fe492     1.0  0.57417  0.90133  0.18973  1.0000
  S   S974      1.0  0.56282  0.91921  0.18481  1.0000
  S   S975      1.0  0.57405  0.88530  0.18386  1.0000
  Fe  Fe493     1.0  0.58511  0.90923  0.20512  1.0000
  S   S976      1.0  0.57467  0.92764  0.20135  1.0000
  S   S977      1.0  0.59759  0.90613  0.21674  1.0000
  Fe  Fe494     1.0  0.55965  0.91944  0.20388  1.0000
  S   S978      1.0  0.54227  0.92771  0.21420  1.0000
  Fe  Fe495     1.0  0.57894  0.92563  0.18282  1.0000
  S   S979      1.0  0.58474  0.94033  0.16850  1.0000
  S   S980      1.0  0.56979  0.90098  0.20912  1.0000
  S   S981      1.0  0.59074  0.90772  0.18622  1.0000
  C   C4369     1.0  0.56905  0.83755  0.01645  1.0000
  H   H7769     1.0  0.51933  0.97839  0.22549  1.0000
  Fe  Fe496     1.0  0.57362  0.77151  0.02121  1.0000
  S   S982      1.0  0.56502  0.77389  0.00637  1.0000
  S   S983      1.0  0.58362  0.78427  0.02166  1.0000
  Fe  Fe497     1.0  0.54968  0.76962  0.02070  1.0000
  S   S984      1.0  0.53170  0.78110  0.02127  1.0000
  H   H7770     1.0  0.56210  0.84241  0.00111  1.0000
  S   S985      1.0  0.55780  0.76860  0.03533  1.0000
  H   H7771     1.0  0.53672  0.76284  0.07488  1.0000
  Fe  Fe498     1.0  0.52066  0.88477  0.14411  1.0000
  S   S986      1.0  0.53634  0.87679  0.13155  1.0000
  C   C4370     1.0  0.55800  0.97573  0.15661  1.0000
  Fe  Fe499     1.0  0.52334  0.90962  0.13218  1.0000
  S   S987      1.0  0.53909  0.90356  0.11852  1.0000
  S   S988      1.0  0.51616  0.92822  0.13495  1.0000
  Fe  Fe500     1.0  0.52896  0.89098  0.11756  1.0000
  S   S989      1.0  0.52966  0.88766  0.09973  1.0000
  Fe  Fe501     1.0  0.54485  0.88992  0.13375  1.0000
  S   S990      1.0  0.56358  0.88452  0.13584  1.0000
  S   S991      1.0  0.51261  0.89828  0.13003  1.0000
  S   S992      1.0  0.52979  0.89667  0.14752  1.0000
  Fe  Fe502     1.0  0.51498  0.84364  0.04784  1.0000
  C   C4371     1.0  0.53307  0.77955  0.08731  1.0000
  Fe  Fe503     1.0  0.53728  0.82890  0.05531  1.0000
  S   S993      1.0  0.52761  0.82194  0.07342  1.0000
  S   S994      1.0  0.55708  0.82338  0.05126  1.0000
  Fe  Fe504     1.0  0.51728  0.84057  0.07300  1.0000
  H   H7772     1.0  0.57586  0.98649  0.15250  1.0000
  S   S995      1.0  0.52533  0.82542  0.04625  1.0000
  S   S996      1.0  0.52789  0.84779  0.05536  1.0000
  C   C4372     1.0  0.60395  0.94468  0.13879  1.0000
  H   H7773     1.0  0.54951  0.75343  0.09053  1.0000
  H   H7774     1.0  0.50877  0.89072  0.16925  1.0000
  H   H7775     1.0  0.53737  0.97882  0.20938  1.0000
  H   H7776     1.0  0.53464  0.77867  0.10501  1.0000
  H   H7777     1.0  0.49844  0.84511  0.00809  1.0000
  H   H7778     1.0  0.62834  0.82968  0.23270  1.0000
  H   H7779     1.0  0.50451  0.78085  0.06964  1.0000
  H   H7780     1.0  0.52153  0.83509  0.00312  1.0000
  H   H7781     1.0  0.50655  0.74363  0.99711  1.0000
  H   H7782     1.0  0.54895  0.93884  0.17108  1.0000
  H   H7783     1.0  0.56503  0.78832  0.05916  1.0000
  C   C4373     1.0  0.50189  0.88604  0.17389  1.0000
  H   H7784     1.0  0.49829  0.91128  0.16700  1.0000
  H   H7785     1.0  0.49714  0.80238  0.10785  1.0000
  H   H7786     1.0  0.60577  0.97423  0.11864  1.0000
  C   C4374     1.0  0.52388  0.93910  0.12628  1.0000
  C   C4375     1.0  0.52172  0.94965  0.12994  1.0000
  C   C4376     1.0  0.52771  0.95851  0.12321  1.0000
  C   C4377     1.0  0.53581  0.95692  0.11267  1.0000
  C   C4378     1.0  0.53795  0.94638  0.10901  1.0000
  C   C4379     1.0  0.53205  0.93748  0.11582  1.0000
  H   H7787     1.0  0.58339  0.97768  0.12652  1.0000
  H   H7788     1.0  0.52602  0.96659  0.12613  1.0000
  H   H7789     1.0  0.54417  0.94512  0.10085  1.0000
  H   H7790     1.0  0.53367  0.92947  0.11283  1.0000
  H   H7791     1.0  0.51798  0.93142  0.22623  1.0000
  H   H7792     1.0  0.50091  0.97901  0.19640  1.0000
  H   H7793     1.0  0.63052  0.86085  0.22555  1.0000
  H   H7794     1.0  0.51070  0.92517  0.17508  1.0000
  C   C4380     1.0  0.57913  0.97785  0.14985  1.0000
  H   H7795     1.0  0.51852  0.86074  0.20882  1.0000
  H   H7796     1.0  0.55082  0.95312  0.16224  1.0000
  H   H7797     1.0  0.56057  0.74722  0.07906  1.0000
  H   H7798     1.0  0.51846  0.91985  0.20544  1.0000
  H   H7799     1.0  0.52226  0.80009  0.00369  1.0000
  C   C4381     1.0  0.52408  0.87677  0.09718  1.0000
  C   C4382     1.0  0.52656  0.87501  0.08568  1.0000
  C   C4383     1.0  0.52293  0.86601  0.08335  1.0000
  C   C4384     1.0  0.51675  0.85865  0.09253  1.0000
  C   C4385     1.0  0.51413  0.86051  0.10401  1.0000
  C   C4386     1.0  0.51775  0.86952  0.10634  1.0000
  H   H7800     1.0  0.53139  0.88059  0.07853  1.0000
  H   H7801     1.0  0.52496  0.86474  0.07446  1.0000
  H   H7802     1.0  0.52811  0.82417  0.01963  1.0000
  H   H7803     1.0  0.51571  0.87082  0.11521  1.0000
  C   C4387     1.0  0.57593  0.79476  0.03026  1.0000
  C   C4388     1.0  0.56365  0.79710  0.03398  1.0000
  C   C4389     1.0  0.55771  0.80579  0.04057  1.0000
  C   C4390     1.0  0.56408  0.81209  0.04348  1.0000
  C   C4391     1.0  0.57636  0.80958  0.03991  1.0000
  C   C4392     1.0  0.58225  0.80105  0.03322  1.0000
  H   H7804     1.0  0.55871  0.79242  0.03156  1.0000
  H   H7805     1.0  0.54823  0.80768  0.04329  1.0000
  H   H7806     1.0  0.58134  0.81443  0.04213  1.0000
  H   H7807     1.0  0.59174  0.79930  0.03037  1.0000
  H   H7808     1.0  0.51549  0.95090  0.13806  1.0000
  C   C4393     1.0  0.52549  0.76235  0.01851  1.0000
  H   H7809     1.0  0.52049  0.74750  0.01653  1.0000
  H   H7810     1.0  0.60794  0.97898  0.20982  1.0000
  H   H7811     1.0  0.55306  0.83533  0.01419  1.0000
  H   H7812     1.0  0.52408  0.78087  0.99696  1.0000
  H   H7813     1.0  0.63622  0.89195  0.23227  1.0000
  H   H7814     1.0  0.52932  0.81165  0.01349  1.0000
  H   H7815     1.0  0.54541  0.81770  0.99696  1.0000
  H   H7816     1.0  0.60770  0.96568  0.13730  1.0000
  C   C4394     1.0  0.52782  0.98852  0.19599  1.0000
  C   C4395     1.0  0.49823  0.96759  0.15523  1.0000
  C   C4396     1.0  0.56804  0.80768  0.99597  1.0000
  N   N243      1.0  0.55028  0.77260  0.07074  1.0000
  C   C4397     1.0  0.49861  0.79968  0.06486  1.0000
  C   C4398     1.0  0.58720  0.94979  0.17570  1.0000
  C   C4399     1.0  0.57763  0.95683  0.18195  1.0000
  C   C4400     1.0  0.57953  0.96458  0.18749  1.0000
  C   C4401     1.0  0.59097  0.96522  0.18698  1.0000
  C   C4402     1.0  0.60057  0.95792  0.18102  1.0000
  C   C4403     1.0  0.59868  0.95027  0.17530  1.0000
  H   H7817     1.0  0.56875  0.95643  0.18237  1.0000
  H   H7818     1.0  0.57209  0.97015  0.19212  1.0000
  H   H7819     1.0  0.60943  0.95841  0.18058  1.0000
  H   H7820     1.0  0.60610  0.94471  0.17062  1.0000
  C   C4404     1.0  0.53306  0.91792  0.22110  1.0000
  C   C4405     1.0  0.52123  0.92219  0.22607  1.0000
  H   H7821     1.0  0.54873  0.81685  0.02139  1.0000
  C   C4406     1.0  0.51754  0.90283  0.22931  1.0000
  C   C4407     1.0  0.52952  0.89839  0.22536  1.0000
  C   C4408     1.0  0.53722  0.90598  0.22098  1.0000
  S   S997      1.0  0.58138  0.75219  0.02231  1.0000
  H   H7822     1.0  0.54333  0.77108  0.99386  1.0000
  H   H7823     1.0  0.52993  0.77127  0.09012  1.0000
  H   H7824     1.0  0.54628  0.90263  0.21719  1.0000
  C   C4409     1.0  0.57126  0.88603  0.17014  1.0000
  C   C4410     1.0  0.56248  0.89484  0.16540  1.0000
  C   C4411     1.0  0.55970  0.89425  0.15508  1.0000
  C   C4412     1.0  0.56612  0.88520  0.14919  1.0000
  C   C4413     1.0  0.57508  0.87664  0.15377  1.0000
  C   C4414     1.0  0.57743  0.87689  0.16433  1.0000
  H   H7825     1.0  0.55769  0.90194  0.16979  1.0000
  H   H7826     1.0  0.55270  0.90080  0.15160  1.0000
  H   H7827     1.0  0.58008  0.86963  0.14927  1.0000
  H   H7828     1.0  0.58414  0.87000  0.16796  1.0000
  C   C4415     1.0  0.53236  0.85394  0.00452  1.0000
  H   H7829     1.0  0.58322  0.99170  0.12809  1.0000
  H   H7830     1.0  0.50212  0.83484  0.02057  1.0000
  C   C4416     1.0  0.54589  0.81368  0.01518  1.0000
  H   H7831     1.0  0.50932  0.92433  0.19511  1.0000
  Fe  Fe505     1.0  0.57747  0.99084  0.19064  1.0000
  S   S998      1.0  0.55973  0.99177  0.20290  1.0000
  H   H7832     1.0  0.61881  0.98312  0.21390  1.0000
  H   H7833     1.0  0.62218  0.89895  0.24030  1.0000
  H   H7834     1.0  0.59625  0.95128  0.23538  1.0000
  H   H7835     1.0  0.49999  0.96513  0.14666  1.0000
  H   H7836     1.0  0.60292  0.91270  0.23513  1.0000
  C   C4417     1.0  0.50160  0.87186  0.21357  1.0000
  H   H7837     1.0  0.59980  0.88075  0.22626  1.0000
  H   H7838     1.0  0.63639  0.84031  0.22291  1.0000
  C   C4418     1.0  0.60831  0.97249  0.22805  1.0000
  H   H7839     1.0  0.59967  0.97015  0.23019  1.0000
  H   H7840     1.0  0.49939  0.93130  0.15521  1.0000
  S   S999      1.0  0.57784  0.74488  0.99393  1.0000
  H   H7841     1.0  0.58630  0.78505  0.05726  1.0000
  C   C4419     1.0  0.52882  0.98310  0.20754  1.0000
  H   H7842     1.0  0.58695  0.98055  0.21781  1.0000
  C   C4420     1.0  0.51480  0.96526  0.18928  1.0000
  S   S1000     1.0  0.54010  0.98735  0.18440  1.0000
  C   C4421     1.0  0.54922  0.82085  0.00249  1.0000
  H   H7843     1.0  0.56509  0.96251  0.11259  1.0000
  C   C4422     1.0  0.54565  0.78183  0.06076  1.0000
  H   H7844     1.0  0.54131  0.98214  0.24146  1.0000
  C   C4423     1.0  0.56791  0.82309  0.00541  1.0000
  C   C4424     1.0  0.55980  0.94959  0.22332  1.0000
  H   H7845     1.0  0.57885  0.89470  0.23156  1.0000
  H   H7846     1.0  0.51047  0.86656  0.19727  1.0000
  H   H7847     1.0  0.58341  0.77533  0.05018  1.0000
  C   C4425     1.0  0.51720  0.83232  0.99779  1.0000
  H   H7848     1.0  0.51361  0.82351  0.10791  1.0000
  H   H7849     1.0  0.54183  0.85147  0.00247  1.0000
  C   C4426     1.0  0.59639  0.98724  0.10650  1.0000
  H   H7850     1.0  0.54991  0.80420  0.01571  1.0000
  H   H7851     1.0  0.51143  0.80671  0.99481  1.0000
  C   C4427     1.0  0.56220  0.83511  0.00897  1.0000
  C   C4428     1.0  0.50206  0.96352  0.21029  1.0000
  C   C4429     1.0  0.60710  0.87292  0.22510  1.0000
  N   N244      1.0  0.53174  0.87628  0.19249  1.0000
  C   C4430     1.0  0.51921  0.87909  0.19943  1.0000
  C   C4431     1.0  0.53634  0.88740  0.18731  1.0000
  C   C4432     1.0  0.53165  0.87128  0.18243  1.0000
  C   C4433     1.0  0.53977  0.86720  0.19976  1.0000
  C   C4434     1.0  0.54028  0.86998  0.21126  1.0000
  C   C4435     1.0  0.54358  0.86889  0.17343  1.0000
  C   C4436     1.0  0.53205  0.89699  0.19471  1.0000
  C   C4437     1.0  0.53978  0.90593  0.19020  1.0000
  C   C4438     1.0  0.54748  0.85947  0.21845  1.0000
  C   C4439     1.0  0.54225  0.86445  0.16339  1.0000
  H   H7852     1.0  0.51374  0.88607  0.19381  1.0000
  H   H7853     1.0  0.51857  0.88295  0.20692  1.0000
  H   H7854     1.0  0.54615  0.88516  0.18519  1.0000
  H   H7855     1.0  0.53382  0.89193  0.17874  1.0000
  H   H7856     1.0  0.52506  0.87731  0.17743  1.0000
  H   H7857     1.0  0.52882  0.86279  0.18576  1.0000
  H   H7858     1.0  0.53757  0.85846  0.20191  1.0000
  H   H7859     1.0  0.54902  0.86586  0.19457  1.0000
  H   H7860     1.0  0.53142  0.87220  0.21695  1.0000
  H   H7861     1.0  0.54477  0.87733  0.20914  1.0000
  H   H7862     1.0  0.55030  0.86209  0.17764  1.0000
  H   H7863     1.0  0.54699  0.87698  0.16946  1.0000
  H   H7864     1.0  0.52286  0.90173  0.19426  1.0000
  H   H7865     1.0  0.53215  0.89329  0.20405  1.0000
  H   H7866     1.0  0.53701  0.91239  0.19588  1.0000
  H   H7867     1.0  0.54905  0.90139  0.19051  1.0000
  H   H7868     1.0  0.53918  0.91071  0.18109  1.0000
  H   H7869     1.0  0.55660  0.85700  0.21327  1.0000
  H   H7870     1.0  0.62834  0.85711  0.24100  1.0000
  H   H7871     1.0  0.53928  0.85605  0.16678  1.0000
  H   H7872     1.0  0.53578  0.87103  0.15867  1.0000
  H   H7873     1.0  0.55034  0.97497  0.15384  1.0000
  Fe  Fe506     1.0  0.57117  0.75430  0.00880  1.0000
  H   H7874     1.0  0.63661  0.83611  0.23839  1.0000
  S   S1001     1.0  0.49740  0.74768  0.03122  1.0000
  H   H7875     1.0  0.61710  0.95800  0.21911  1.0000
  H   H7876     1.0  0.50886  0.99132  0.17352  1.0000
  H   H7877     1.0  0.52253  0.78995  0.04615  1.0000
  C   C4440     1.0  0.57886  0.95012  0.23508  1.0000
  S   S1002     1.0  0.50350  0.83783  0.06554  1.0000
  H   H7878     1.0  0.59344  0.95932  0.12909  1.0000
  C   C4441     1.0  0.51868  0.98304  0.21662  1.0000
  C   C4442     1.0  0.54947  0.95615  0.20625  1.0000
  H   H7879     1.0  0.55240  0.78186  0.05241  1.0000
  H   H7880     1.0  0.50931  0.85492  0.11117  1.0000
  H   H7881     1.0  0.53769  0.79047  0.03964  1.0000
  H   H7882     1.0  0.59058  0.98886  0.23482  1.0000
  H   H7883     1.0  0.56359  0.95751  0.22019  1.0000
  H   H7884     1.0  0.55580  0.96208  0.23925  1.0000
  H   H7885     1.0  0.55457  0.94826  0.20270  1.0000
  C   C4443     1.0  0.51414  0.86195  0.99794  1.0000
  S   S1003     1.0  0.50939  0.80235  0.07030  1.0000
  H   H7886     1.0  0.57920  0.95552  0.22604  1.0000
  C   C4444     1.0  0.62955  0.89106  0.24069  1.0000
  H   H7887     1.0  0.56744  0.76317  0.07434  1.0000
  H   H7888     1.0  0.50935  0.79436  0.00701  1.0000
  C   C4445     1.0  0.57235  0.98359  0.23237  1.0000
  H   H7889     1.0  0.54887  0.78594  0.07996  1.0000
  C   C4446     1.0  0.53263  0.81489  0.01932  1.0000
  C   C4447     1.0  0.62018  0.84769  0.23441  1.0000
  S   S1004     1.0  0.50575  0.85526  0.03355  1.0000
  H   H7890     1.0  0.54252  0.96160  0.22268  1.0000
  H   H7891     1.0  0.54075  0.95878  0.20391  1.0000
  H   H7892     1.0  0.55408  0.96345  0.20203  1.0000
  S   S1005     1.0  0.55485  0.75015  0.02191  1.0000
  H   H7893     1.0  0.50909  0.96519  0.21335  1.0000
  H   H7894     1.0  0.61158  0.88004  0.19442  1.0000
  H   H7895     1.0  0.52868  0.96327  0.16574  1.0000
  H   H7896     1.0  0.51803  0.81248  0.09929  1.0000
  H   H7897     1.0  0.49670  0.78180  0.99575  1.0000
  H   H7898     1.0  0.50932  0.94283  0.18097  1.0000
  C   C4448     1.0  0.50794  0.86143  0.00970  1.0000
  Fe  Fe507     1.0  0.56454  0.74952  0.03526  1.0000
  H   H7899     1.0  0.53693  0.94739  0.18777  1.0000
  H   H7900     1.0  0.60728  0.97402  0.15617  1.0000
  H   H7901     1.0  0.54249  0.94674  0.22341  1.0000
  H   H7902     1.0  0.54936  0.75820  0.06418  1.0000
  H   H7903     1.0  0.58664  0.80658  0.99509  1.0000
  H   H7904     1.0  0.61492  0.84887  0.22789  1.0000
  H   H7905     1.0  0.51660  0.96285  0.15499  1.0000
  C   C4449     1.0  0.54642  0.77735  0.08178  1.0000
  C   C4450     1.0  0.52639  0.85819  0.99533  1.0000
  C   C4451     1.0  0.51340  0.91467  0.22994  1.0000
  H   H7906     1.0  0.49933  0.76041  0.00590  1.0000
  C   C4452     1.0  0.59465  0.95624  0.13823  1.0000
  C   C4453     1.0  0.51086  0.94707  0.18719  1.0000
  H   H7907     1.0  0.60271  0.86585  0.22580  1.0000
  H   H7908     1.0  0.56913  0.83076  0.02470  1.0000
  C   C4454     1.0  0.51243  0.92743  0.20119  1.0000
  C   C4455     1.0  0.52740  0.95557  0.17318  1.0000
  C   C4456     1.0  0.54937  0.94773  0.17134  1.0000
  C   C4457     1.0  0.62369  0.85916  0.23376  1.0000
  C   C4458     1.0  0.55102  0.75083  0.08209  1.0000
  H   H7909     1.0  0.52704  0.93366  0.18880  1.0000
  C   C4459     1.0  0.49773  0.91851  0.17112  1.0000
  C   C4460     1.0  0.51875  0.93740  0.19460  1.0000
  H   H7910     1.0  0.55691  0.94693  0.17517  1.0000
  H   H7911     1.0  0.50475  0.93043  0.20806  1.0000
  S   S1006     1.0  0.54421  0.98502  0.12614  1.0000
  C   C4461     1.0  0.56856  0.97621  0.14619  1.0000
  C   C4462     1.0  0.53796  0.95329  0.17896  1.0000
  H   H7912     1.0  0.50760  0.97450  0.17012  1.0000
  H   H7913     1.0  0.55549  0.98385  0.16007  1.0000
  C   C4463     1.0  0.61422  0.87557  0.21224  1.0000
  Fe  Fe508     1.0  0.51479  0.81985  0.06442  1.0000
  N   N245      1.0  0.55534  0.85259  0.10175  1.0000
  C   C4464     1.0  0.55769  0.86435  0.09456  1.0000
  C   C4465     1.0  0.54973  0.84746  0.09528  1.0000
  C   C4466     1.0  0.54676  0.85465  0.11314  1.0000
  C   C4467     1.0  0.56635  0.84416  0.10488  1.0000
  C   C4468     1.0  0.57657  0.84091  0.09452  1.0000
  C   C4469     1.0  0.56230  0.87133  0.10055  1.0000
  C   C4470     1.0  0.54081  0.84438  0.12069  1.0000
  C   C4471     1.0  0.55370  0.84981  0.08164  1.0000
  C   C4472     1.0  0.54933  0.84202  0.07663  1.0000
  C   C4473     1.0  0.58765  0.83369  0.09889  1.0000
  C   C4474     1.0  0.56444  0.88296  0.09232  1.0000
  C   C4475     1.0  0.53297  0.84738  0.13224  1.0000
  H   H7914     1.0  0.54946  0.87009  0.09204  1.0000
  H   H7915     1.0  0.56403  0.86352  0.08609  1.0000
  H   H7916     1.0  0.55081  0.83780  0.09878  1.0000
  H   H7917     1.0  0.54006  0.85116  0.09691  1.0000
  H   H7918     1.0  0.53956  0.86250  0.11139  1.0000
  H   H7919     1.0  0.55116  0.85674  0.11895  1.0000
  H   H7920     1.0  0.56977  0.84755  0.11056  1.0000
  H   H7921     1.0  0.56431  0.83568  0.11033  1.0000
  H   H7922     1.0  0.57890  0.84881  0.08806  1.0000
  H   H7923     1.0  0.57414  0.83539  0.09009  1.0000
  H   H7924     1.0  0.55580  0.87357  0.10854  1.0000
  H   H7925     1.0  0.57073  0.86624  0.10299  1.0000
  H   H7926     1.0  0.54744  0.83620  0.12291  1.0000
  H   H7927     1.0  0.53512  0.84255  0.11602  1.0000
  H   H7928     1.0  0.54993  0.85911  0.07781  1.0000
  H   H7929     1.0  0.56335  0.84830  0.07847  1.0000
  H   H7930     1.0  0.53961  0.84333  0.07943  1.0000
  H   H7931     1.0  0.55174  0.84430  0.06687  1.0000
  H   H7932     1.0  0.55341  0.83260  0.07959  1.0000
  H   H7933     1.0  0.59073  0.83888  0.10315  1.0000
  H   H7934     1.0  0.58592  0.82548  0.10526  1.0000
  H   H7935     1.0  0.59477  0.83126  0.09133  1.0000
  H   H7936     1.0  0.55612  0.88852  0.08988  1.0000
  H   H7937     1.0  0.56760  0.88782  0.09686  1.0000
  H   H7938     1.0  0.57117  0.88138  0.08422  1.0000
  H   H7939     1.0  0.52596  0.85540  0.13052  1.0000
  H   H7940     1.0  0.52868  0.84001  0.13740  1.0000
  H   H7941     1.0  0.53824  0.84885  0.13761  1.0000
  H   H7942     1.0  0.55019  0.74970  0.99621  1.0000
  H   H7943     1.0  0.51823  0.97326  0.18431  1.0000
  H   H7944     1.0  0.56877  0.78277  0.07323  1.0000
  C   C4476     1.0  0.63108  0.83788  0.23195  1.0000
  C   C4477     1.0  0.59848  0.96538  0.14213  1.0000
  H   H7945     1.0  0.56823  0.81613  0.01359  1.0000
  C   C4478     1.0  0.53075  0.79077  0.04783  1.0000
  H   H7946     1.0  0.61259  0.88855  0.23198  1.0000
  H   H7947     1.0  0.52847  0.94807  0.16912  1.0000
  H   H7948     1.0  0.60901  0.97513  0.23575  1.0000
  S   S1007     1.0  0.54343  0.96786  0.10398  1.0000
  H   H7949     1.0  0.51073  0.80911  0.11468  1.0000
  H   H7950     1.0  0.52082  0.94083  0.20116  1.0000
  H   H7951     1.0  0.60324  0.86977  0.20451  1.0000
  H   H7952     1.0  0.53081  0.84927  0.02334  1.0000
  H   H7953     1.0  0.50207  0.80748  0.09266  1.0000
  N   N246      1.0  0.51513  0.95811  0.18078  1.0000
  C   C4479     1.0  0.51388  0.85657  0.01891  1.0000
  C   C4480     1.0  0.59983  0.98184  0.15576  1.0000
  C   C4481     1.0  0.53445  0.78072  0.05777  1.0000
  H   H7954     1.0  0.56015  0.96810  0.16381  1.0000
  C   C4482     1.0  0.51027  0.91768  0.17184  1.0000
  H   H7955     1.0  0.52102  0.96048  0.19510  1.0000
  H   H7956     1.0  0.53897  0.96176  0.17994  1.0000
  H   H7957     1.0  0.50213  0.94927  0.19311  1.0000
  C   C4483     1.0  0.52613  0.85280  0.01630  1.0000
  N   N247      1.0  0.55930  0.94454  0.23628  1.0000
  H   H7958     1.0  0.56664  0.76592  0.05938  1.0000
  H   H7959     1.0  0.53742  0.75154  0.05341  1.0000
  H   H7960     1.0  0.58031  0.97118  0.15808  1.0000
  H   H7961     1.0  0.61237  0.94601  0.13257  1.0000
  H   H7962     1.0  0.60089  0.93808  0.13638  1.0000
  C   C4484     1.0  0.52198  0.77212  0.02364  1.0000
  C   C4485     1.0  0.58237  0.77740  0.05883  1.0000
  H   H7963     1.0  0.53284  0.79332  0.09571  1.0000
  C   C4486     1.0  0.51291  0.86871  0.20445  1.0000
  N   N248      1.0  0.56221  0.82010  0.99742  1.0000
  C   C4487     1.0  0.51593  0.79831  0.99975  1.0000
  H   H7964     1.0  0.60459  0.98930  0.11893  1.0000
  C   C4488     1.0  0.50670  0.75726  0.02808  1.0000
  H   H7965     1.0  0.60446  0.98728  0.09936  1.0000
  H   H7966     1.0  0.58637  0.95426  0.14421  1.0000
  H   H7967     1.0  0.56475  0.84622  0.01882  1.0000
  H   H7968     1.0  0.57825  0.83773  0.01156  1.0000
  H   H7969     1.0  0.61668  0.95442  0.23464  1.0000
  C   C4489     1.0  0.55353  0.93414  0.23992  1.0000
  C   C4490     1.0  0.50111  0.87655  0.16998  1.0000
  H   H7970     1.0  0.57068  0.96806  0.14293  1.0000
  H   H7971     1.0  0.52911  0.79936  0.05017  1.0000
  C   C4491     1.0  0.60337  0.99169  0.15852  1.0000
  C   C4492     1.0  0.50316  0.76706  0.03318  1.0000
  H   H7972     1.0  0.56578  0.94309  0.21812  1.0000
  H   H7973     1.0  0.53275  0.88918  0.22510  1.0000
  H   H7974     1.0  0.59146  0.98135  0.10539  1.0000
  H   H7975     1.0  0.59877  0.88518  0.20506  1.0000
  C   C4493     1.0  0.50657  0.82746  0.00544  1.0000
  C   C4494     1.0  0.51079  0.77455  0.03089  1.0000
  C   C4495     1.0  0.51781  0.75497  0.02064  1.0000
  H   H7976     1.0  0.59228  0.97956  0.16283  1.0000
  H   H7977     1.0  0.52625  0.75545  0.06602  1.0000
  C   C4496     1.0  0.52798  0.75222  0.05787  1.0000
  S   S1008     1.0  0.51237  0.84688  0.09018  1.0000
  H   H7978     1.0  0.57688  0.93383  0.23254  1.0000
  C   C4497     1.0  0.59131  0.90407  0.23190  1.0000
  H   H7979     1.0  0.52812  0.78592  0.08095  1.0000
  S   S1009     1.0  0.59311  0.97597  0.19280  1.0000
  N   N249      1.0  0.59074  0.97761  0.14089  1.0000
  H   H7980     1.0  0.57493  0.95597  0.24143  1.0000
  H   H7981     1.0  0.49749  0.96548  0.17761  1.0000
  H   H7982     1.0  0.54331  0.85181  0.22113  1.0000
  H   H7983     1.0  0.56705  0.99073  0.23700  1.0000
  H   H7984     1.0  0.62629  0.88091  0.22486  1.0000
  H   H7985     1.0  0.55517  0.92997  0.23232  1.0000
  H   H7986     1.0  0.52695  0.78064  0.06547  1.0000
  C   C4498     1.0  0.59694  0.98550  0.14339  1.0000
  H   H7987     1.0  0.60550  0.94111  0.14783  1.0000
  C   C4499     1.0  0.54779  0.95350  0.21961  1.0000
  H   H7988     1.0  0.55085  0.86298  0.15701  1.0000
  N   N250      1.0  0.56782  0.93028  0.13754  1.0000
  C   C4500     1.0  0.56597  0.94321  0.13178  1.0000
  C   C4501     1.0  0.55748  0.92804  0.14759  1.0000
  C   C4502     1.0  0.57867  0.92697  0.14257  1.0000
  C   C4503     1.0  0.56996  0.92263  0.12890  1.0000
  C   C4504     1.0  0.56036  0.92515  0.12193  1.0000
  C   C4505     1.0  0.57605  0.94693  0.12146  1.0000
  C   C4506     1.0  0.58091  0.91464  0.15090  1.0000
  C   C4507     1.0  0.54506  0.93548  0.14611  1.0000
  C   C4508     1.0  0.53541  0.92990  0.15502  1.0000
  C   C4509     1.0  0.56438  0.91797  0.11241  1.0000
  C   C4510     1.0  0.57303  0.96014  0.11629  1.0000
  C   C4511     1.0  0.59272  0.91183  0.15434  1.0000
  H   H7989     1.0  0.56448  0.94844  0.13850  1.0000
  H   H7990     1.0  0.55788  0.94639  0.12824  1.0000
  H   H7991     1.0  0.55726  0.91860  0.14979  1.0000
  H   H7992     1.0  0.55858  0.92975  0.15570  1.0000
  H   H7993     1.0  0.57829  0.93352  0.14762  1.0000
  H   H7994     1.0  0.58671  0.92716  0.13539  1.0000
  H   H7995     1.0  0.57851  0.92304  0.12250  1.0000
  H   H7996     1.0  0.57086  0.91322  0.13347  1.0000
  H   H7997     1.0  0.55823  0.93453  0.11751  1.0000
  H   H7998     1.0  0.55231  0.92251  0.12788  1.0000
  H   H7999     1.0  0.58435  0.94499  0.12441  1.0000
  H   H8000     1.0  0.57756  0.94231  0.11429  1.0000
  H   H8001     1.0  0.58108  0.90754  0.14675  1.0000
  H   H8002     1.0  0.57402  0.91425  0.15916  1.0000
  H   H8003     1.0  0.54391  0.94444  0.14751  1.0000
  H   H8004     1.0  0.54361  0.93654  0.13728  1.0000
  H   H8005     1.0  0.53642  0.92856  0.16413  1.0000
  H   H8006     1.0  0.52666  0.93569  0.15418  1.0000
  H   H8007     1.0  0.53579  0.92129  0.15325  1.0000
  H   H8008     1.0  0.57238  0.92025  0.10601  1.0000
  H   H8009     1.0  0.56624  0.90840  0.11641  1.0000
  H   H8010     1.0  0.55731  0.91993  0.10758  1.0000
  H   H8011     1.0  0.53405  0.76058  0.01277  1.0000
  H   H8012     1.0  0.57136  0.96524  0.12311  1.0000
  H   H8013     1.0  0.58045  0.96266  0.10910  1.0000
  H   H8014     1.0  0.60008  0.91149  0.14647  1.0000
  H   H8015     1.0  0.59301  0.91855  0.15878  1.0000
  H   H8016     1.0  0.59392  0.90312  0.16052  1.0000
  H   H8017     1.0  0.49736  0.97724  0.15346  1.0000
  C   C4512     1.0  0.56935  0.78042  0.06484  1.0000
  H   H8018     1.0  0.54790  0.86180  0.22651  1.0000
  N   N251      1.0  0.61384  0.86994  0.23464  1.0000
  H   H8019     1.0  0.50362  0.87317  0.22142  1.0000
  H   H8020     1.0  0.55122  0.77152  0.08859  1.0000
  S   S1010     1.0  0.50781  0.89365  0.23276  1.0000
  C   C4513     1.0  0.58267  0.89750  0.23705  1.0000
  Fe  Fe509     1.0  0.53845  0.98477  0.11030  1.0000
  H   H8021     1.0  0.50881  0.95153  0.16303  1.0000
  C   C4514     1.0  0.51113  0.81601  0.10644  1.0000
  C   C4515     1.0  0.58172  0.98802  0.22197  1.0000
  C   C4516     1.0  0.49780  0.74408  0.00325  1.0000
  H   H8022     1.0  0.59904  0.96161  0.15147  1.0000
  H   H8023     1.0  0.49848  0.86460  0.01169  1.0000
  C   C4517     1.0  0.50680  0.96525  0.17285  1.0000
  H   H8024     1.0  0.51331  0.90935  0.17792  1.0000
  C   C4518     1.0  0.49788  0.78804  0.06624  1.0000
  H   H8025     1.0  0.60553  0.98583  0.13709  1.0000
  H   H8026     1.0  0.50416  0.91805  0.23322  1.0000
  H   H8027     1.0  0.62671  0.96309  0.22465  1.0000
  C   C4519     1.0  0.54644  0.76132  0.07258  1.0000
  H   H8028     1.0  0.50236  0.82572  0.99941  1.0000
  H   H8029     1.0  0.54396  0.79086  0.06227  1.0000
  H   H8030     1.0  0.56638  0.98039  0.22920  1.0000
  C   C4520     1.0  0.50838  0.96107  0.16134  1.0000
  H   H8031     1.0  0.57655  0.97623  0.23871  1.0000
  H   H8032     1.0  0.53620  0.77252  0.05465  1.0000
  H   H8033     1.0  0.50973  0.81901  0.01130  1.0000
  H   H8034     1.0  0.50818  0.78198  0.03503  1.0000
  C   C4521     1.0  0.59975  0.98304  0.11845  1.0000
  C   C4522     1.0  0.61930  0.88017  0.23307  1.0000
  C   C4523     1.0  0.59155  0.94443  0.23619  1.0000
  H   H8035     1.0  0.58721  0.76976  0.06441  1.0000
  H   H8036     1.0  0.61819  0.98935  0.23286  1.0000
  H   H8037     1.0  0.53054  0.80952  0.02832  1.0000
  C   C4524     1.0  0.58865  0.98260  0.12862  1.0000
  C   C4525     1.0  0.59625  0.90761  0.23908  1.0000
  C   C4526     1.0  0.57180  0.94052  0.23791  1.0000
  H   H8038     1.0  0.54302  0.95682  0.24144  1.0000
  H   H8039     1.0  0.52248  0.75874  0.05199  1.0000
  C   C4527     1.0  0.61782  0.96134  0.22646  1.0000
  H   H8040     1.0  0.61757  0.88364  0.21040  1.0000
  C   C4528     1.0  0.53013  0.78481  0.09813  1.0000
  H   H8041     1.0  0.51623  0.91763  0.16302  1.0000
  H   H8042     1.0  0.52048  0.78646  0.10179  1.0000
  S   S1011     1.0  0.51664  0.98998  0.14960  1.0000
  H   H8043     1.0  0.50313  0.95389  0.21174  1.0000
  H   H8044     1.0  0.60567  0.98864  0.16726  1.0000
  H   H8045     1.0  0.54436  0.83016  0.00229  1.0000
  H   H8046     1.0  0.54869  0.89000  0.23909  1.0000
  C   C4529     1.0  0.56356  0.76986  0.06731  1.0000
  H   H8047     1.0  0.57728  0.82323  0.00115  1.0000
  H   H8048     1.0  0.59623  0.93944  0.22917  1.0000
  H   H8049     1.0  0.58521  0.78650  0.99587  1.0000
  C   C4530     1.0  0.50769  0.98903  0.21415  1.0000
  C   C4531     1.0  0.60645  0.87774  0.20356  1.0000
  H   H8050     1.0  0.56768  0.80151  0.00471  1.0000
  C   C4532     1.0  0.50259  0.96939  0.19729  1.0000
  H   H8051     1.0  0.62173  0.86812  0.21040  1.0000
  S   S1012     1.0  0.51122  0.87182  0.15778  1.0000
  C   C4533     1.0  0.60945  0.98239  0.21677  1.0000
  C   C4534     1.0  0.49810  0.83602  0.01305  1.0000
  H   H8052     1.0  0.56578  0.98377  0.13918  1.0000
  H   H8053     1.0  0.50005  0.82739  0.09505  1.0000
  C   C4535     1.0  0.49920  0.82023  0.10303  1.0000
  H   H8054     1.0  0.49679  0.86468  0.21640  1.0000
  H   H8055     1.0  0.53569  0.75427  0.99313  1.0000
  H   H8056     1.0  0.52365  0.82548  0.99338  1.0000
  H   H8057     1.0  0.49718  0.78839  0.09697  1.0000
  H   H8058     1.0  0.53523  0.74370  0.08808  1.0000
  H   H8059     1.0  0.88311  0.97113  0.43364  1.0000
  H   H8060     1.0  0.51033  0.87334  0.29834  1.0000
  H   H8061     1.0  0.87265  0.96972  0.45389  1.0000
  C   C4536     1.0  0.71049  0.90788  0.45120  1.0000
  H   H8062     1.0  0.98189  0.75271  0.45131  1.0000
  H   H8063     1.0  0.55359  0.90731  0.26032  1.0000
  H   H8064     1.0  0.73312  0.98095  0.46887  1.0000
  H   H8065     1.0  0.51188  0.93928  0.25538  1.0000
  H   H8066     1.0  0.96082  0.76989  0.41037  1.0000
  C   C4537     1.0  0.53532  0.88384  0.25411  1.0000
  H   H8067     1.0  0.60913  0.98091  0.48807  1.0000
  H   H8068     1.0  0.58826  0.86994  0.24336  1.0000
  H   H8069     1.0  0.51186  0.88753  0.25933  1.0000
  H   H8070     1.0  0.55395  0.88270  0.25237  1.0000
  H   H8071     1.0  0.58771  0.98369  0.32532  1.0000
  H   H8072     1.0  0.92434  0.87135  0.48411  1.0000
  H   H8073     1.0  0.87775  0.97175  0.40795  1.0000
  C   C4538     1.0  0.55008  0.91477  0.25360  1.0000
  H   H8074     1.0  0.62450  0.97940  0.25309  1.0000
  C   C4539     1.0  0.77768  0.96793  0.45646  1.0000
  C   C4540     1.0  0.76551  0.98617  0.42311  1.0000
  C   C4541     1.0  0.60553  0.86850  0.24664  1.0000
  H   H8075     1.0  0.72062  0.98401  0.45645  1.0000
  C   C4542     1.0  0.98326  0.81934  0.47808  1.0000
  Fe  Fe510     1.0  0.59037  0.92716  0.27702  1.0000
  C   C4543     1.0  0.53969  0.98085  0.29200  1.0000
  S   S1013     1.0  0.50539  0.91083  0.30813  1.0000
  C   C4544     1.0  0.97833  0.77917  0.38077  1.0000
  Fe  Fe511     1.0  0.59690  0.97586  0.35056  1.0000
  S   S1014     1.0  0.61344  0.96189  0.35188  1.0000
  H   H8076     1.0  0.68413  0.93040  0.45053  1.0000
  Fe  Fe512     1.0  0.58114  0.96090  0.36783  1.0000
  S   S1015     1.0  0.59635  0.94561  0.37074  1.0000
  S   S1016     1.0  0.56292  0.95872  0.37805  1.0000
  Fe  Fe513     1.0  0.60585  0.95881  0.37138  1.0000
  S   S1017     1.0  0.61689  0.95331  0.38529  1.0000
  Fe  Fe514     1.0  0.60265  0.94994  0.35113  1.0000
  S   S1018     1.0  0.61137  0.93529  0.34121  1.0000
  S   S1019     1.0  0.58999  0.97377  0.37010  1.0000
  S   S1020     1.0  0.58677  0.96428  0.34815  1.0000
  Fe  Fe515     1.0  0.65658  0.96191  0.44012  1.0000
  C   C4545     1.0  0.94574  0.83172  0.47481  1.0000
  S   S1021     1.0  0.58230  0.89106  0.27169  1.0000
  Fe  Fe516     1.0  0.67523  0.95759  0.41790  1.0000
  H   H8077     1.0  0.51003  0.88224  0.30811  1.0000
  S   S1022     1.0  0.68864  0.94417  0.40863  1.0000
  C   C4546     1.0  0.70476  0.94233  0.44249  1.0000
  Fe  Fe517     1.0  0.65257  0.97547  0.41575  1.0000
  C   C4547     1.0  0.57517  0.96424  0.29806  1.0000
  C   C4548     1.0  0.58962  0.95349  0.26337  1.0000
  S   S1023     1.0  0.65632  0.95623  0.42408  1.0000
  H   H8078     1.0  0.55227  0.99186  0.30875  1.0000
  C   C4549     1.0  0.91036  0.99071  0.46143  1.0000
  H   H8079     1.0  0.95689  0.75038  0.41274  1.0000
  Fe  Fe518     1.0  0.58477  0.91291  0.30161  1.0000
  S   S1024     1.0  0.57851  0.93186  0.29371  1.0000
  S   S1025     1.0  0.58917  0.90717  0.31950  1.0000
  Fe  Fe519     1.0  0.56522  0.92576  0.28868  1.0000
  S   S1026     1.0  0.54724  0.93688  0.28741  1.0000
  C   C4550     1.0  0.94767  0.76751  0.44150  1.0000
  H   H8080     1.0  0.78794  0.95248  0.47811  1.0000
  S   S1027     1.0  0.57027  0.90706  0.29816  1.0000
  N   N252      1.0  0.73956  0.98661  0.40234  1.0000
  H   H8081     1.0  0.61646  0.94545  0.31189  1.0000
  Fe  Fe520     1.0  0.74534  0.92547  0.44604  1.0000
  S   S1028     1.0  0.75673  0.92120  0.42904  1.0000
  S   S1029     1.0  0.73571  0.91224  0.45894  1.0000
  Fe  Fe521     1.0  0.75011  0.94981  0.44001  1.0000
  S   S1030     1.0  0.76166  0.94778  0.42236  1.0000
  S   S1031     1.0  0.74587  0.96525  0.44834  1.0000
  Fe  Fe522     1.0  0.74796  0.93944  0.42099  1.0000
  S   S1032     1.0  0.74214  0.94258  0.40411  1.0000
  Fe  Fe523     1.0  0.76932  0.92983  0.43207  1.0000
  S   S1033     1.0  0.78881  0.92225  0.43027  1.0000
  S   S1034     1.0  0.73565  0.94311  0.43783  1.0000
  S   S1035     1.0  0.75862  0.93248  0.44982  1.0000
  H   H8082     1.0  0.64712  0.95845  0.38215  1.0000
  C   C4551     1.0  0.51471  0.92023  0.25913  1.0000
  C   C4552     1.0  0.98970  0.76962  0.38011  1.0000
  S   S1036     1.0  0.90024  0.93976  0.47244  1.0000
  H   H8083     1.0  0.97286  0.75234  0.47117  1.0000
  Fe  Fe524     1.0  0.91452  0.92568  0.46517  1.0000
  S   S1037     1.0  0.91238  0.91394  0.45491  1.0000
  Fe  Fe525     1.0  0.91398  0.95038  0.46673  1.0000
  S   S1038     1.0  0.91036  0.96951  0.45762  1.0000
  C   C4553     1.0  0.59674  0.98862  0.30724  1.0000
  H   H8084     1.0  0.95799  0.76138  0.46045  1.0000
  Fe  Fe526     1.0  0.83155  0.95797  0.43501  1.0000
  S   S1039     1.0  0.83382  0.97491  0.43697  1.0000
  S   S1040     1.0  0.81223  0.95870  0.43819  1.0000
  Fe  Fe527     1.0  0.85775  0.94767  0.43100  1.0000
  S   S1041     1.0  0.86203  0.96372  0.43284  1.0000
  S   S1042     1.0  0.87198  0.93201  0.42670  1.0000
  Fe  Fe528     1.0  0.84642  0.96379  0.44794  1.0000
  S   S1043     1.0  0.84518  0.96799  0.46514  1.0000
  Fe  Fe529     1.0  0.84901  0.97356  0.42167  1.0000
  C   C4554     1.0  0.94776  0.95588  0.44825  1.0000
  S   S1044     1.0  0.84320  0.94676  0.44723  1.0000
  S   S1045     1.0  0.84581  0.95750  0.41855  1.0000
  C   C4555     1.0  0.60100  0.99288  0.32378  1.0000
  H   H8085     1.0  0.98306  0.80386  0.44846  1.0000
  C   C4556     1.0  0.61283  0.95507  0.30972  1.0000
  C   C4557     1.0  0.96880  0.86185  0.44279  1.0000
  H   H8086     1.0  0.77631  0.90306  0.47829  1.0000
  C   C4558     1.0  0.78646  0.91570  0.46585  1.0000
  H   H8087     1.0  0.92278  0.96335  0.41807  1.0000
  H   H8088     1.0  0.72153  0.90250  0.43093  1.0000
  C   C4559     1.0  0.83453  0.96064  0.47484  1.0000
  H   H8089     1.0  0.54088  0.91877  0.25752  1.0000
  S   S1046     1.0  0.92087  0.91729  0.48187  1.0000
  C   C4560     1.0  0.97989  0.96569  0.46858  1.0000
  C   C4561     1.0  0.81909  0.95057  0.47745  1.0000
  C   C4562     1.0  0.82592  0.95861  0.47055  1.0000
  C   C4563     1.0  0.67765  0.95864  0.47934  1.0000
  H   H8090     1.0  0.52388  0.91000  0.27300  1.0000
  H   H8091     1.0  0.81284  0.94864  0.47387  1.0000
  H   H8092     1.0  0.82489  0.96281  0.46169  1.0000
  C   C4564     1.0  0.90933  0.97909  0.46658  1.0000
  H   H8093     1.0  0.72720  0.91960  0.43724  1.0000
  H   H8094     1.0  0.61514  0.91797  0.29826  1.0000
  H   H8095     1.0  0.97714  0.83081  0.44093  1.0000
  H   H8096     1.0  0.71017  0.98127  0.43704  1.0000
  H   H8097     1.0  0.67568  0.97734  0.47199  1.0000
  C   C4565     1.0  0.98706  0.75723  0.38279  1.0000
  H   H8098     1.0  0.95290  0.95755  0.43904  1.0000
  H   H8099     1.0  0.91637  0.96342  0.43311  1.0000
  H   H8100     1.0  0.50675  0.92070  0.25612  1.0000
  C   C4566     1.0  0.67202  0.92309  0.48458  1.0000
  H   H8101     1.0  0.50923  0.90272  0.25313  1.0000
  H   H8102     1.0  0.74287  0.97794  0.41965  1.0000
  H   H8103     1.0  0.74121  0.98857  0.45136  1.0000
  N   N253      1.0  0.70858  0.92000  0.44313  1.0000
  N   N254      1.0  0.96790  0.83181  0.46578  1.0000
  C   C4567     1.0  0.90067  0.91889  0.44768  1.0000
  C   C4568     1.0  0.89091  0.92779  0.45081  1.0000
  C   C4569     1.0  0.88192  0.93175  0.44451  1.0000
  C   C4570     1.0  0.88273  0.92687  0.43509  1.0000
  C   C4571     1.0  0.89230  0.91775  0.43222  1.0000
  C   C4572     1.0  0.90121  0.91374  0.43853  1.0000
  H   H8104     1.0  0.89028  0.93161  0.45805  1.0000
  H   H8105     1.0  0.87441  0.93866  0.44681  1.0000
  H   H8106     1.0  0.89289  0.91387  0.42501  1.0000
  H   H8107     1.0  0.90866  0.90677  0.43617  1.0000
  C   C4573     1.0  0.79579  0.93247  0.43162  1.0000
  C   C4574     1.0  0.78911  0.94346  0.43354  1.0000
  C   C4575     1.0  0.79450  0.95160  0.43482  1.0000
  C   C4576     1.0  0.80652  0.94871  0.43468  1.0000
  C   C4577     1.0  0.81333  0.93777  0.43258  1.0000
  C   C4578     1.0  0.80795  0.92965  0.43100  1.0000
  H   H8108     1.0  0.77976  0.94573  0.43403  1.0000
  H   H8109     1.0  0.78930  0.96022  0.43586  1.0000
  H   H8110     1.0  0.82265  0.93553  0.43236  1.0000
  H   H8111     1.0  0.81316  0.92116  0.42945  1.0000
  H   H8112     1.0  0.98787  0.81263  0.43415  1.0000
  H   H8113     1.0  0.53524  0.87639  0.26186  1.0000
  H   H8114     1.0  0.56907  0.99180  0.36198  1.0000
  H   H8115     1.0  0.50857  0.91087  0.27649  1.0000
  H   H8116     1.0  0.68459  0.97185  0.48271  1.0000
  H   H8117     1.0  0.81482  0.93878  0.45756  1.0000
  C   C4579     1.0  0.68498  0.93385  0.38276  1.0000
  H   H8118     1.0  0.75616  0.97302  0.48511  1.0000
  H   H8119     1.0  0.76503  0.96782  0.42735  1.0000
  H   H8120     1.0  0.82622  0.92611  0.45505  1.0000
  H   H8121     1.0  0.64690  0.93858  0.41746  1.0000
  C   C4580     1.0  0.56946  0.96393  0.26938  1.0000
  S   S1047     1.0  0.57657  0.92269  0.27137  1.0000
  H   H8122     1.0  0.56044  0.96370  0.27386  1.0000
  H   H8123     1.0  0.57489  0.94534  0.27164  1.0000
  C   C4581     1.0  0.70336  0.94456  0.40697  1.0000
  C   C4582     1.0  0.71224  0.93739  0.40024  1.0000
  C   C4583     1.0  0.72409  0.93707  0.39920  1.0000
  C   C4584     1.0  0.72717  0.94359  0.40523  1.0000
  C   C4585     1.0  0.71831  0.95088  0.41188  1.0000
  C   C4586     1.0  0.70639  0.95152  0.41260  1.0000
  H   H8124     1.0  0.70995  0.93205  0.39581  1.0000
  H   H8125     1.0  0.73091  0.93153  0.39393  1.0000
  H   H8126     1.0  0.72067  0.95605  0.41641  1.0000
  H   H8127     1.0  0.69958  0.95726  0.41765  1.0000
  H   H8128     1.0  0.49777  0.95120  0.32000  1.0000
  H   H8129     1.0  0.72514  0.94537  0.48691  1.0000
  H   H8130     1.0  0.92914  0.96483  0.48804  1.0000
  C   C4587     1.0  0.96729  0.76201  0.41283  1.0000
  H   H8131     1.0  0.73764  0.90377  0.41300  1.0000
  H   H8132     1.0  0.77612  0.90851  0.45201  1.0000
  H   H8133     1.0  0.51789  0.89686  0.29156  1.0000
  H   H8134     1.0  0.85199  0.93499  0.48345  1.0000
  C   C4588     1.0  0.60469  0.92817  0.33493  1.0000
  C   C4589     1.0  0.60894  0.91606  0.33579  1.0000
  C   C4590     1.0  0.60412  0.90984  0.33095  1.0000
  C   C4591     1.0  0.59543  0.91572  0.32457  1.0000
  C   C4592     1.0  0.59133  0.92795  0.32335  1.0000
  C   C4593     1.0  0.59579  0.93415  0.32874  1.0000
  H   H8135     1.0  0.61590  0.91140  0.34042  1.0000
  H   H8136     1.0  0.60728  0.90041  0.33202  1.0000
  H   H8137     1.0  0.58459  0.93256  0.31848  1.0000
  H   H8138     1.0  0.59252  0.94352  0.32795  1.0000
  C   C4594     1.0  0.62210  0.96243  0.39090  1.0000
  C   C4595     1.0  0.62197  0.97424  0.38548  1.0000
  C   C4596     1.0  0.62709  0.98083  0.38974  1.0000
  C   C4597     1.0  0.63234  0.97572  0.39946  1.0000
  C   C4598     1.0  0.63212  0.96402  0.40507  1.0000
  C   C4599     1.0  0.62711  0.95741  0.40077  1.0000
  H   H8139     1.0  0.61811  0.97824  0.37789  1.0000
  H   H8140     1.0  0.61909  0.92197  0.30969  1.0000
  H   H8141     1.0  0.63582  0.96007  0.41275  1.0000
  H   H8142     1.0  0.62715  0.94832  0.40510  1.0000
  C   C4600     1.0  0.51731  0.91762  0.30171  1.0000
  C   C4601     1.0  0.51607  0.92825  0.29343  1.0000
  C   C4602     1.0  0.52537  0.93407  0.28894  1.0000
  C   C4603     1.0  0.53602  0.92910  0.29252  1.0000
  C   C4604     1.0  0.53738  0.91828  0.30052  1.0000
  C   C4605     1.0  0.52803  0.91254  0.30512  1.0000
  H   H8143     1.0  0.50790  0.93209  0.29061  1.0000
  H   H8144     1.0  0.52427  0.94245  0.28276  1.0000
  H   H8145     1.0  0.54549  0.91450  0.30348  1.0000
  H   H8146     1.0  0.52902  0.90430  0.31152  1.0000
  H   H8147     1.0  0.95838  0.85003  0.46462  1.0000
  C   C4606     1.0  0.70506  0.90697  0.46453  1.0000
  H   H8148     1.0  0.87340  0.98741  0.45631  1.0000
  S   S1048     1.0  0.96116  0.78137  0.48018  1.0000
  H   H8149     1.0  0.59180  0.93833  0.24488  1.0000
  H   H8150     1.0  0.51266  0.96571  0.28456  1.0000
  C   C4607     1.0  0.55051  0.96648  0.37216  1.0000
  C   C4608     1.0  0.55159  0.97310  0.36061  1.0000
  C   C4609     1.0  0.54146  0.97876  0.35610  1.0000
  C   C4610     1.0  0.53025  0.97788  0.36312  1.0000
  C   C4611     1.0  0.52920  0.97125  0.37463  1.0000
  C   C4612     1.0  0.53929  0.96567  0.37916  1.0000
  H   H8151     1.0  0.56020  0.97381  0.35518  1.0000
  C   C4613     1.0  0.55761  0.92383  0.24987  1.0000
  H   H8152     1.0  0.52059  0.97066  0.38016  1.0000
  H   H8153     1.0  0.53837  0.96079  0.38817  1.0000
  H   H8154     1.0  0.97243  0.87449  0.48757  1.0000
  H   H8155     1.0  0.67722  0.97898  0.38136  1.0000
  H   H8156     1.0  0.50442  0.89478  0.28994  1.0000
  H   H8157     1.0  0.66926  0.96028  0.48589  1.0000
  H   H8158     1.0  0.71775  0.99071  0.41678  1.0000
  H   H8159     1.0  0.54267  0.95909  0.27134  1.0000
  H   H8160     1.0  0.98637  0.83232  0.46212  1.0000
  H   H8161     1.0  0.64090  0.95241  0.36236  1.0000
  C   C4614     1.0  0.78785  0.98477  0.45193  1.0000
  H   H8162     1.0  0.73774  0.91826  0.41393  1.0000
  H   H8163     1.0  0.94699  0.95029  0.47177  1.0000
  H   H8164     1.0  0.61939  0.97439  0.27477  1.0000
  H   H8165     1.0  0.57122  0.93108  0.34186  1.0000
  C   C4615     1.0  0.61656  0.95677  0.27671  1.0000
  H   H8166     1.0  0.73680  0.96875  0.48960  1.0000
  Fe  Fe530     1.0  0.67087  0.98007  0.42614  1.0000
  H   H8167     1.0  0.60337  0.95686  0.31391  1.0000
  C   C4616     1.0  0.71564  0.91872  0.49029  1.0000
  H   H8168     1.0  0.93674  0.83627  0.49176  1.0000
  C   C4617     1.0  0.74121  0.89461  0.47740  1.0000
  C   C4618     1.0  0.74099  0.90640  0.47186  1.0000
  C   C4619     1.0  0.74451  0.91347  0.47693  1.0000
  H   H8169     1.0  0.61513  0.84460  0.24339  1.0000
  H   H8170     1.0  0.88518  0.98341  0.46363  1.0000
  H   H8171     1.0  0.73847  0.88913  0.47351  1.0000
  H   H8172     1.0  0.74414  0.92264  0.47279  1.0000
  H   H8173     1.0  0.97248  0.81275  0.43980  1.0000
  H   H8174     1.0  0.56165  0.98545  0.33123  1.0000
  C   C4620     1.0  0.51385  0.89068  0.28966  1.0000
  C   C4621     1.0  0.63950  0.97557  0.46440  1.0000
  C   C4622     1.0  0.64449  0.96377  0.46860  1.0000
  H   H8175     1.0  0.78629  0.98407  0.46157  1.0000
  C   C4623     1.0  0.98619  0.75262  0.41777  1.0000
  H   H8176     1.0  0.71873  0.92913  0.42723  1.0000
  H   H8177     1.0  0.96278  0.95415  0.47690  1.0000
  C   C4624     1.0  0.74516  0.88983  0.48788  1.0000
  H   H8178     1.0  0.57328  0.97375  0.29389  1.0000
  H   H8179     1.0  0.69945  0.92911  0.45733  1.0000
  H   H8180     1.0  0.64849  0.93556  0.39777  1.0000
  H   H8181     1.0  0.67490  0.96160  0.36963  1.0000
  H   H8182     1.0  0.54142  0.97663  0.28447  1.0000
  H   H8183     1.0  0.94963  0.75130  0.46115  1.0000
  H   H8184     1.0  0.96612  0.97253  0.45911  1.0000
  H   H8185     1.0  0.66319  0.92674  0.39756  1.0000
  H   H8186     1.0  0.52395  0.87546  0.29989  1.0000
  H   H8187     1.0  0.71731  0.91426  0.41912  1.0000
  H   H8188     1.0  0.92699  0.88039  0.46181  1.0000
  H   H8189     1.0  0.52071  0.93173  0.26605  1.0000
  H   H8190     1.0  0.63369  0.89065  0.24790  1.0000
  H   H8191     1.0  0.70237  0.88918  0.46821  1.0000
  H   H8192     1.0  0.65892  0.96609  0.36174  1.0000
  H   H8193     1.0  0.66249  0.95155  0.35890  1.0000
  C   C4625     1.0  0.67086  0.95963  0.37920  1.0000
  H   H8194     1.0  0.67828  0.95749  0.38365  1.0000
  C   C4626     1.0  0.88847  0.96641  0.44024  1.0000
  H   H8195     1.0  0.88479  0.95881  0.45898  1.0000
  C   C4627     1.0  0.50096  0.98188  0.27827  1.0000
  H   H8196     1.0  0.70731  0.90166  0.44829  1.0000
  H   H8197     1.0  0.88571  0.95329  0.42153  1.0000
  C   C4628     1.0  0.97150  0.89115  0.46289  1.0000
  C   C4629     1.0  0.97941  0.82273  0.44763  1.0000
  C   C4630     1.0  0.80660  0.99058  0.41433  1.0000
  H   H8198     1.0  0.75734  0.94742  0.48489  1.0000
  N   N255      1.0  0.53254  0.95368  0.31688  1.0000
  C   C4631     1.0  0.54016  0.94139  0.31847  1.0000
  C   C4632     1.0  0.52140  0.95378  0.31356  1.0000
  C   C4633     1.0  0.53927  0.96140  0.30675  1.0000
  C   C4634     1.0  0.52971  0.95871  0.32765  1.0000
  C   C4635     1.0  0.52431  0.95120  0.33945  1.0000
  C   C4636     1.0  0.55221  0.93985  0.32130  1.0000
  H   H8199     1.0  0.71501  0.90961  0.49091  1.0000
  C   C4637     1.0  0.51625  0.94264  0.31875  1.0000
  C   C4638     1.0  0.50455  0.94461  0.31551  1.0000
  C   C4639     1.0  0.52352  0.95643  0.34978  1.0000
  C   C4640     1.0  0.55819  0.92682  0.32413  1.0000
  H   H8200     1.0  0.55938  0.94767  0.25882  1.0000
  H   H8201     1.0  0.54193  0.93801  0.31041  1.0000
  H   H8202     1.0  0.53554  0.93515  0.32548  1.0000
  H   H8203     1.0  0.51430  0.96149  0.31578  1.0000
  H   H8204     1.0  0.52294  0.95488  0.30383  1.0000
  H   H8205     1.0  0.54237  0.95738  0.29887  1.0000
  H   H8206     1.0  0.54733  0.96206  0.30888  1.0000
  H   H8207     1.0  0.53770  0.96070  0.32869  1.0000
  H   H8208     1.0  0.52332  0.96735  0.32658  1.0000
  H   H8209     1.0  0.52959  0.94208  0.34117  1.0000
  H   H8210     1.0  0.51521  0.95108  0.33953  1.0000
  H   H8211     1.0  0.55817  0.94420  0.31363  1.0000
  H   H8212     1.0  0.55116  0.94353  0.32900  1.0000
  N   N256      1.0  0.71661  0.98236  0.48147  1.0000
  C   C4641     1.0  0.96507  0.75098  0.41416  1.0000
  H   H8213     1.0  0.52225  0.93514  0.31503  1.0000
  H   H8214     1.0  0.51485  0.94002  0.32843  1.0000
  H   H8215     1.0  0.63410  0.96597  0.25874  1.0000
  H   H8216     1.0  0.71790  0.97805  0.40596  1.0000
  H   H8217     1.0  0.52991  0.88287  0.24861  1.0000
  H   H8218     1.0  0.51962  0.95088  0.35811  1.0000
  H   H8219     1.0  0.53236  0.95683  0.35031  1.0000
  H   H8220     1.0  0.51780  0.96540  0.34886  1.0000
  H   H8221     1.0  0.55300  0.92212  0.33224  1.0000
  H   H8222     1.0  0.55923  0.92266  0.31673  1.0000
  H   H8223     1.0  0.56705  0.92585  0.32552  1.0000
  H   H8224     1.0  0.99428  0.77026  0.38654  1.0000
  H   H8225     1.0  0.98140  0.75582  0.39182  1.0000
  C   C4642     1.0  0.67598  0.93487  0.48134  1.0000
  H   H8226     1.0  0.71635  0.88995  0.47015  1.0000
  H   H8227     1.0  0.94538  0.82536  0.46999  1.0000
  C   C4643     1.0  0.58749  0.96021  0.30057  1.0000
  C   C4644     1.0  0.73748  0.97798  0.48554  1.0000
  H   H8228     1.0  0.54899  0.96861  0.25832  1.0000
  H   H8229     1.0  0.79610  0.97815  0.44977  1.0000
  H   H8230     1.0  0.62709  0.98991  0.38539  1.0000
  H   H8231     1.0  0.57789  0.94557  0.34668  1.0000
  C   C4645     1.0  0.73592  0.97969  0.41469  1.0000
  H   H8232     1.0  0.56856  0.96256  0.30638  1.0000
  H   H8233     1.0  0.99436  0.75321  0.41909  1.0000
  H   H8234     1.0  0.58790  0.96556  0.30643  1.0000
  H   H8235     1.0  0.75802  0.98015  0.40250  1.0000
  H   H8236     1.0  0.58829  0.95098  0.30539  1.0000
  H   H8237     1.0  0.67572  0.95730  0.47147  1.0000
  C   C4646     1.0  0.58470  0.97472  0.25980  1.0000
  H   H8238     1.0  0.96986  0.77714  0.45683  1.0000
  H   H8239     1.0  0.70701  0.96861  0.48588  1.0000
  C   C4647     1.0  0.63638  0.97975  0.48366  1.0000
  H   H8240     1.0  0.66766  0.92656  0.44534  1.0000
  C   C4648     1.0  0.59459  0.98782  0.31939  1.0000
  H   H8241     1.0  0.53006  0.88499  0.27823  1.0000
  C   C4649     1.0  0.71750  0.98000  0.38807  1.0000
  C   C4650     1.0  0.59703  0.96190  0.28902  1.0000
  N   N257      1.0  0.85849  0.90706  0.46640  1.0000
  H   H8242     1.0  0.98145  0.75774  0.37678  1.0000
  C   C4651     1.0  0.87141  0.90170  0.46269  1.0000
  H   H8243     1.0  0.75263  0.97326  0.47162  1.0000
  C   C4652     1.0  0.85434  0.91507  0.45571  1.0000
  C   C4653     1.0  0.85565  0.90911  0.44549  1.0000
  C   C4654     1.0  0.97790  0.76288  0.41449  1.0000
  C   C4655     1.0  0.86419  0.92293  0.47289  1.0000
  C   C4656     1.0  0.87731  0.89353  0.47272  1.0000
  C   C4657     1.0  0.84806  0.91675  0.43682  1.0000
  H   H8244     1.0  0.69934  0.92791  0.47777  1.0000
  H   H8245     1.0  0.67959  0.91578  0.48250  1.0000
  H   H8246     1.0  0.61044  0.86313  0.25353  1.0000
  H   H8247     1.0  0.85502  0.89048  0.46636  1.0000
  H   H8248     1.0  0.87288  0.89626  0.45619  1.0000
  H   H8249     1.0  0.52403  0.97463  0.30085  1.0000
  C   C4658     1.0  0.75025  0.97782  0.47901  1.0000
  H   H8250     1.0  0.54554  0.94399  0.26034  1.0000
  H   H8251     1.0  0.84509  0.91991  0.45822  1.0000
  H   H8252     1.0  0.85937  0.92210  0.45186  1.0000
  H   H8253     1.0  0.85316  0.90051  0.44862  1.0000
  H   H8254     1.0  0.86498  0.90765  0.44053  1.0000
  H   H8255     1.0  0.95786  0.83534  0.48274  1.0000
  H   H8256     1.0  0.83561  0.90483  0.46524  1.0000
  H   H8257     1.0  0.86312  0.92958  0.46470  1.0000
  H   H8258     1.0  0.87358  0.91832  0.47208  1.0000
  H   H8259     1.0  0.58561  0.86835  0.26489  1.0000
  H   H8260     1.0  0.85077  0.91327  0.42869  1.0000
  H   H8261     1.0  0.83866  0.91661  0.44067  1.0000
  H   H8262     1.0  0.84907  0.92598  0.43435  1.0000
  C   C4659     1.0  0.72426  0.98565  0.42218  1.0000
  C   C4660     1.0  0.62491  0.97010  0.25781  1.0000
  H   H8263     1.0  0.76745  0.95388  0.38940  1.0000
  C   C4661     1.0  0.97534  0.77582  0.47261  1.0000
  H   H8264     1.0  0.59715  0.85530  0.24467  1.0000
  H   H8265     1.0  0.61254  0.96723  0.47542  1.0000
  H   H8266     1.0  0.78663  0.96216  0.45496  1.0000
  H   H8267     1.0  0.65489  0.93038  0.47996  1.0000
  H   H8268     1.0  0.84694  0.91952  0.47680  1.0000
  C   C4662     1.0  0.96699  0.97122  0.46821  1.0000
  S   S1049     1.0  0.67164  0.97656  0.40869  1.0000
  C   C4663     1.0  0.52065  0.88777  0.27756  1.0000
  H   H8269     1.0  0.92385  0.92242  0.42635  1.0000
  S   S1050     1.0  0.63919  0.98411  0.40426  1.0000
  H   H8270     1.0  0.98554  0.97149  0.46224  1.0000
  C   C4664     1.0  0.89069  0.89048  0.46857  1.0000
  C   C4665     1.0  0.61895  0.96069  0.31539  1.0000
  H   H8271     1.0  0.57498  0.89177  0.34481  1.0000
  H   H8272     1.0  0.52984  0.90249  0.24925  1.0000
  H   H8273     1.0  0.76987  0.92303  0.48508  1.0000
  H   H8274     1.0  0.49692  0.89033  0.27743  1.0000
  H   H8275     1.0  0.63767  0.96716  0.36468  1.0000
  H   H8276     1.0  0.64574  0.96402  0.35058  1.0000
  C   C4666     1.0  0.86106  0.92950  0.48277  1.0000
  C   C4667     1.0  0.60974  0.94223  0.29382  1.0000
  H   H8277     1.0  0.79202  0.96947  0.48119  1.0000
  N   N258      1.0  0.90603  0.95810  0.42442  1.0000
  H   H8278     1.0  0.66082  0.91508  0.47958  1.0000
  H   H8279     1.0  0.50497  0.93300  0.27007  1.0000
  Fe  Fe531     1.0  0.58273  0.90446  0.28102  1.0000
  H   H8280     1.0  0.77862  0.98133  0.44050  1.0000
  H   H8281     1.0  0.96085  0.95848  0.45516  1.0000
  H   H8282     1.0  0.93481  0.96182  0.46843  1.0000
  H   H8283     1.0  0.78472  0.89553  0.45983  1.0000
  C   C4668     1.0  0.73575  0.90970  0.41912  1.0000
  H   H8284     1.0  0.89266  0.97257  0.44195  1.0000
  H   H8285     1.0  0.70884  0.94962  0.45499  1.0000
  H   H8286     1.0  0.89333  0.88631  0.46088  1.0000
  H   H8287     1.0  0.60532  0.94032  0.30321  1.0000
  H   H8288     1.0  0.56004  0.89955  0.34931  1.0000
  H   H8289     1.0  0.92788  0.94467  0.43055  1.0000
  C   C4669     1.0  0.80150  0.98744  0.42754  1.0000
  H   H8290     1.0  0.53751  0.89761  0.26090  1.0000
  S   S1051     1.0  0.85341  0.98886  0.40713  1.0000
  N   N259      1.0  0.86809  0.99047  0.47394  1.0000
  H   H8291     1.0  0.57429  0.95918  0.29215  1.0000
  C   C4670     1.0  0.59864  0.91127  0.36943  1.0000
  H   H8292     1.0  0.58319  0.93132  0.36117  1.0000
  H   H8293     1.0  0.60461  0.93944  0.28920  1.0000
  H   H8294     1.0  0.93989  0.86809  0.48097  1.0000
  C   C4671     1.0  0.65597  0.95774  0.36407  1.0000
  C   C4672     1.0  0.56883  0.89657  0.35152  1.0000
  C   C4673     1.0  0.55074  0.95084  0.25633  1.0000
  C   C4674     1.0  0.98861  0.77061  0.45486  1.0000
  H   H8295     1.0  0.60159  0.87720  0.24910  1.0000
  H   H8296     1.0  0.77438  0.96746  0.46602  1.0000
  H   H8297     1.0  0.74162  0.90575  0.42541  1.0000
  H   H8298     1.0  0.84284  0.99093  0.47742  1.0000
  H   H8299     1.0  0.57413  0.91262  0.34245  1.0000
  C   C4675     1.0  0.98075  0.81234  0.44224  1.0000
  H   H8300     1.0  0.92706  0.98282  0.41848  1.0000
  H   H8301     1.0  0.65469  0.97392  0.37906  1.0000
  H   H8302     1.0  0.76776  0.98910  0.49049  1.0000
  C   C4676     1.0  0.75239  0.97701  0.44013  1.0000
  C   C4677     1.0  0.68674  0.94792  0.48444  1.0000
  N   N260      1.0  0.51910  0.89743  0.26670  1.0000
  S   S1052     1.0  0.65010  0.95369  0.45924  1.0000
  C   C4678     1.0  0.64492  0.95989  0.48050  1.0000
  H   H8303     1.0  0.56825  0.89044  0.36027  1.0000
  H   H8304     1.0  0.77761  0.93206  0.48733  1.0000
  H   H8305     1.0  0.97516  0.91027  0.47672  1.0000
  H   H8306     1.0  0.98043  0.78787  0.37919  1.0000
  H   H8307     1.0  0.69633  0.92730  0.36739  1.0000
  C   C4679     1.0  0.97381  0.85063  0.45100  1.0000
  H   H8308     1.0  0.52234  0.91997  0.25155  1.0000
  C   C4680     1.0  0.66273  0.97112  0.38263  1.0000
  C   C4681     1.0  0.75804  0.94424  0.47696  1.0000
  H   H8309     1.0  0.66193  0.93033  0.41730  1.0000
  H   H8310     1.0  0.66006  0.96987  0.39232  1.0000
  C   C4682     1.0  0.57340  0.90708  0.35143  1.0000
  H   H8311     1.0  0.96634  0.76317  0.43979  1.0000
  C   C4683     1.0  0.95414  0.90712  0.46514  1.0000
  H   H8312     1.0  0.95939  0.96423  0.48610  1.0000
  H   H8313     1.0  0.66967  0.93222  0.37792  1.0000
  H   H8314     1.0  0.58237  0.90363  0.35316  1.0000
  H   H8315     1.0  0.56784  0.95210  0.32985  1.0000
  H   H8316     1.0  0.69951  0.91454  0.43331  1.0000
  C   C4684     1.0  0.98486  0.77252  0.47805  1.0000
  H   H8317     1.0  0.98999  0.76956  0.44601  1.0000
  H   H8318     1.0  0.97732  0.83815  0.47439  1.0000
  H   H8319     1.0  0.94976  0.97159  0.45128  1.0000
  S   S1053     1.0  0.65143  0.98111  0.43227  1.0000
  H   H8320     1.0  0.50194  0.95298  0.28078  1.0000
  H   H8321     1.0  0.72451  0.97203  0.43826  1.0000
  C   C4685     1.0  0.61652  0.96965  0.26989  1.0000
  H   H8322     1.0  0.90303  0.95215  0.44336  1.0000
  H   H8323     1.0  0.64821  0.95071  0.48397  1.0000
  H   H8324     1.0  0.66320  0.98918  0.38106  1.0000
  S   S1054     1.0  0.98063  0.77691  0.41182  1.0000
  H   H8325     1.0  0.56683  0.91922  0.24671  1.0000
  H   H8326     1.0  0.55609  0.91611  0.35912  1.0000
  H   H8327     1.0  0.55648  0.93555  0.34924  1.0000
  H   H8328     1.0  0.55412  0.95716  0.33983  1.0000
  C   C4686     1.0  0.87697  0.99008  0.46240  1.0000
  H   H8329     1.0  0.68070  0.93623  0.47192  1.0000
  C   C4687     1.0  0.68605  0.92317  0.44591  1.0000
  C   C4688     1.0  0.92947  0.92815  0.42646  1.0000
  H   H8330     1.0  0.87420  0.88520  0.47585  1.0000
  H   H8331     1.0  0.81270  0.98266  0.41143  1.0000
  C   C4689     1.0  0.62162  0.92160  0.30024  1.0000
  H   H8332     1.0  0.63858  0.97854  0.45542  1.0000
  C   C4690     1.0  0.56510  0.91410  0.36070  1.0000
  C   C4691     1.0  0.56574  0.93425  0.34984  1.0000
  C   C4692     1.0  0.56387  0.95534  0.33812  1.0000
  H   H8333     1.0  0.71482  0.92803  0.45327  1.0000
  H   H8334     1.0  0.60763  0.97445  0.26844  1.0000
  H   H8335     1.0  0.50548  0.94771  0.30585  1.0000
  H   H8336     1.0  0.97365  0.77943  0.37404  1.0000
  C   C4693     1.0  0.59302  0.90411  0.25134  1.0000
  H   H8337     1.0  0.95114  0.75238  0.48004  1.0000
  C   C4694     1.0  0.61495  0.95993  0.29624  1.0000
  H   H8338     1.0  0.62243  0.96547  0.25249  1.0000
  C   C4695     1.0  0.49714  0.89755  0.26948  1.0000
  N   N261      1.0  0.78794  0.92103  0.47503  1.0000
  H   H8339     1.0  0.93513  0.92320  0.43281  1.0000
  C   C4696     1.0  0.72365  0.96248  0.47470  1.0000
  H   H8340     1.0  0.90779  0.94033  0.42265  1.0000
  C   C4697     1.0  0.62501  0.87992  0.24310  1.0000
  S   S1055     1.0  0.56277  0.98732  0.26859  1.0000
  H   H8341     1.0  0.81219  0.91342  0.46891  1.0000
  C   C4698     1.0  0.67399  0.93938  0.37730  1.0000
  C   C4699     1.0  0.97696  0.89612  0.46839  1.0000
  C   C4700     1.0  0.66163  0.94576  0.39558  1.0000
  H   H8342     1.0  0.56467  0.90799  0.36947  1.0000
  H   H8343     1.0  0.58667  0.92090  0.35238  1.0000
  H   H8344     1.0  0.56644  0.96371  0.33699  1.0000
  H   H8345     1.0  0.60217  0.96425  0.25482  1.0000
  H   H8346     1.0  0.89464  0.88428  0.47580  1.0000
  H   H8347     1.0  0.55949  0.97759  0.31585  1.0000
  C   C4701     1.0  0.53711  0.99106  0.24318  1.0000
  S   S1056     1.0  0.92012  0.94401  0.48359  1.0000
  H   H8348     1.0  0.59650  0.97154  0.28627  1.0000
  C   C4702     1.0  0.87492  0.96797  0.48207  1.0000
  H   H8349     1.0  0.62469  0.95834  0.29296  1.0000
  C   C4703     1.0  0.93142  0.88645  0.47496  1.0000
  C   C4704     1.0  0.50966  0.89628  0.26158  1.0000
  N   N262      1.0  0.56823  0.92525  0.36076  1.0000
  C   C4705     1.0  0.56828  0.94640  0.34846  1.0000
  C   C4706     1.0  0.93692  0.82996  0.48661  1.0000
  N   N263      1.0  0.60954  0.95517  0.28929  1.0000
  C   C4707     1.0  0.73105  0.98814  0.39474  1.0000
  H   H8350     1.0  0.59413  0.95957  0.28223  1.0000
  C   C4708     1.0  0.89792  0.95582  0.43636  1.0000
  H   H8351     1.0  0.93271  0.98726  0.48750  1.0000
  C   C4709     1.0  0.91779  0.98546  0.42325  1.0000
  C   C4710     1.0  0.69838  0.92193  0.43755  1.0000
  C   C4711     1.0  0.97720  0.77471  0.46105  1.0000
  H   H8352     1.0  0.86728  0.93524  0.48091  1.0000
  C   C4712     1.0  0.85194  0.89730  0.47173  1.0000
  C   C4713     1.0  0.58106  0.92314  0.36077  1.0000
  H   H8353     1.0  0.60143  0.90493  0.37723  1.0000
  C   C4714     1.0  0.66310  0.92376  0.47759  1.0000
  H   H8354     1.0  0.67635  0.93453  0.43278  1.0000
  C   C4715     1.0  0.74814  0.90876  0.48762  1.0000
  H   H8355     1.0  0.58738  0.98290  0.25630  1.0000
  H   H8356     1.0  0.79764  0.93318  0.47565  1.0000
  H   H8357     1.0  0.87622  0.95536  0.45109  1.0000
  H   H8358     1.0  0.79666  0.98050  0.42905  1.0000
  S   S1057     1.0  0.97830  0.87765  0.45864  1.0000
  H   H8359     1.0  0.94962  0.94623  0.45185  1.0000
  H   H8360     1.0  0.61341  0.95251  0.27154  1.0000
  H   H8361     1.0  0.56453  0.93617  0.37337  1.0000
  H   H8362     1.0  0.58301  0.90519  0.37208  1.0000
  H   H8363     1.0  0.56412  0.94999  0.35646  1.0000
  H   H8364     1.0  0.54641  0.94367  0.36627  1.0000
  H   H8365     1.0  0.59162  0.98497  0.30383  1.0000
  H   H8366     1.0  0.72007  0.90395  0.45066  1.0000
  S   S1058     1.0  0.51767  0.98534  0.35745  1.0000
  H   H8367     1.0  0.74891  0.96867  0.38815  1.0000
  C   C4716     1.0  0.79677  0.92861  0.46928  1.0000
  C   C4717     1.0  0.77616  0.90935  0.46971  1.0000
  C   C4718     1.0  0.77088  0.93916  0.47169  1.0000
  H   H8368     1.0  0.77576  0.94616  0.46950  1.0000
  H   H8369     1.0  0.67738  0.94248  0.36772  1.0000
  H   H8370     1.0  0.53049  0.97914  0.31002  1.0000
  C   C4719     1.0  0.94434  0.95992  0.46847  1.0000
  C   C4720     1.0  0.56094  0.92945  0.37174  1.0000
  C   C4721     1.0  0.58529  0.91365  0.37116  1.0000
  H   H8371     1.0  0.94673  0.98283  0.46332  1.0000
  H   H8372     1.0  0.98098  0.84518  0.44556  1.0000
  C   C4722     1.0  0.89938  0.96377  0.41472  1.0000
  C   C4723     1.0  0.54766  0.93471  0.37199  1.0000
  C   C4724     1.0  0.94072  0.98759  0.48030  1.0000
  C   C4725     1.0  0.95948  0.91196  0.47087  1.0000
  H   H8373     1.0  0.94265  0.87870  0.46025  1.0000
  H   H8374     1.0  0.94006  0.76325  0.44476  1.0000
  H   H8375     1.0  0.56160  0.92211  0.37959  1.0000
  H   H8376     1.0  0.54378  0.92924  0.36888  1.0000
  H   H8377     1.0  0.80894  0.98362  0.43192  1.0000
  C   C4726     1.0  0.75355  0.96828  0.39495  1.0000
  H   H8378     1.0  0.71268  0.97287  0.39039  1.0000
  C   C4727     1.0  0.80913  0.92217  0.46350  1.0000
  H   H8379     1.0  0.79368  0.93580  0.46207  1.0000
  H   H8380     1.0  0.79464  0.90921  0.46301  1.0000
  C   C4728     1.0  0.77646  0.92848  0.48036  1.0000
  H   H8381     1.0  0.77124  0.93690  0.46339  1.0000
  H   H8382     1.0  0.90572  0.96561  0.40614  1.0000
  H   H8383     1.0  0.58056  0.85719  0.26185  1.0000
  H   H8384     1.0  0.88902  0.96694  0.39578  1.0000
  H   H8385     1.0  0.60404  0.95798  0.48688  1.0000
  C   C4729     1.0  0.86496  0.97859  0.47844  1.0000
  H   H8386     1.0  0.96191  0.86786  0.44793  1.0000
  C   C4730     1.0  0.65676  0.93443  0.40055  1.0000
  H   H8387     1.0  0.58123  0.91669  0.37952  1.0000
  H   H8388     1.0  0.60147  0.91952  0.36831  1.0000
  H   H8389     1.0  0.60313  0.90746  0.36156  1.0000
  C   C4731     1.0  0.91418  0.96553  0.42432  1.0000
  H   H8390     1.0  0.94601  0.77487  0.44593  1.0000
  H   H8391     1.0  0.63260  0.87231  0.24388  1.0000
  C   C4732     1.0  0.95897  0.75856  0.44370  1.0000
  C   C4733     1.0  0.63530  0.98349  0.47195  1.0000
  H   H8392     1.0  0.69552  0.91097  0.46621  1.0000
  H   H8393     1.0  0.93522  0.93022  0.41760  1.0000
  H   H8394     1.0  0.94842  0.98476  0.48441  1.0000
  H   H8395     1.0  0.75516  0.98596  0.38816  1.0000
  H   H8396     1.0  0.54228  0.98375  0.34716  1.0000
  H   H8397     1.0  0.89371  0.97246  0.41593  1.0000
  H   H8398     1.0  0.75028  0.96232  0.40318  1.0000
  H   H8399     1.0  0.97595  0.86649  0.43771  1.0000
  H   H8400     1.0  0.94534  0.91132  0.46383  1.0000
  H   H8401     1.0  0.70095  0.92018  0.38100  1.0000
  H   H8402     1.0  0.70949  0.91149  0.46821  1.0000
  H   H8403     1.0  0.63041  0.91558  0.29858  1.0000
  H   H8404     1.0  0.75441  0.95179  0.47040  1.0000
  C   C4734     1.0  0.54068  0.93572  0.38443  1.0000
  H   H8405     1.0  0.54482  0.94029  0.38835  1.0000
  H   H8406     1.0  0.71099  0.98857  0.38758  1.0000
  C   C4735     1.0  0.81823  0.92940  0.46136  1.0000
  H   H8407     1.0  0.72358  0.97972  0.37934  1.0000
  H   H8408     1.0  0.97900  0.74467  0.44289  1.0000
  C   C4736     1.0  0.66907  0.98124  0.37801  1.0000
  H   H8409     1.0  0.51840  0.87973  0.27692  1.0000
  H   H8410     1.0  0.53154  0.94082  0.38417  1.0000
  C   C4737     1.0  0.53057  0.89597  0.25764  1.0000
  C   C4738     1.0  0.68244  0.96982  0.47532  1.0000
  H   H8411     1.0  0.49733  0.89637  0.34746  1.0000
  H   H8412     1.0  0.78536  0.92242  0.45762  1.0000
  H   H8413     1.0  0.54032  0.92685  0.39011  1.0000
  H   H8414     1.0  0.67136  0.98333  0.36824  1.0000
  C   C4739     1.0  0.53245  0.97427  0.30296  1.0000
  H   H8415     1.0  0.62561  0.93288  0.28329  1.0000
  C   C4740     1.0  0.59473  0.86336  0.24814  1.0000
  C   C4741     1.0  0.57775  0.95344  0.26827  1.0000
  H   H8416     1.0  0.91744  0.98340  0.43283  1.0000
  H   H8417     1.0  0.98805  0.82220  0.44931  1.0000
  H   H8418     1.0  0.61189  0.96966  0.29478  1.0000
  H   H8419     1.0  0.69329  0.95046  0.45675  1.0000
  H   H8420     1.0  0.89695  0.94886  0.40936  1.0000
  Fe  Fe532     1.0  0.99561  0.86784  0.46357  1.0000
  H   H8421     1.0  0.97099  0.81362  0.46467  1.0000
  H   H8422     1.0  0.59719  0.90655  0.25680  1.0000
  C   C4742     1.0  0.95833  0.82969  0.47672  1.0000
  H   H8423     1.0  0.94855  0.77119  0.43191  1.0000
  C   C4743     1.0  0.96402  0.84406  0.45867  1.0000
  C   C4744     1.0  0.90750  0.98276  0.48575  1.0000
  H   H8424     1.0  0.70066  0.96022  0.44481  1.0000
  C   C4745     1.0  0.77654  0.90254  0.46073  1.0000
  H   H8425     1.0  0.80887  0.92082  0.45492  1.0000
  C   C4746     1.0  0.57298  0.97455  0.26551  1.0000
  C   C4747     1.0  0.71956  0.92049  0.43346  1.0000
  H   H8426     1.0  0.82063  0.92873  0.46972  1.0000
  C   C4748     1.0  0.51297  0.93172  0.26294  1.0000
  C   C4749     1.0  0.55377  0.98616  0.31735  1.0000
  Fe  Fe533     1.0  0.93288  0.92977  0.47508  1.0000
  H   H8427     1.0  0.97244  0.77758  0.38962  1.0000
  H   H8428     1.0  0.69484  0.94751  0.47727  1.0000
  H   H8429     1.0  0.89339  0.94893  0.43691  1.0000
  H   H8430     1.0  0.79994  0.98990  0.48211  1.0000
  C   C4750     1.0  0.67640  0.92595  0.43913  1.0000
  H   H8431     1.0  0.76886  0.89838  0.46366  1.0000
  C   C4751     1.0  0.79200  0.91121  0.48479  1.0000
  H   H8432     1.0  0.68859  0.91682  0.37824  1.0000
  S   S1059     1.0  0.60023  0.94026  0.26447  1.0000
  H   H8433     1.0  0.98454  0.81163  0.47434  1.0000
  H   H8434     1.0  0.73042  0.96944  0.39785  1.0000
  C   C4752     1.0  0.93378  0.88444  0.46255  1.0000
  C   C4753     1.0  0.76655  0.96285  0.39061  1.0000
  H   H8435     1.0  0.96038  0.82045  0.48175  1.0000
  H   H8436     1.0  0.98131  0.96455  0.47752  1.0000
  C   C4754     1.0  0.71860  0.97670  0.43211  1.0000
  C   C4755     1.0  0.72287  0.91127  0.42572  1.0000
  C   C4756     1.0  0.95131  0.96213  0.45555  1.0000
  C   C4757     1.0  0.65396  0.93149  0.41398  1.0000
  H   H8437     1.0  0.68248  0.93007  0.39230  1.0000
  H   H8438     1.0  0.69011  0.94048  0.38156  1.0000
  C   C4758     1.0  0.83833  0.90118  0.47375  1.0000
  H   H8439     1.0  0.67773  0.91899  0.43429  1.0000
  H   H8440     1.0  0.68539  0.91481  0.45244  1.0000
  H   H8441     1.0  0.50167  0.93617  0.31827  1.0000
  H   H8442     1.0  0.87639  0.90866  0.45790  1.0000
  C   C4759     1.0  0.94146  0.97952  0.47209  1.0000
  H   H8443     1.0  0.93825  0.95918  0.44820  1.0000
  C   C4760     1.0  0.77775  0.98061  0.44997  1.0000
  C   C4761     1.0  0.99489  0.81907  0.48067  1.0000
  S   S1060     1.0  0.95182  0.92466  0.47636  1.0000
  H   H8444     1.0  0.57210  0.93602  0.24715  1.0000
  H   H8445     1.0  0.77024  0.96824  0.38205  1.0000
  C   C4762     1.0  0.64112  0.96789  0.48794  1.0000
  H   H8446     1.0  0.77209  0.98566  0.41501  1.0000
  C   C4763     1.0  0.90994  0.97909  0.42066  1.0000
  H   H8447     1.0  0.87799  0.95860  0.40376  1.0000
  H   H8448     1.0  0.69739  0.94425  0.43813  1.0000
  C   C4764     1.0  0.58496  0.89691  0.25648  1.0000
  H   H8449     1.0  0.71270  0.94398  0.43573  1.0000
  C   C4765     1.0  0.93855  0.96286  0.48852  1.0000
  H   H8450     1.0  0.55719  0.92687  0.25779  1.0000
  C   C4766     1.0  0.97096  0.90654  0.47234  1.0000
  C   C4767     1.0  0.71623  0.96954  0.48419  1.0000
  C   C4768     1.0  0.64436  0.96047  0.36022  1.0000
  H   H8451     1.0  0.96505  0.85974  0.43650  1.0000
  C   C4769     1.0  0.76139  0.97612  0.43000  1.0000
  C   C4770     1.0  0.90761  0.97523  0.47879  1.0000
  C   C4771     1.0  0.62211  0.93385  0.29256  1.0000
  H   H8452     1.0  0.88283  0.96698  0.47485  1.0000
  H   H8453     1.0  0.54522  0.98460  0.32315  1.0000
  C   C4772     1.0  0.88006  0.96232  0.45174  1.0000
  C   C4773     1.0  0.75188  0.98070  0.39696  1.0000
  S   S1061     1.0  0.67590  0.96110  0.43474  1.0000
  H   H8454     1.0  0.57330  0.88830  0.25331  1.0000
  H   H8455     1.0  0.65087  0.94438  0.37902  1.0000
  C   C4774     1.0  0.97889  0.83096  0.46971  1.0000
  C   C4775     1.0  0.85616  0.91422  0.47552  1.0000
  H   H8456     1.0  0.77169  0.96211  0.39713  1.0000
  H   H8457     1.0  0.65468  0.95288  0.39909  1.0000
  C   C4776     1.0  0.65437  0.95233  0.37744  1.0000
  H   H8458     1.0  0.95840  0.84391  0.45291  1.0000
  C   C4777     1.0  0.93195  0.87465  0.48419  1.0000
  C   C4778     1.0  0.54398  0.96156  0.26163  1.0000
  S   S1062     1.0  0.59786  0.90854  0.28519  1.0000
  H   H8459     1.0  0.81041  0.98368  0.45250  1.0000
  H   H8460     1.0  0.77173  0.96458  0.45339  1.0000
  H   H8461     1.0  0.59440  0.85346  0.26620  1.0000
  C   C4779     1.0  0.51463  0.87970  0.29957  1.0000
  C   C4780     1.0  0.50502  0.96963  0.28076  1.0000
  H   H8462     1.0  0.76901  0.98593  0.45344  1.0000
  H   H8463     1.0  0.61864  0.87942  0.25172  1.0000
  H   H8464     1.0  0.72819  0.94483  0.47163  1.0000
  H   H8465     1.0  0.78217  0.98939  0.48198  1.0000
  H   H8466     1.0  0.73520  0.97082  0.41463  1.0000
  H   H8467     1.0  0.54820  0.98099  0.29359  1.0000
  H   H8468     1.0  0.96137  0.82355  0.45609  1.0000
  H   H8469     1.0  0.51979  0.98935  0.24421  1.0000
  H   H8470     1.0  0.62836  0.93728  0.29508  1.0000
  H   H8471     1.0  0.75270  0.93754  0.47929  1.0000
  H   H8472     1.0  0.93243  0.98112  0.47065  1.0000
  C   C4781     1.0  0.70695  0.92949  0.44965  1.0000
  H   H8473     1.0  0.97780  0.85327  0.45675  1.0000
  H   H8474     1.0  0.98573  0.89189  0.46971  1.0000
  H   H8475     1.0  0.61612  0.97041  0.31326  1.0000
  C   C4782     1.0  0.88362  0.96396  0.40461  1.0000
  C   C4783     1.0  0.72244  0.94973  0.47844  1.0000
  H   H8476     1.0  0.69826  0.92978  0.43015  1.0000
  H   H8477     1.0  0.71322  0.94939  0.47932  1.0000
  C   C4784     1.0  0.89148  0.95656  0.41310  1.0000
  H   H8478     1.0  0.61670  0.95765  0.32510  1.0000
  C   C4785     1.0  0.96955  0.82260  0.45895  1.0000
  H   H8479     1.0  0.91674  0.93676  0.43933  1.0000
  H   H8480     1.0  0.91884  0.94754  0.41277  1.0000
  H   H8481     1.0  0.65080  0.92319  0.41730  1.0000
  C   C4786     1.0  0.70681  0.89418  0.47130  1.0000
  N   N264      1.0  0.68347  0.93604  0.48877  1.0000
  C   C4787     1.0  0.69318  0.92393  0.37695  1.0000
  S   S1063     1.0  0.92773  0.93699  0.45774  1.0000
  C   C4788     1.0  0.72437  0.97820  0.39742  1.0000
  C   C4789     1.0  0.91346  0.94636  0.42196  1.0000
  H   H8482     1.0  0.93348  0.89301  0.45614  1.0000
  H   H8483     1.0  0.69044  0.96888  0.46812  1.0000
  N   N265      1.0  0.66521  0.94928  0.38237  1.0000
  C   C4790     1.0  0.95879  0.96355  0.47733  1.0000
  H   H8484     1.0  0.66904  0.94482  0.39966  1.0000
  H   H8485     1.0  0.62865  0.95814  0.31232  1.0000
  Fe  Fe534     1.0  0.50148  0.97795  0.36659  1.0000
  H   H8486     1.0  0.73568  0.98931  0.38531  1.0000
  C   C4791     1.0  0.59303  0.96418  0.25871  1.0000
  C   C4792     1.0  0.92188  0.93942  0.43030  1.0000
  H   H8487     1.0  0.89420  0.89854  0.46611  1.0000
  N   N266      1.0  0.94607  0.96655  0.47646  1.0000
  H   H8488     1.0  0.70302  0.89383  0.48082  1.0000
  H   H8489     1.0  0.90628  0.96649  0.48292  1.0000
  H   H8490     1.0  0.62597  0.95229  0.27636  1.0000
  H   H8491     1.0  0.86160  0.97663  0.47175  1.0000
  H   H8492     1.0  0.95602  0.89309  0.45666  1.0000
  H   H8493     1.0  0.96490  0.98006  0.47018  1.0000
  C   C4793     1.0  0.96018  0.89680  0.46108  1.0000
  H   H8494     1.0  0.73313  0.96223  0.47321  1.0000
  H   H8495     1.0  0.72072  0.96632  0.46633  1.0000
  C   C4794     1.0  0.70173  0.95115  0.45031  1.0000
  C   C4795     1.0  0.51660  0.90943  0.26944  1.0000
  H   H8496     1.0  0.96040  0.75155  0.43896  1.0000
  H   H8497     1.0  0.98262  0.95700  0.46612  1.0000
  H   H8498     1.0  0.89746  0.91578  0.48990  1.0000
  H   H8499     1.0  0.95482  0.87722  0.48047  1.0000
  H   H8500     1.0  0.93795  0.89113  0.47506  1.0000
  H   H8501     1.0  0.94273  0.84075  0.46984  1.0000
  H   H8502     1.0  0.85761  0.97854  0.48631  1.0000
  C   C4796     1.0  0.95833  0.75363  0.45704  1.0000
  H   H8503     1.0  0.91033  0.98172  0.41105  1.0000
  H   H8504     1.0  0.78445  0.90746  0.49050  1.0000
  H   H8505     1.0  0.87519  0.89769  0.48027  1.0000
  H   H8506     1.0  0.76770  0.91594  0.47051  1.0000
  H   H8507     1.0  0.90080  0.98233  0.42522  1.0000
  H   H8508     1.0  0.71662  0.97021  0.42852  1.0000
  H   H8509     1.0  0.85400  0.89249  0.48044  1.0000
  H   H8510     1.0  0.77659  0.97185  0.48262  1.0000
  H   H8511     1.0  0.72610  0.99190  0.42621  1.0000
  C   C4797     1.0  0.87070  0.95652  0.48564  1.0000
  C   C4798     1.0  0.57961  0.89380  0.24934  1.0000
  H   H8512     1.0  0.79843  0.90375  0.48126  1.0000
  H   H8513     1.0  0.53516  0.96499  0.25950  1.0000
  H   H8514     1.0  0.66785  0.94190  0.48163  1.0000
  H   H8515     1.0  0.82093  0.98429  0.48222  1.0000
  C   C4799     1.0  0.74808  0.98770  0.44367  1.0000
  C   C4800     1.0  0.60509  0.96717  0.48325  1.0000
  H   H8516     1.0  0.71944  0.92260  0.48104  1.0000
  C   C4801     1.0  0.58848  0.86041  0.26107  1.0000
  H   H8517     1.0  0.97687  0.81847  0.48664  1.0000
  C   C4802     1.0  0.70912  0.98960  0.47268  1.0000
  H   H8518     1.0  0.49676  0.93948  0.24491  1.0000
  H   H8519     1.0  0.83545  0.88398  0.47477  1.0000
  H   H8520     1.0  0.87766  0.94905  0.48877  1.0000
  H   H8521     1.0  0.86865  0.95484  0.47800  1.0000
  H   H8522     1.0  0.53474  0.99006  0.28957  1.0000
  C   C4803     1.0  0.72901  0.98411  0.47708  1.0000
  C   C4804     1.0  0.83257  0.89080  0.48011  1.0000
  H   H8523     1.0  0.88260  0.98738  0.48217  1.0000
  S   S1064     1.0  0.50793  0.99094  0.28170  1.0000
  H   H8524     1.0  0.82285  0.89386  0.48156  1.0000
  H   H8525     1.0  0.82602  0.99041  0.45509  1.0000
  H   H8526     1.0  0.92254  0.89232  0.47672  1.0000
  C   C4805     1.0  0.82099  0.94440  0.48857  1.0000
  C   C4806     1.0  0.83546  0.95554  0.48646  1.0000
  H   H8527     1.0  0.66676  0.92622  0.46799  1.0000
  S   S1065     1.0  0.50129  0.95997  0.37819  1.0000
  C   C4807     1.0  0.97967  0.74429  0.45189  1.0000
  C   C4808     1.0  0.69476  0.92674  0.48723  1.0000
  H   H8528     1.0  0.80505  0.97405  0.48602  1.0000
  H   H8529     1.0  0.63129  0.99255  0.46868  1.0000
  H   H8530     1.0  0.69301  0.91778  0.48987  1.0000
  H   H8531     1.0  0.55099  0.87426  0.24391  1.0000
  H   H8532     1.0  0.59697  0.97274  0.48041  1.0000
  H   H8533     1.0  0.98352  0.77319  0.48702  1.0000
  C   C4809     1.0  0.55215  0.95405  0.24284  1.0000
  H   H8534     1.0  0.99415  0.82683  0.48407  1.0000
  H   H8535     1.0  0.92797  0.83140  0.48513  1.0000
  H   H8536     1.0  0.99485  0.79431  0.46320  1.0000
  H   H8537     1.0  0.85681  0.90843  0.48431  1.0000
  H   H8538     1.0  0.53552  0.99060  0.25276  1.0000
  H   H8539     1.0  0.84201  0.95715  0.48985  1.0000
  H   H8540     1.0  0.80634  0.91653  0.48810  1.0000
  C   C4810     1.0  0.54801  0.88266  0.24693  1.0000
  H   H8541     1.0  0.83478  0.90795  0.47915  1.0000
  C   C4811     1.0  0.78398  0.96679  0.48690  1.0000
  C   C4812     1.0  0.80284  0.98235  0.48902  1.0000
  Fe  Fe535     1.0  0.90748  0.93229  0.48865  1.0000
  C   C4813     1.0  0.49893  0.96242  0.27869  1.0000
  C   C4814     1.0  0.55977  0.99181  0.32310  1.0000
  H   H8542     1.0  0.99523  0.77176  0.37117  1.0000
  H   H8543     1.0  0.94126  0.94368  0.49005  1.0000
  H   H8544     1.0  0.70166  0.98559  0.47357  1.0000
  H   H8545     1.0  0.96230  0.88774  0.49116  1.0000
  C   C4815     1.0  0.78538  0.95384  0.48723  1.0000
  H   H8546     1.0  0.89615  0.99251  0.44448  1.0000
  H   H8547     1.0  0.75160  0.98692  0.47552  1.0000
  C   C4816     1.0  0.77643  0.99036  0.49071  1.0000
  S   S1066     1.0  0.67877  0.99116  0.43253  1.0000
  C   C4817     1.0  0.81437  0.98367  0.49072  1.0000
  H   H8548     1.0  0.54378  0.93711  0.24252  1.0000
  H   H8549     1.0  0.55028  0.91137  0.24593  1.0000
  H   H8550     1.0  0.70038  0.99240  0.45278  1.0000
  C   C4818     1.0  0.71534  0.99210  0.45948  1.0000
  C   C4819     1.0  0.95832  0.74480  0.48243  1.0000
  H   H8551     1.0  0.83488  0.88683  0.48881  1.0000
  H   H8552     1.0  0.87770  0.96890  0.48964  1.0000
  H   H8553     1.0  0.66205  0.99092  0.46069  1.0000
  C   C4820     1.0  0.96953  0.74436  0.47230  1.0000
  H   H8554     1.0  0.99172  0.74479  0.47781  1.0000
  H   H8555     1.0  0.88683  0.90124  0.49023  1.0000
  C   C4821     1.0  0.95406  0.87441  0.49012  1.0000
  H   H8556     1.0  0.86173  0.92326  0.49130  1.0000
  H   H8557     1.0  0.75083  0.91424  0.49153  1.0000
  N   N267      1.0  0.96813  0.74343  0.46064  1.0000
  H   H8558     1.0  0.68908  0.95033  0.49152  1.0000
  H   H8559     1.0  0.77698  0.95109  0.49173  1.0000
  H   H8560     1.0  0.96436  0.75403  0.49187  1.0000
  H   H8561     1.0  0.79237  0.94827  0.49189  1.0000
  H   H8562     1.0  0.93932  0.82086  0.49181  1.0000
  C   C4822     1.0  0.82238  0.94198  0.53905  1.0000
  S   S1067     1.0  0.60057  0.92795  0.65213  1.0000
  S   S1068     1.0  0.89449  0.93048  0.50594  1.0000
  H   H8563     1.0  0.65986  0.88336  0.65031  1.0000
  H   H8564     1.0  0.50748  0.95145  0.69736  1.0000
  H   H8565     1.0  0.64177  0.88663  0.67168  1.0000
  C   C4823     1.0  0.50660  0.95457  0.58227  1.0000
  H   H8566     1.0  0.61917  0.92054  0.66521  1.0000
  C   C4824     1.0  0.63248  0.93088  0.64329  1.0000
  H   H8567     1.0  0.81393  0.96928  0.54513  1.0000
  C   C4825     1.0  0.52306  0.97096  0.62026  1.0000
  H   H8568     1.0  0.55779  0.91438  0.63252  1.0000
  C   C4826     1.0  0.78820  0.95883  0.56472  1.0000
  S   S1069     1.0  0.82921  0.92750  0.54456  1.0000
  C   C4827     1.0  0.94171  0.88007  0.49675  1.0000
  H   H8569     1.0  0.63637  0.92851  0.66001  1.0000
  H   H8570     1.0  0.56112  0.92078  0.72948  1.0000
  C   C4828     1.0  0.95020  0.74955  0.52977  1.0000
  C   C4829     1.0  0.63264  0.98593  0.56880  1.0000
  C   C4830     1.0  0.57449  0.96446  0.53875  1.0000
  H   H8571     1.0  0.97782  0.81051  0.51679  1.0000
  H   H8572     1.0  0.78330  0.95615  0.57389  1.0000
  C   C4831     1.0  0.64178  0.89370  0.65314  1.0000
  C   C4832     1.0  0.58960  0.89788  0.71140  1.0000
  C   C4833     1.0  0.54127  0.92728  0.71277  1.0000
  C   C4834     1.0  0.64158  0.89533  0.66545  1.0000
  S   S1070     1.0  0.61304  0.91762  0.70462  1.0000
  C   C4835     1.0  0.59858  0.94104  0.64149  1.0000
  C   C4836     1.0  0.71905  0.94094  0.57448  1.0000
  H   H8573     1.0  0.58909  0.95679  0.52641  1.0000
  H   H8574     1.0  0.52034  0.98434  0.67103  1.0000
  C   C4837     1.0  0.61510  0.89431  0.67151  1.0000
  H   H8575     1.0  0.59311  0.93383  0.63013  1.0000
  H   H8576     1.0  0.79775  0.95686  0.56451  1.0000
  Fe  Fe536     1.0  0.59283  0.95479  0.67940  1.0000
  H   H8577     1.0  0.90419  0.89306  0.52673  1.0000
  C   C4838     1.0  0.60412  0.89046  0.67974  1.0000
  C   C4839     1.0  0.69930  0.94823  0.51218  1.0000
  H   H8578     1.0  0.63152  0.89793  0.69603  1.0000
  H   H8579     1.0  0.65113  0.88200  0.64121  1.0000
  C   C4840     1.0  0.92226  0.85718  0.50604  1.0000
  H   H8580     1.0  0.98362  0.74368  0.51205  1.0000
  H   H8581     1.0  0.60019  0.88641  0.67509  1.0000
  H   H8582     1.0  0.59610  0.90352  0.70806  1.0000
  C   C4841     1.0  0.53564  0.96594  0.69813  1.0000
  H   H8583     1.0  0.89703  0.95324  0.51319  1.0000
  H   H8584     1.0  0.64410  0.90136  0.64622  1.0000
  H   H8585     1.0  0.59744  0.89815  0.68246  1.0000
  H   H8586     1.0  0.60635  0.88391  0.68768  1.0000
  H   H8587     1.0  0.63212  0.92567  0.63725  1.0000
  C   C4842     1.0  0.79396  0.86152  0.53551  1.0000
  H   H8588     1.0  0.77113  0.83537  0.52872  1.0000
  H   H8589     1.0  0.62108  0.88639  0.66856  1.0000
  H   H8590     1.0  0.50483  0.88896  0.73333  1.0000
  N   N268      1.0  0.70481  0.96307  0.54928  1.0000
  S   S1071     1.0  0.75943  0.90003  0.55560  1.0000
  H   H8591     1.0  0.71470  0.93522  0.51563  1.0000
  C   C4843     1.0  0.65096  0.88276  0.65016  1.0000
  H   H8592     1.0  0.72630  0.95210  0.53310  1.0000
  H   H8593     1.0  0.49906  0.94554  0.65603  1.0000
  H   H8594     1.0  0.71553  0.93704  0.58382  1.0000
  H   H8595     1.0  0.94064  0.85705  0.50052  1.0000
  H   H8596     1.0  0.81886  0.90634  0.55877  1.0000
  C   C4844     1.0  0.68836  0.93886  0.53506  1.0000
  H   H8597     1.0  0.66477  0.95043  0.50377  1.0000
  C   C4845     1.0  0.54209  0.90680  0.71438  1.0000
  H   H8598     1.0  0.56745  0.91448  0.69723  1.0000
  C   C4846     1.0  0.55885  0.91527  0.70307  1.0000
  H   H8599     1.0  0.52692  0.98502  0.72677  1.0000
  S   S1072     1.0  0.60861  0.94040  0.67513  1.0000
  Fe  Fe537     1.0  0.95587  0.77844  0.52349  1.0000
  C   C4847     1.0  0.85611  0.96323  0.51999  1.0000
  H   H8600     1.0  0.64363  0.91297  0.67353  1.0000
  S   S1073     1.0  0.95651  0.82194  0.50834  1.0000
  H   H8601     1.0  0.61117  0.95935  0.60297  1.0000
  H   H8602     1.0  0.61223  0.90088  0.66388  1.0000
  C   C4848     1.0  0.61454  0.96564  0.55447  1.0000
  H   H8603     1.0  0.53453  0.93325  0.65033  1.0000
  H   H8604     1.0  0.63318  0.89287  0.65249  1.0000
  Fe  Fe538     1.0  0.60139  0.93017  0.69295  1.0000
  H   H8605     1.0  0.77373  0.99172  0.51366  1.0000
  C   C4849     1.0  0.59454  0.94165  0.63158  1.0000
  H   H8606     1.0  0.86467  0.98324  0.49888  1.0000
  H   H8607     1.0  0.70359  0.95184  0.50334  1.0000
  C   C4850     1.0  0.93768  0.74841  0.54928  1.0000
  H   H8608     1.0  0.53066  0.92966  0.67189  1.0000
  C   C4851     1.0  0.96386  0.75540  0.55950  1.0000
  H   H8609     1.0  0.59914  0.93727  0.71559  1.0000
  C   C4852     1.0  0.54589  0.93810  0.66463  1.0000
  S   S1074     1.0  0.57471  0.97722  0.56696  1.0000
  S   S1075     1.0  0.80555  0.97961  0.52352  1.0000
  C   C4853     1.0  0.70562  0.93877  0.51913  1.0000
  H   H8610     1.0  0.98495  0.75457  0.52625  1.0000
  H   H8611     1.0  0.51231  0.94101  0.60291  1.0000
  H   H8612     1.0  0.65024  0.89730  0.66455  1.0000
  Fe  Fe539     1.0  0.59637  0.93376  0.66910  1.0000
  C   C4854     1.0  0.53618  0.91757  0.71740  1.0000
  C   C4855     1.0  0.96994  0.83831  0.50109  1.0000
  H   H8613     1.0  0.55343  0.91772  0.68073  1.0000
  H   H8614     1.0  0.98011  0.75673  0.54627  1.0000
  H   H8615     1.0  0.61451  0.90596  0.68244  1.0000
  C   C4856     1.0  0.81089  0.90290  0.56367  1.0000
  C   C4857     1.0  0.79321  0.88231  0.55429  1.0000
  C   C4858     1.0  0.87400  0.90433  0.50608  1.0000
  H   H8616     1.0  0.77248  0.96695  0.50370  1.0000
  C   C4859     1.0  0.51024  0.96204  0.66020  1.0000
  H   H8617     1.0  0.62468  0.91191  0.65466  1.0000
  H   H8618     1.0  0.53620  0.93580  0.71428  1.0000
  H   H8619     1.0  0.70259  0.94351  0.57000  1.0000
  H   H8620     1.0  0.82315  0.94864  0.55342  1.0000
  H   H8621     1.0  0.78457  0.97047  0.52337  1.0000
  N   N269      1.0  0.52346  0.96768  0.73126  1.0000
  C   C4860     1.0  0.96217  0.76838  0.55942  1.0000
  H   H8622     1.0  0.79747  0.90242  0.52862  1.0000
  H   H8623     1.0  0.72561  0.96764  0.51448  1.0000
  H   H8624     1.0  0.55814  0.89721  0.70500  1.0000
  H   H8625     1.0  0.61977  0.97768  0.64535  1.0000
  H   H8626     1.0  0.51177  0.94281  0.56413  1.0000
  H   H8627     1.0  0.69743  0.94871  0.54956  1.0000
  C   C4861     1.0  0.61102  0.92035  0.71862  1.0000
  C   C4862     1.0  0.60355  0.93062  0.72184  1.0000
  H   H8628     1.0  0.76976  0.97089  0.54212  1.0000
  H   H8629     1.0  0.53347  0.96093  0.65983  1.0000
  H   H8630     1.0  0.50843  0.93442  0.62453  1.0000
  H   H8631     1.0  0.81196  0.84244  0.55416  1.0000
  S   S1076     1.0  0.63121  0.98994  0.49287  1.0000
  H   H8632     1.0  0.70914  0.97613  0.55532  1.0000
  H   H8633     1.0  0.85591  0.92088  0.54239  1.0000
  H   H8634     1.0  0.86215  0.91776  0.55503  1.0000
  C   C4863     1.0  0.57918  0.98254  0.67666  1.0000
  C   C4864     1.0  0.79725  0.85115  0.54574  1.0000
  C   C4865     1.0  0.60773  0.97194  0.49238  1.0000
  H   H8635     1.0  0.53956  0.91334  0.68610  1.0000
  C   C4866     1.0  0.70896  0.94892  0.56888  1.0000
  H   H8636     1.0  0.60333  0.95083  0.65105  1.0000
  H   H8637     1.0  0.93271  0.75250  0.55660  1.0000
  C   C4867     1.0  0.78909  0.87453  0.51229  1.0000
  C   C4868     1.0  0.94395  0.75486  0.53926  1.0000
  H   H8638     1.0  0.49975  0.94939  0.58431  1.0000
  H   H8639     1.0  0.67908  0.96943  0.55898  1.0000
  S   S1077     1.0  0.73844  0.90016  0.53606  1.0000
  S   S1078     1.0  0.59344  0.97375  0.67599  1.0000
  H   H8640     1.0  0.62477  0.99048  0.59296  1.0000
  H   H8641     1.0  0.59626  0.94042  0.73559  1.0000
  C   C4869     1.0  0.70120  0.97379  0.55454  1.0000
  C   C4870     1.0  0.51222  0.96981  0.58877  1.0000
  H   H8642     1.0  0.61608  0.96624  0.49456  1.0000
  H   H8643     1.0  0.71264  0.94954  0.53255  1.0000
  N   N270      1.0  0.78127  0.98115  0.50045  1.0000
  H   H8644     1.0  0.62483  0.97145  0.58969  1.0000
  C   C4871     1.0  0.75235  0.87266  0.55652  1.0000
  H   H8645     1.0  0.54463  0.92483  0.62921  1.0000
  H   H8646     1.0  0.70476  0.95600  0.57383  1.0000
  H   H8647     1.0  0.93477  0.95281  0.51271  1.0000
  C   C4872     1.0  0.60030  0.95119  0.64339  1.0000
  S   S1079     1.0  0.64658  0.96715  0.51704  1.0000
  C   C4873     1.0  0.96378  0.87801  0.49303  1.0000
  H   H8648     1.0  0.61837  0.97157  0.50964  1.0000
  C   C4874     1.0  0.60807  0.97531  0.54787  1.0000
  H   H8649     1.0  0.74380  0.87897  0.55590  1.0000
  H   H8650     1.0  0.76244  0.84427  0.51825  1.0000
  C   C4875     1.0  0.61070  0.96979  0.51693  1.0000
  S   S1080     1.0  0.81466  0.93224  0.49575  1.0000
  N   N271      1.0  0.78167  0.86370  0.53364  1.0000
  H   H8651     1.0  0.62404  0.89183  0.68503  1.0000
  C   C4876     1.0  0.77303  0.86547  0.54510  1.0000
  N   N272      1.0  0.86092  0.95581  0.53054  1.0000
  C   C4877     1.0  0.85704  0.94432  0.53436  1.0000
  H   H8652     1.0  0.84324  0.96798  0.50285  1.0000
  C   C4878     1.0  0.87421  0.95299  0.52657  1.0000
  C   C4879     1.0  0.85740  0.96253  0.54026  1.0000
  C   C4880     1.0  0.84578  0.96109  0.54951  1.0000
  C   C4881     1.0  0.86335  0.93478  0.54348  1.0000
  C   C4882     1.0  0.87999  0.96364  0.52047  1.0000
  C   C4883     1.0  0.78416  0.88315  0.50210  1.0000
  C   C4884     1.0  0.51424  0.96465  0.62599  1.0000
  C   C4885     1.0  0.84207  0.97005  0.55730  1.0000
  Fe  Fe540     1.0  0.57493  0.97891  0.60817  1.0000
  C   C4886     1.0  0.89337  0.95993  0.51871  1.0000
  H   H8653     1.0  0.51911  0.94463  0.65816  1.0000
  H   H8654     1.0  0.84740  0.94562  0.53798  1.0000
  H   H8655     1.0  0.85857  0.97188  0.51732  1.0000
  S   S1081     1.0  0.73698  0.92235  0.51298  1.0000
  H   H8656     1.0  0.87710  0.94693  0.52036  1.0000
  H   H8657     1.0  0.87832  0.94820  0.53418  1.0000
  H   H8658     1.0  0.86435  0.95994  0.54540  1.0000
  H   H8659     1.0  0.85676  0.97211  0.53647  1.0000
  H   H8660     1.0  0.84693  0.95221  0.55534  1.0000
  H   H8661     1.0  0.83840  0.96220  0.54543  1.0000
  H   H8662     1.0  0.87241  0.93089  0.53907  1.0000
  H   H8663     1.0  0.86404  0.93856  0.55051  1.0000
  H   H8664     1.0  0.87668  0.97054  0.52571  1.0000
  H   H8665     1.0  0.87808  0.96745  0.51160  1.0000
  H   H8666     1.0  0.54360  0.92066  0.66468  1.0000
  H   H8667     1.0  0.83828  0.97198  0.52778  1.0000
  C   C4887     1.0  0.59648  0.96306  0.56907  1.0000
  C   C4888     1.0  0.50136  0.97012  0.69141  1.0000
  S   S1082     1.0  0.81404  0.88238  0.53799  1.0000
  C   C4889     1.0  0.96906  0.82690  0.50728  1.0000
  H   H8668     1.0  0.84912  0.96923  0.56180  1.0000
  S   S1083     1.0  0.50337  0.91496  0.72848  1.0000
  S   S1084     1.0  0.58119  0.94900  0.67183  1.0000
  H   H8669     1.0  0.54419  0.91493  0.64351  1.0000
  C   C4890     1.0  0.74358  0.97331  0.52321  1.0000
  H   H8670     1.0  0.89594  0.95624  0.52731  1.0000
  H   H8671     1.0  0.89725  0.96770  0.51421  1.0000
  C   C4891     1.0  0.82050  0.95080  0.54515  1.0000
  Fe  Fe541     1.0  0.98084  0.78041  0.51134  1.0000
  H   H8672     1.0  0.93223  0.83949  0.51224  1.0000
  H   H8673     1.0  0.64519  0.91751  0.65186  1.0000
  C   C4892     1.0  0.93255  0.86314  0.50421  1.0000
  H   H8674     1.0  0.63109  0.95173  0.51458  1.0000
  C   C4893     1.0  0.61218  0.95636  0.52155  1.0000
  H   H8675     1.0  0.90649  0.97963  0.49516  1.0000
  H   H8676     1.0  0.50401  0.96985  0.68223  1.0000
  H   H8677     1.0  0.80953  0.89715  0.55870  1.0000
  H   H8678     1.0  0.92464  0.88630  0.51614  1.0000
  C   C4894     1.0  0.62467  0.95047  0.52315  1.0000
  H   H8679     1.0  0.78518  0.96848  0.56172  1.0000
  H   H8680     1.0  0.61364  0.95184  0.57011  1.0000
  N   N273      1.0  0.63159  0.90454  0.67051  1.0000
  C   C4895     1.0  0.55250  0.92623  0.70553  1.0000
  C   C4896     1.0  0.51994  0.98278  0.61473  1.0000
  C   C4897     1.0  0.63940  0.90031  0.68948  1.0000
  C   C4898     1.0  0.62736  0.91481  0.66119  1.0000
  H   H8681     1.0  0.68282  0.93617  0.50674  1.0000
  H   H8682     1.0  0.55862  0.94247  0.72112  1.0000
  C   C4899     1.0  0.65348  0.98934  0.56096  1.0000
  H   H8683     1.0  0.59396  0.88892  0.71552  1.0000
  H   H8684     1.0  0.60622  0.95453  0.53033  1.0000
  H   H8685     1.0  0.51759  0.95392  0.55240  1.0000
  H   H8686     1.0  0.51658  0.95555  0.63042  1.0000
  H   H8687     1.0  0.94023  0.88975  0.49316  1.0000
  C   C4900     1.0  0.67766  0.93401  0.50170  1.0000
  C   C4901     1.0  0.56948  0.97746  0.67956  1.0000
  H   H8688     1.0  0.57482  0.91185  0.71563  1.0000
  H   H8689     1.0  0.67164  0.95641  0.55155  1.0000
  C   C4902     1.0  0.49850  0.95758  0.60243  1.0000
  Fe  Fe542     1.0  0.63898  0.97310  0.53406  1.0000
  H   H8690     1.0  0.62687  0.95415  0.52945  1.0000
  H   H8691     1.0  0.62541  0.94089  0.52673  1.0000
  C   C4903     1.0  0.69865  0.98569  0.49859  1.0000
  H   H8692     1.0  0.85856  0.94044  0.52660  1.0000
  S   S1085     1.0  0.59044  0.92228  0.68653  1.0000
  H   H8693     1.0  0.55779  0.92458  0.64761  1.0000
  C   C4904     1.0  0.76871  0.97814  0.53433  1.0000
  C   C4905     1.0  0.62128  0.89930  0.67792  1.0000
  H   H8694     1.0  0.52658  0.95428  0.59277  1.0000
  H   H8695     1.0  0.82967  0.97544  0.51085  1.0000
  H   H8696     1.0  0.81032  0.85810  0.54920  1.0000
  Fe  Fe543     1.0  0.74980  0.92814  0.51903  1.0000
  H   H8697     1.0  0.57748  0.96687  0.52000  1.0000
  S   S1086     1.0  0.63000  0.96172  0.55024  1.0000
  H   H8698     1.0  0.60035  0.96652  0.59420  1.0000
  H   H8699     1.0  0.64875  0.87472  0.65651  1.0000
  N   N274      1.0  0.78776  0.93141  0.55371  1.0000
  C   C4906     1.0  0.78747  0.93772  0.54111  1.0000
  C   C4907     1.0  0.79058  0.93900  0.56010  1.0000
  C   C4908     1.0  0.79764  0.92055  0.55339  1.0000
  C   C4909     1.0  0.77652  0.92746  0.56018  1.0000
  C   C4910     1.0  0.76510  0.93716  0.56081  1.0000
  C   C4911     1.0  0.78400  0.93128  0.53368  1.0000
  C   C4912     1.0  0.80011  0.91300  0.56543  1.0000
  C   C4913     1.0  0.78595  0.95250  0.55661  1.0000
  C   C4914     1.0  0.75430  0.93175  0.56543  1.0000
  C   C4915     1.0  0.78468  0.93819  0.52098  1.0000
  H   H8700     1.0  0.79622  0.93974  0.53644  1.0000
  H   H8701     1.0  0.78116  0.94638  0.54060  1.0000
  H   H8702     1.0  0.78743  0.93616  0.56977  1.0000
  H   H8703     1.0  0.80030  0.93780  0.55861  1.0000
  H   H8704     1.0  0.80597  0.92313  0.54813  1.0000
  H   H8705     1.0  0.79598  0.91443  0.54909  1.0000
  H   H8706     1.0  0.77550  0.92055  0.55636  1.0000
  H   H8707     1.0  0.77685  0.92312  0.56947  1.0000
  H   H8708     1.0  0.76443  0.94297  0.55210  1.0000
  H   H8709     1.0  0.76475  0.94254  0.56698  1.0000
  H   H8710     1.0  0.78993  0.92260  0.53327  1.0000
  H   H8711     1.0  0.77487  0.93007  0.53740  1.0000
  H   H8712     1.0  0.79259  0.90899  0.57067  1.0000
  H   H8713     1.0  0.80184  0.91830  0.57060  1.0000
  H   H8714     1.0  0.79062  0.95598  0.54753  1.0000
  H   H8715     1.0  0.77640  0.95486  0.55697  1.0000
  H   H8716     1.0  0.75469  0.92552  0.57404  1.0000
  H   H8717     1.0  0.74622  0.93880  0.56666  1.0000
  H   H8718     1.0  0.75373  0.92701  0.55907  1.0000
  H   H8719     1.0  0.66493  0.93819  0.52377  1.0000
  H   H8720     1.0  0.78259  0.93312  0.51581  1.0000
  H   H8721     1.0  0.77819  0.94671  0.52065  1.0000
  H   H8722     1.0  0.68413  0.93518  0.54391  1.0000
  H   H8723     1.0  0.61036  0.95214  0.51547  1.0000
  H   H8724     1.0  0.65983  0.92720  0.52031  1.0000
  C   C4916     1.0  0.61699  0.91197  0.72671  1.0000
  H   H8725     1.0  0.54070  0.92708  0.68812  1.0000
  C   C4917     1.0  0.77311  0.98339  0.51199  1.0000
  C   C4918     1.0  0.81532  0.96246  0.54046  1.0000
  H   H8726     1.0  0.67842  0.94378  0.56144  1.0000
  C   C4919     1.0  0.83936  0.97323  0.50972  1.0000
  C   C4920     1.0  0.55362  0.90549  0.70753  1.0000
  H   H8727     1.0  0.64548  0.89217  0.68711  1.0000
  C   C4921     1.0  0.63580  0.90928  0.67847  1.0000
  Fe  Fe544     1.0  0.66215  0.97383  0.51624  1.0000
  H   H8728     1.0  0.79700  0.87705  0.51281  1.0000
  C   C4922     1.0  0.59004  0.97274  0.56241  1.0000
  H   H8729     1.0  0.68732  0.98313  0.54452  1.0000
  N   N275      1.0  0.50271  0.96357  0.58983  1.0000
  H   H8730     1.0  0.72632  0.95313  0.51289  1.0000
  H   H8731     1.0  0.84239  0.98159  0.50680  1.0000
  C   C4923     1.0  0.72075  0.96054  0.51702  1.0000
  Fe  Fe545     1.0  0.57642  0.93817  0.68990  1.0000
  S   S1087     1.0  0.55765  0.93912  0.69913  1.0000
  H   H8732     1.0  0.78864  0.85010  0.52351  1.0000
  C   C4924     1.0  0.63615  0.92279  0.65439  1.0000
  H   H8733     1.0  0.62892  0.91675  0.68159  1.0000
  C   C4925     1.0  0.54037  0.92721  0.67031  1.0000
  S   S1088     1.0  0.94793  0.79274  0.50986  1.0000
  C   C4926     1.0  0.65978  0.93671  0.51829  1.0000
  H   H8734     1.0  0.96815  0.75603  0.54111  1.0000
  H   H8735     1.0  0.69111  0.96231  0.54137  1.0000
  H   H8736     1.0  0.91615  0.87532  0.51979  1.0000
  H   H8737     1.0  0.71677  0.94589  0.55173  1.0000
  H   H8738     1.0  0.93648  0.93797  0.51139  1.0000
  H   H8739     1.0  0.77662  0.86954  0.55007  1.0000
  C   C4927     1.0  0.80970  0.85007  0.54698  1.0000
  H   H8740     1.0  0.62370  0.93671  0.64562  1.0000
  S   S1089     1.0  0.58678  0.94520  0.69777  1.0000
  C   C4928     1.0  0.78071  0.85305  0.53019  1.0000
  C   C4929     1.0  0.81187  0.96520  0.52978  1.0000
  C   C4930     1.0  0.60869  0.95937  0.56498  1.0000
  C   C4931     1.0  0.92366  0.84549  0.51503  1.0000
  H   H8741     1.0  0.81243  0.89749  0.57234  1.0000
  Fe  Fe546     1.0  0.96273  0.78405  0.49710  1.0000
  H   H8742     1.0  0.78752  0.96218  0.50439  1.0000
  H   H8743     1.0  0.64755  0.89909  0.70366  1.0000
  H   H8744     1.0  0.77953  0.89172  0.50454  1.0000
  H   H8745     1.0  0.75502  0.94003  0.53449  1.0000
  H   H8746     1.0  0.79530  0.86959  0.53709  1.0000
  C   C4932     1.0  0.59184  0.95253  0.62380  1.0000
  S   S1090     1.0  0.73979  0.92602  0.53784  1.0000
  C   C4933     1.0  0.77993  0.87470  0.52416  1.0000
  C   C4934     1.0  0.61547  0.91381  0.73799  1.0000
  C   C4935     1.0  0.54374  0.92097  0.68203  1.0000
  C   C4936     1.0  0.70025  0.93416  0.53064  1.0000
  H   H8747     1.0  0.70477  0.97256  0.53131  1.0000
  H   H8748     1.0  0.78070  0.84543  0.53782  1.0000
  H   H8749     1.0  0.59203  0.95832  0.57729  1.0000
  S   S1091     1.0  0.53792  0.96380  0.61981  1.0000
  H   H8750     1.0  0.58848  0.95306  0.61629  1.0000
  S   S1092     1.0  0.57004  0.96554  0.60202  1.0000
  C   C4937     1.0  0.71784  0.95630  0.53033  1.0000
  H   H8751     1.0  0.76376  0.98470  0.51158  1.0000
  H   H8752     1.0  0.63892  0.93647  0.63863  1.0000
  H   H8753     1.0  0.71759  0.97173  0.53590  1.0000
  C   C4938     1.0  0.96089  0.74604  0.49359  1.0000
  S   S1093     1.0  0.50531  0.92799  0.67590  1.0000
  H   H8754     1.0  0.74492  0.95295  0.54868  1.0000
  S   S1094     1.0  0.73367  0.97734  0.54540  1.0000
  H   H8755     1.0  0.72536  0.94611  0.57422  1.0000
  C   C4939     1.0  0.71111  0.96656  0.53662  1.0000
  C   C4940     1.0  0.71351  0.95380  0.55565  1.0000
  Fe  Fe547     1.0  0.82366  0.89664  0.52775  1.0000
  H   H8756     1.0  0.72141  0.95723  0.55461  1.0000
  H   H8757     1.0  0.92210  0.85526  0.49769  1.0000
  H   H8758     1.0  0.57973  0.99145  0.64830  1.0000
  H   H8759     1.0  0.72375  0.93368  0.56981  1.0000
  H   H8760     1.0  0.95464  0.75454  0.52184  1.0000
  H   H8761     1.0  0.84006  0.97912  0.55196  1.0000
  C   C4941     1.0  0.68758  0.95317  0.51671  1.0000
  H   H8762     1.0  0.53937  0.97363  0.72861  1.0000
  H   H8763     1.0  0.56862  0.96653  0.63647  1.0000
  C   C4942     1.0  0.54959  0.92033  0.63623  1.0000
  H   H8764     1.0  0.96639  0.75020  0.56780  1.0000
  C   C4943     1.0  0.59349  0.96268  0.62582  1.0000
  H   H8765     1.0  0.75073  0.86365  0.55997  1.0000
  H   H8766     1.0  0.79293  0.98955  0.50421  1.0000
  H   H8767     1.0  0.75609  0.87484  0.56278  1.0000
  C   C4944     1.0  0.85698  0.92476  0.54919  1.0000
  C   C4945     1.0  0.87043  0.91054  0.51508  1.0000
  H   H8768     1.0  0.77647  0.88181  0.56654  1.0000
  C   C4946     1.0  0.59429  0.98811  0.73272  1.0000
  C   C4947     1.0  0.59789  0.96194  0.63550  1.0000
  S   S1095     1.0  0.70844  0.92305  0.53977  1.0000
  C   C4948     1.0  0.50237  0.97007  0.62591  1.0000
  H   H8769     1.0  0.70036  0.92244  0.50394  1.0000
  C   C4949     1.0  0.68202  0.94846  0.52812  1.0000
  H   H8770     1.0  0.55764  0.98707  0.71479  1.0000
  C   C4950     1.0  0.76974  0.85427  0.52551  1.0000
  C   C4951     1.0  0.86668  0.99201  0.49516  1.0000
  H   H8771     1.0  0.51457  0.94796  0.58433  1.0000
  C   C4952     1.0  0.77479  0.89592  0.55134  1.0000
  C   C4953     1.0  0.78107  0.88635  0.55829  1.0000
  H   H8772     1.0  0.61250  0.98027  0.53991  1.0000
  C   C4954     1.0  0.74616  0.95659  0.53935  1.0000
  H   H8773     1.0  0.53116  0.96092  0.64601  1.0000
  C   C4955     1.0  0.97843  0.81936  0.51205  1.0000
  H   H8774     1.0  0.78024  0.88240  0.52728  1.0000
  H   H8775     1.0  0.84819  0.92800  0.55460  1.0000
  H   H8776     1.0  0.98109  0.85080  0.49430  1.0000
  H   H8777     1.0  0.54013  0.95511  0.71412  1.0000
  H   H8778     1.0  0.53194  0.97525  0.69427  1.0000
  Fe  Fe548     1.0  0.50248  0.92173  0.69556  1.0000
  H   H8779     1.0  0.79117  0.85239  0.55427  1.0000
  C   C4956     1.0  0.74887  0.96596  0.51521  1.0000
  H   H8780     1.0  0.51168  0.96971  0.66240  1.0000
  H   H8781     1.0  0.91650  0.84113  0.51587  1.0000
  C   C4957     1.0  0.58895  0.97572  0.52375  1.0000
  C   C4958     1.0  0.56778  0.96269  0.64603  1.0000
  H   H8782     1.0  0.77178  0.85686  0.55098  1.0000
  H   H8783     1.0  0.79140  0.88447  0.49423  1.0000
  H   H8784     1.0  0.75655  0.87154  0.53843  1.0000
  C   C4959     1.0  0.76070  0.87358  0.54438  1.0000
  Fe  Fe549     1.0  0.74827  0.90433  0.51733  1.0000
  C   C4960     1.0  0.49780  0.87578  0.73106  1.0000
  Fe  Fe550     1.0  0.56842  0.97962  0.58567  1.0000
  H   H8785     1.0  0.79800  0.87470  0.55951  1.0000
  C   C4961     1.0  0.77515  0.97366  0.52311  1.0000
  H   H8786     1.0  0.70027  0.98900  0.53973  1.0000
  H   H8787     1.0  0.67288  0.95217  0.53157  1.0000
  H   H8788     1.0  0.92464  0.94937  0.50642  1.0000
  C   C4962     1.0  0.66490  0.94100  0.50522  1.0000
  H   H8789     1.0  0.76150  0.88287  0.54105  1.0000
  Fe  Fe551     1.0  0.72797  0.91868  0.53212  1.0000
  H   H8790     1.0  0.65055  0.94157  0.52072  1.0000
  H   H8791     1.0  0.77782  0.87959  0.49985  1.0000
  H   H8792     1.0  0.79367  0.93973  0.51684  1.0000
  S   S1096     1.0  0.68015  0.96510  0.50775  1.0000
  H   H8793     1.0  0.81623  0.84873  0.53870  1.0000
  S   S1097     1.0  0.83935  0.89744  0.53349  1.0000
  C   C4963     1.0  0.88658  0.92042  0.50605  1.0000
  S   S1098     1.0  0.84051  0.92152  0.51273  1.0000
  C   C4964     1.0  0.79913  0.88805  0.54351  1.0000
  Fe  Fe552     1.0  0.83125  0.91670  0.53154  1.0000
  C   C4965     1.0  0.92019  0.88353  0.50086  1.0000
  H   H8794     1.0  0.77824  0.84186  0.51400  1.0000
  S   S1099     1.0  0.50140  0.94738  0.72278  1.0000
  S   S1100     1.0  0.76205  0.91043  0.52138  1.0000
  C   C4966     1.0  0.55270  0.92934  0.64075  1.0000
  H   H8795     1.0  0.55077  0.98063  0.68137  1.0000
  S   S1101     1.0  0.75661  0.94441  0.50955  1.0000
  H   H8796     1.0  0.63969  0.91369  0.69815  1.0000
  H   H8797     1.0  0.53000  0.96032  0.69781  1.0000
  C   C4967     1.0  0.54150  0.93816  0.64555  1.0000
  C   C4968     1.0  0.64552  0.90550  0.69557  1.0000
  C   C4969     1.0  0.53367  0.96969  0.58666  1.0000
  H   H8798     1.0  0.54911  0.96859  0.64991  1.0000
  H   H8799     1.0  0.52063  0.94834  0.67096  1.0000
  H   H8800     1.0  0.76169  0.85531  0.53259  1.0000
  H   H8801     1.0  0.55229  0.95553  0.63705  1.0000
  H   H8802     1.0  0.79723  0.97411  0.50692  1.0000
  C   C4970     1.0  0.52415  0.94546  0.73648  1.0000
  H   H8803     1.0  0.50208  0.95967  0.66622  1.0000
  C   C4971     1.0  0.52417  0.96875  0.71840  1.0000
  S   S1102     1.0  0.86554  0.89515  0.50540  1.0000
  C   C4972     1.0  0.52066  0.95154  0.66145  1.0000
  C   C4973     1.0  0.74186  0.96855  0.53531  1.0000
  C   C4974     1.0  0.78079  0.90184  0.54078  1.0000
  H   H8804     1.0  0.57846  0.92840  0.71991  1.0000
  H   H8805     1.0  0.57941  0.93149  0.73311  1.0000
  H   H8806     1.0  0.59899  0.96976  0.63717  1.0000
  S   S1103     1.0  0.83183  0.89993  0.50842  1.0000
  S   S1104     1.0  0.75297  0.89086  0.50642  1.0000
  H   H8807     1.0  0.91360  0.86275  0.50930  1.0000
  C   C4975     1.0  0.67458  0.95339  0.55998  1.0000
  H   H8808     1.0  0.86013  0.95885  0.51240  1.0000
  H   H8809     1.0  0.53814  0.94399  0.63780  1.0000
  H   H8810     1.0  0.51412  0.95146  0.60993  1.0000
  C   C4976     1.0  0.90617  0.89311  0.51721  1.0000
  H   H8811     1.0  0.55557  0.93468  0.66378  1.0000
  H   H8812     1.0  0.92021  0.89271  0.49581  1.0000
  Fe  Fe553     1.0  0.82462  0.91910  0.50869  1.0000
  H   H8813     1.0  0.81802  0.97588  0.49706  1.0000
  H   H8814     1.0  0.83908  0.95825  0.52406  1.0000
  H   H8815     1.0  0.61429  0.95763  0.58808  1.0000
  H   H8816     1.0  0.54320  0.94370  0.67123  1.0000
  H   H8817     1.0  0.57060  0.96805  0.68198  1.0000
  C   C4977     1.0  0.58280  0.96537  0.52658  1.0000
  H   H8818     1.0  0.52330  0.94606  0.72753  1.0000
  H   H8819     1.0  0.52092  0.97805  0.71411  1.0000
  H   H8820     1.0  0.55848  0.93413  0.63326  1.0000
  Fe  Fe554     1.0  0.96092  0.80224  0.51067  1.0000
  S   S1105     1.0  0.53397  0.89610  0.71735  1.0000
  H   H8821     1.0  0.54270  0.96973  0.71068  1.0000
  C   C4978     1.0  0.81886  0.94476  0.52843  1.0000
  C   C4979     1.0  0.79294  0.89793  0.53688  1.0000
  N   N276      1.0  0.54320  0.94538  0.65298  1.0000
  C   C4980     1.0  0.75164  0.94927  0.53134  1.0000
  C   C4981     1.0  0.60192  0.93241  0.73319  1.0000
  C   C4982     1.0  0.51061  0.97029  0.73732  1.0000
  C   C4983     1.0  0.75243  0.95385  0.51930  1.0000
  H   H8822     1.0  0.79699  0.84270  0.54412  1.0000
  Fe  Fe555     1.0  0.84695  0.90211  0.51414  1.0000
  H   H8823     1.0  0.95951  0.77406  0.55128  1.0000
  C   C4984     1.0  0.53239  0.95518  0.65472  1.0000
  C   C4985     1.0  0.55819  0.98458  0.67945  1.0000
  C   C4986     1.0  0.68358  0.96001  0.55986  1.0000
  H   H8824     1.0  0.81097  0.95836  0.51556  1.0000
  C   C4987     1.0  0.79985  0.90454  0.50347  1.0000
  H   H8825     1.0  0.79138  0.90293  0.50940  1.0000
  C   C4988     1.0  0.84263  0.96627  0.52137  1.0000
  C   C4989     1.0  0.81353  0.95631  0.52386  1.0000
  H   H8826     1.0  0.65387  0.90749  0.68969  1.0000
  H   H8827     1.0  0.61508  0.97529  0.57191  1.0000
  C   C4990     1.0  0.50322  0.95973  0.69998  1.0000
  C   C4991     1.0  0.55561  0.96014  0.65158  1.0000
  H   H8828     1.0  0.52515  0.94657  0.56414  1.0000
  S   S1106     1.0  0.81494  0.91552  0.52737  1.0000
  H   H8829     1.0  0.61114  0.98029  0.59633  1.0000
  C   C4992     1.0  0.53647  0.96454  0.71080  1.0000
  S   S1107     1.0  0.51668  0.92501  0.70173  1.0000
  H   H8830     1.0  0.50349  0.87580  0.72211  1.0000
  C   C4993     1.0  0.56503  0.94270  0.72592  1.0000
  H   H8831     1.0  0.77100  0.87693  0.52238  1.0000
  H   H8832     1.0  0.56176  0.94419  0.64504  1.0000
  H   H8833     1.0  0.57022  0.94925  0.72045  1.0000
  H   H8834     1.0  0.55492  0.95700  0.66120  1.0000
  Fe  Fe556     1.0  0.75125  0.90791  0.53988  1.0000
  Fe  Fe557     1.0  0.55138  0.97446  0.60921  1.0000
  H   H8835     1.0  0.87416  0.92313  0.52218  1.0000
  C   C4994     1.0  0.57837  0.97269  0.71012  1.0000
  H   H8836     1.0  0.51818  0.96393  0.71732  1.0000
  H   H8837     1.0  0.56930  0.96897  0.65023  1.0000
  H   H8838     1.0  0.74050  0.98258  0.51997  1.0000
  C   C4995     1.0  0.87683  0.91847  0.51515  1.0000
  H   H8839     1.0  0.86279  0.90918  0.52205  1.0000
  C   C4996     1.0  0.55342  0.95103  0.64614  1.0000
  N   N277      1.0  0.59929  0.97637  0.51329  1.0000
  H   H8840     1.0  0.77170  0.96605  0.52335  1.0000
  C   C4997     1.0  0.89007  0.91425  0.49703  1.0000
  C   C4998     1.0  0.69449  0.95828  0.54956  1.0000
  C   C4999     1.0  0.77048  0.84324  0.52139  1.0000
  C   C5000     1.0  0.93396  0.94739  0.50710  1.0000
  H   H8841     1.0  0.82027  0.93804  0.52366  1.0000
  H   H8842     1.0  0.54453  0.96314  0.69270  1.0000
  H   H8843     1.0  0.77610  0.90954  0.53568  1.0000
  H   H8844     1.0  0.56778  0.97281  0.53932  1.0000
  H   H8845     1.0  0.90725  0.90204  0.51218  1.0000
  H   H8846     1.0  0.52822  0.92649  0.73993  1.0000
  H   H8847     1.0  0.92318  0.84696  0.52379  1.0000
  H   H8848     1.0  0.80071  0.85973  0.52746  1.0000
  C   C5001     1.0  0.50762  0.94764  0.60830  1.0000
  C   C5002     1.0  0.61534  0.97469  0.58977  1.0000
  H   H8849     1.0  0.93365  0.86312  0.51301  1.0000
  H   H8850     1.0  0.58960  0.90991  0.72734  1.0000
  H   H8851     1.0  0.68596  0.95694  0.56852  1.0000
  S   S1108     1.0  0.97504  0.79474  0.49666  1.0000
  C   C5003     1.0  0.50907  0.95961  0.56879  1.0000
  C   C5004     1.0  0.98865  0.82325  0.51068  1.0000
  H   H8852     1.0  0.88244  0.98768  0.50219  1.0000
  H   H8853     1.0  0.96409  0.87439  0.50243  1.0000
  H   H8854     1.0  0.50061  0.96322  0.56589  1.0000
  C   C5005     1.0  0.60994  0.96390  0.59396  1.0000
  H   H8855     1.0  0.80519  0.89636  0.50055  1.0000
  H   H8856     1.0  0.63446  0.97816  0.56482  1.0000
  H   H8857     1.0  0.89858  0.89118  0.51531  1.0000
  H   H8858     1.0  0.69601  0.97202  0.56369  1.0000
  C   C5006     1.0  0.79341  0.98185  0.50069  1.0000
  H   H8859     1.0  0.59162  0.97565  0.53180  1.0000
  S   S1109     1.0  0.58985  0.97652  0.61668  1.0000
  H   H8860     1.0  0.74961  0.96958  0.50592  1.0000
  H   H8861     1.0  0.66675  0.95505  0.56721  1.0000
  H   H8862     1.0  0.71251  0.96385  0.51378  1.0000
  C   C5007     1.0  0.91743  0.88393  0.51404  1.0000
  H   H8863     1.0  0.53184  0.97152  0.59552  1.0000
  H   H8864     1.0  0.62285  0.90406  0.72426  1.0000
  H   H8865     1.0  0.95520  0.75388  0.55974  1.0000
  C   C5008     1.0  0.50167  0.94107  0.62020  1.0000
  C   C5009     1.0  0.52518  0.96271  0.58632  1.0000
  H   H8866     1.0  0.52778  0.96071  0.57745  1.0000
  C   C5010     1.0  0.69357  0.99206  0.50869  1.0000
  H   H8867     1.0  0.76882  0.86177  0.51789  1.0000
  H   H8868     1.0  0.83399  0.96854  0.56406  1.0000
  S   S1110     1.0  0.96769  0.78872  0.52554  1.0000
  H   H8869     1.0  0.82963  0.94326  0.50216  1.0000
  H   H8870     1.0  0.79197  0.86575  0.51008  1.0000
  C   C5011     1.0  0.52975  0.97623  0.73231  1.0000
  C   C5012     1.0  0.74849  0.89692  0.49307  1.0000
  Fe  Fe558     1.0  0.51655  0.90743  0.71400  1.0000
  N   N278      1.0  0.93158  0.87535  0.49649  1.0000
  C   C5013     1.0  0.97294  0.75200  0.54837  1.0000
  H   H8871     1.0  0.52731  0.91867  0.72267  1.0000
  H   H8872     1.0  0.91258  0.88144  0.49914  1.0000
  H   H8873     1.0  0.95514  0.77073  0.56707  1.0000
  C   C5014     1.0  0.57908  0.90313  0.72024  1.0000
  S   S1111     1.0  0.50331  0.90344  0.70689  1.0000
  H   H8874     1.0  0.97044  0.77016  0.55998  1.0000
  C   C5015     1.0  0.49932  0.98179  0.62006  1.0000
  H   H8875     1.0  0.65901  0.93997  0.50028  1.0000
  C   C5016     1.0  0.78129  0.96900  0.49946  1.0000
  C   C5017     1.0  0.88397  0.90603  0.49718  1.0000
  H   H8876     1.0  0.79207  0.92241  0.49636  1.0000
  H   H8877     1.0  0.64161  0.96480  0.49703  1.0000
  S   S1112     1.0  0.94427  0.76925  0.53919  1.0000
  H   H8878     1.0  0.58930  0.97735  0.50078  1.0000
  H   H8879     1.0  0.75917  0.98145  0.53458  1.0000
  H   H8880     1.0  0.58654  0.89726  0.70386  1.0000
  C   C5018     1.0  0.98969  0.83454  0.50416  1.0000
  H   H8881     1.0  0.55755  0.98969  0.64042  1.0000
  H   H8882     1.0  0.57464  0.95448  0.64736  1.0000
  H   H8883     1.0  0.77238  0.98531  0.53491  1.0000
  H   H8884     1.0  0.80482  0.90700  0.50845  1.0000
  S   S1113     1.0  0.96970  0.76898  0.51058  1.0000
  C   C5019     1.0  0.51634  0.95011  0.56199  1.0000
  C   C5020     1.0  0.82865  0.94742  0.49333  1.0000
  C   C5021     1.0  0.59756  0.97199  0.50355  1.0000
  Fe  Fe559     1.0  0.63947  0.98566  0.50846  1.0000
  H   H8885     1.0  0.94228  0.87895  0.50600  1.0000
  H   H8886     1.0  0.56989  0.95726  0.54045  1.0000
  H   H8887     1.0  0.59627  0.96287  0.50662  1.0000
  H   H8888     1.0  0.67779  0.92449  0.50533  1.0000
  C   C5022     1.0  0.98030  0.84209  0.49938  1.0000
  C   C5023     1.0  0.98924  0.74512  0.52700  1.0000
  C   C5024     1.0  0.71144  0.98689  0.49263  1.0000
  H   H8889     1.0  0.99240  0.76878  0.53415  1.0000
  H   H8890     1.0  0.55536  0.90418  0.73228  1.0000
  C   C5025     1.0  0.49948  0.96013  0.71188  1.0000
  H   H8891     1.0  0.58775  0.96849  0.71025  1.0000
  H   H8892     1.0  0.57298  0.89712  0.72315  1.0000
  C   C5026     1.0  0.69419  0.98505  0.54760  1.0000
  H   H8893     1.0  0.54091  0.93285  0.73406  1.0000
  H   H8894     1.0  0.61629  0.97782  0.63184  1.0000
  C   C5027     1.0  0.61305  0.98169  0.57757  1.0000
  C   C5028     1.0  0.70358  0.92629  0.49451  1.0000
  C   C5029     1.0  0.60786  0.92398  0.74129  1.0000
  C   C5030     1.0  0.57328  0.93063  0.72843  1.0000
  H   H8895     1.0  0.61177  0.97306  0.52412  1.0000
  H   H8896     1.0  0.50387  0.98586  0.72451  1.0000
  Fe  Fe560     1.0  0.50232  0.93209  0.71565  1.0000
  H   H8897     1.0  0.71668  0.98221  0.49937  1.0000
  H   H8898     1.0  0.86875  0.99218  0.51219  1.0000
  H   H8899     1.0  0.57282  0.96876  0.71845  1.0000
  H   H8900     1.0  0.56016  0.94556  0.73424  1.0000
  H   H8901     1.0  0.65663  0.98039  0.55908  1.0000
  H   H8902     1.0  0.50899  0.96454  0.65105  1.0000
  H   H8903     1.0  0.86268  0.95691  0.49283  1.0000
  H   H8904     1.0  0.95583  0.86470  0.49243  1.0000
  H   H8905     1.0  0.53469  0.98045  0.66176  1.0000
  H   H8906     1.0  0.59850  0.98389  0.64744  1.0000
  C   C5031     1.0  0.50352  0.88009  0.73827  1.0000
  H   H8907     1.0  0.51066  0.97316  0.59688  1.0000
  H   H8908     1.0  0.65467  0.98901  0.56979  1.0000
  H   H8909     1.0  0.96277  0.84408  0.49729  1.0000
  H   H8910     1.0  0.59768  0.98192  0.72669  1.0000
  C   C5032     1.0  0.56620  0.92119  0.73557  1.0000
  C   C5033     1.0  0.50406  0.98331  0.73398  1.0000
  C   C5034     1.0  0.79767  0.91458  0.49296  1.0000
  H   H8911     1.0  0.51380  0.96682  0.56632  1.0000
  S   S1114     1.0  0.65549  0.97789  0.53419  1.0000
  C   C5035     1.0  0.58294  0.90438  0.73078  1.0000
  H   H8912     1.0  0.53288  0.97814  0.58007  1.0000
  H   H8913     1.0  0.54287  0.96453  0.58470  1.0000
  H   H8914     1.0  0.57634  0.97080  0.70258  1.0000
  H   H8915     1.0  0.63590  0.98234  0.57701  1.0000
  H   H8916     1.0  0.50584  0.96483  0.73522  1.0000
  H   H8917     1.0  0.60337  0.98521  0.57915  1.0000
  H   H8918     1.0  0.51180  0.97783  0.58154  1.0000
  C   C5036     1.0  0.59583  0.97875  0.55173  1.0000
  H   H8919     1.0  0.72167  0.91830  0.49584  1.0000
  H   H8920     1.0  0.51226  0.87412  0.73874  1.0000
  H   H8921     1.0  0.58782  0.89549  0.73447  1.0000
  H   H8922     1.0  0.57890  0.99109  0.63412  1.0000
  H   H8923     1.0  0.53889  0.95368  0.73310  1.0000
  H   H8924     1.0  0.59616  0.98327  0.74145  1.0000
  H   H8925     1.0  0.57949  0.96249  0.54570  1.0000
  H   H8926     1.0  0.69858  0.97629  0.50230  1.0000
  H   H8927     1.0  0.81297  0.99169  0.49408  1.0000
  C   C5037     1.0  0.52927  0.95556  0.73692  1.0000
  H   H8928     1.0  0.51913  0.98878  0.65029  1.0000
  C   C5038     1.0  0.53215  0.93357  0.74018  1.0000
  H   H8929     1.0  0.73550  0.98281  0.49265  1.0000
  N   N279      1.0  0.57320  0.90916  0.74025  1.0000
  C   C5039     1.0  0.57626  0.98593  0.70898  1.0000
  H   H8930     1.0  0.49673  0.98332  0.64332  1.0000
  H   H8931     1.0  0.93885  0.96801  0.49464  1.0000
  C   C5040     1.0  0.61628  0.98345  0.63766  1.0000
  H   H8932     1.0  0.49929  0.99074  0.65952  1.0000
  H   H8933     1.0  0.54054  0.98893  0.74008  1.0000
  C   C5041     1.0  0.94201  0.94978  0.49490  1.0000
  H   H8934     1.0  0.95120  0.94746  0.49603  1.0000
  H   H8935     1.0  0.70481  0.93512  0.49390  1.0000
  H   H8936     1.0  0.66781  0.92086  0.49405  1.0000
  H   H8937     1.0  0.55923  0.98787  0.65521  1.0000
  H   H8938     1.0  0.59087  0.98632  0.54665  1.0000
  N   N280      1.0  0.61959  0.99133  0.57127  1.0000
  H   H8939     1.0  0.69925  0.98889  0.51517  1.0000
  S   S1115     1.0  0.57485  0.99228  0.59124  1.0000
  S   S1116     1.0  0.65554  0.99209  0.50659  1.0000
  H   H8940     1.0  0.59853  0.99195  0.62596  1.0000
  H   H8941     1.0  0.98552  0.74562  0.56637  1.0000
  H   H8942     1.0  0.60767  0.99192  0.52157  1.0000
  H   H8943     1.0  0.68187  0.99091  0.56294  1.0000
  H   H8944     1.0  0.52666  0.98775  0.61043  1.0000
  H   H8945     1.0  0.50825  0.98936  0.73584  1.0000
  H   H8946     1.0  0.60769  0.99010  0.50144  1.0000
  H   H8947     1.0  0.68473  0.99030  0.51318  1.0000
  C   C5042     1.0  0.50811  0.98816  0.61461  1.0000
  S   S1117     1.0  0.55646  0.98654  0.61694  1.0000
  H   H8948     1.0  0.95266  0.74683  0.50054  1.0000
  C   C5043     1.0  0.56354  0.99218  0.70773  1.0000
  H   H8949     1.0  0.57803  0.98717  0.71695  1.0000
  H   H8950     1.0  0.62217  0.98955  0.63279  1.0000
  H   H8951     1.0  0.58266  0.98928  0.70105  1.0000
  C   C5044     1.0  0.59976  0.98918  0.50857  1.0000
  S   S1118     1.0  0.54937  0.98744  0.59233  1.0000
  S   S1119     1.0  0.63046  0.99120  0.52560  1.0000
  H   H8952     1.0  0.61922  0.98994  0.55397  1.0000
  H   H8953     1.0  0.58175  0.98376  0.52258  1.0000
  H   H8954     1.0  0.69272  0.98926  0.49236  1.0000
  H   H8955     1.0  0.71913  0.96484  0.49250  1.0000
  C   C5045     1.0  0.52735  0.98789  0.66397  1.0000
  C   C5046     1.0  0.60381  0.99033  0.64192  1.0000
  H   H8956     1.0  0.56268  0.99097  0.69928  1.0000
  H   H8957     1.0  0.99589  0.81736  0.51431  1.0000
  H   H8958     1.0  0.49668  0.94719  0.62610  1.0000
  H   H8959     1.0  0.49666  0.86669  0.73525  1.0000
  H   H8960     1.0  0.58463  0.99120  0.73355  1.0000
  H   H8961     1.0  0.74541  0.88068  0.49208  1.0000
  Fe  Fe561     1.0  0.56054  0.78021  0.91572  1.0000
  S   S1120     1.0  0.55864  0.77369  0.93516  1.0000
  S   S1121     1.0  0.54757  0.79715  0.91061  1.0000
  Fe  Fe562     1.0  0.58148  0.76032  0.91028  1.0000
  S   S1122     1.0  0.58136  0.75275  0.92920  1.0000
  S   S1123     1.0  0.59580  0.75013  0.89824  1.0000
  Fe  Fe563     1.0  0.56205  0.75591  0.93140  1.0000
  C   C5047     1.0  0.51122  0.87223  0.76186  1.0000
  Fe  Fe564     1.0  0.57812  0.77118  0.93113  1.0000
  S   S1124     1.0  0.58612  0.77647  0.94286  1.0000
  S   S1125     1.0  0.56210  0.76244  0.91226  1.0000
  S   S1126     1.0  0.58007  0.77874  0.91179  1.0000
  C   C5048     1.0  0.52244  0.75846  0.96826  1.0000
  H   H8962     1.0  0.51855  0.80822  0.92075  1.0000
  S   S1127     1.0  0.51814  0.91930  0.87274  1.0000
  H   H8963     1.0  0.51693  0.82196  0.87904  1.0000
  Fe  Fe565     1.0  0.52275  0.92898  0.88338  1.0000
  S   S1128     1.0  0.52708  0.92032  0.90118  1.0000
  H   H8964     1.0  0.51878  0.79452  0.94799  1.0000
  S   S1129     1.0  0.57330  0.94121  0.75352  1.0000
  H   H8965     1.0  0.52880  0.90680  0.92442  1.0000
  Fe  Fe566     1.0  0.53493  0.84281  0.94742  1.0000
  H   H8966     1.0  0.51103  0.91170  0.83756  1.0000
  S   S1130     1.0  0.55154  0.83376  0.93665  1.0000
  Fe  Fe567     1.0  0.52639  0.85561  0.96769  1.0000
  C   C5049     1.0  0.54199  0.74781  0.95316  1.0000
  S   S1131     1.0  0.53456  0.85872  0.98075  1.0000
  H   H8967     1.0  0.50598  0.96097  0.78957  1.0000
  H   H8968     1.0  0.52698  0.76911  0.91021  1.0000
  H   H8969     1.0  0.53133  0.93654  0.81600  1.0000
  S   S1132     1.0  0.53023  0.83669  0.96690  1.0000
  S   S1133     1.0  0.53281  0.86148  0.94819  1.0000
  S   S1134     1.0  0.57021  0.94939  0.80179  1.0000
  H   H8970     1.0  0.57998  0.90284  0.77311  1.0000
  H   H8971     1.0  0.51229  0.96053  0.82728  1.0000
  C   C5050     1.0  0.54153  0.98971  0.78753  1.0000
  C   C5051     1.0  0.50926  0.80744  0.92288  1.0000
  C   C5052     1.0  0.51293  0.94251  0.77215  1.0000
  H   H8972     1.0  0.52628  0.80657  0.94237  1.0000
  H   H8973     1.0  0.55362  0.88492  0.81438  1.0000
  C   C5053     1.0  0.51681  0.79224  0.91127  1.0000
  H   H8974     1.0  0.55549  0.97948  0.89259  1.0000
  H   H8975     1.0  0.50549  0.81770  0.94195  1.0000
  Fe  Fe568     1.0  0.56263  0.93386  0.77090  1.0000
  H   H8976     1.0  0.55336  0.88442  0.74499  1.0000
  C   C5054     1.0  0.57201  0.98682  0.79242  1.0000
  C   C5055     1.0  0.56190  0.92940  0.81264  1.0000
  H   H8977     1.0  0.56634  0.92628  0.80467  1.0000
  H   H8978     1.0  0.56285  0.94556  0.85527  1.0000
  H   H8979     1.0  0.52458  0.95961  0.79824  1.0000
  H   H8980     1.0  0.51998  0.77233  0.95307  1.0000
  C   C5056     1.0  0.50534  0.82400  0.93336  1.0000
  H   H8981     1.0  0.53097  0.79422  0.93538  1.0000
  C   C5057     1.0  0.49924  0.96861  0.79232  1.0000
  S   S1135     1.0  0.50847  0.94534  0.88007  1.0000
  H   H8982     1.0  0.53200  0.95089  0.81689  1.0000
  C   C5058     1.0  0.53347  0.94242  0.76957  1.0000
  H   H8983     1.0  0.54738  0.91089  0.74449  1.0000
  H   H8984     1.0  0.54343  0.94418  0.90234  1.0000
  H   H8985     1.0  0.56569  0.96338  0.86005  1.0000
  Fe  Fe569     1.0  0.53073  0.92770  0.85764  1.0000
  N   N281      1.0  0.50707  0.80281  0.91360  1.0000
  C   C5059     1.0  0.55035  0.93737  0.83339  1.0000
  C   C5060     1.0  0.55680  0.94436  0.82399  1.0000
  C   C5061     1.0  0.56251  0.94041  0.81358  1.0000
  H   H8986     1.0  0.59140  0.95201  0.88180  1.0000
  S   S1136     1.0  0.52532  0.97000  0.85631  1.0000
  H   H8987     1.0  0.54585  0.94050  0.84136  1.0000
  H   H8988     1.0  0.55732  0.95283  0.82474  1.0000
  H   H8989     1.0  0.61417  0.75307  0.91738  1.0000
  H   H8990     1.0  0.56314  0.80460  0.99137  1.0000
  H   H8991     1.0  0.52452  0.83072  0.88271  1.0000
  H   H8992     1.0  0.57097  0.74516  0.97323  1.0000
  C   C5062     1.0  0.50237  0.91656  0.84085  1.0000
  H   H8993     1.0  0.51878  0.98253  0.82700  1.0000
  H   H8994     1.0  0.50943  0.86405  0.76098  1.0000
  S   S1137     1.0  0.54206  0.91734  0.84421  1.0000
  H   H8995     1.0  0.51806  0.82278  0.90372  1.0000
  H   H8996     1.0  0.50815  0.92192  0.85326  1.0000
  H   H8997     1.0  0.50867  0.83354  0.88685  1.0000
  C   C5063     1.0  0.52179  0.90773  0.90968  1.0000
  C   C5064     1.0  0.52379  0.90293  0.92106  1.0000
  C   C5065     1.0  0.51916  0.89327  0.92823  1.0000
  H   H8998     1.0  0.54015  0.79099  0.98923  1.0000
  H   H8999     1.0  0.53440  0.97404  0.79582  1.0000
  C   C5066     1.0  0.54631  0.76744  0.98584  1.0000
  C   C5067     1.0  0.52278  0.98160  0.86342  1.0000
  H   H9000     1.0  0.52061  0.88973  0.93705  1.0000
  H   H9001     1.0  0.55804  0.83768  0.98682  1.0000
  H   H9002     1.0  0.53939  0.96574  0.89987  1.0000
  H   H9003     1.0  0.53465  0.98844  0.81046  1.0000
  H   H9004     1.0  0.51429  0.82556  0.92924  1.0000
  C   C5068     1.0  0.55022  0.97627  0.87796  1.0000
  H   H9005     1.0  0.61397  0.75305  0.94277  1.0000
  C   C5069     1.0  0.57698  0.75939  0.95997  1.0000
  H   H9006     1.0  0.56226  0.97347  0.79550  1.0000
  H   H9007     1.0  0.57392  0.75768  0.95322  1.0000
  C   C5070     1.0  0.52954  0.74778  0.97266  1.0000
  H   H9008     1.0  0.49913  0.92502  0.89797  1.0000
  H   H9009     1.0  0.52253  0.79103  0.96761  1.0000
  C   C5071     1.0  0.54859  0.80749  0.91773  1.0000
  C   C5072     1.0  0.55819  0.80542  0.92277  1.0000
  C   C5073     1.0  0.55904  0.81359  0.92847  1.0000
  C   C5074     1.0  0.55002  0.82359  0.92970  1.0000
  C   C5075     1.0  0.54032  0.82566  0.92480  1.0000
  C   C5076     1.0  0.53977  0.81776  0.91855  1.0000
  H   H9010     1.0  0.56511  0.79761  0.92215  1.0000
  H   H9011     1.0  0.56672  0.81209  0.93196  1.0000
  H   H9012     1.0  0.53345  0.83350  0.92554  1.0000
  H   H9013     1.0  0.53251  0.81958  0.91443  1.0000
  H   H9014     1.0  0.50031  0.99184  0.85501  1.0000
  C   C5077     1.0  0.53517  0.75872  0.94891  1.0000
  H   H9015     1.0  0.57501  0.95236  0.87363  1.0000
  H   H9016     1.0  0.50948  0.86547  0.99089  1.0000
  H   H9017     1.0  0.53748  0.76308  0.93980  1.0000
  C   C5078     1.0  0.56070  0.95694  0.88840  1.0000
  C   C5079     1.0  0.58596  0.89877  0.75574  1.0000
  H   H9018     1.0  0.52327  0.94156  0.90995  1.0000
  H   H9019     1.0  0.55942  0.97805  0.81575  1.0000
  C   C5080     1.0  0.58433  0.76405  0.97773  1.0000
  N   N282      1.0  0.55039  0.96335  0.88279  1.0000
  C   C5081     1.0  0.53637  0.93015  0.77141  1.0000
  H   H9020     1.0  0.50731  0.86537  0.78099  1.0000
  H   H9021     1.0  0.53325  0.86397  0.76807  1.0000
  C   C5082     1.0  0.55572  0.92231  0.82215  1.0000
  H   H9022     1.0  0.54889  0.97102  0.78670  1.0000
  C   C5083     1.0  0.58280  0.76850  0.95735  1.0000
  N   N283      1.0  0.53892  0.78773  0.97296  1.0000
  H   H9023     1.0  0.54853  0.75051  0.98172  1.0000
  H   H9024     1.0  0.51440  0.84004  0.99093  1.0000
  H   H9025     1.0  0.51196  0.92735  0.81031  1.0000
  H   H9026     1.0  0.50923  0.92567  0.77433  1.0000
  C   C5084     1.0  0.50560  0.89380  0.75403  1.0000
  C   C5085     1.0  0.51056  0.89311  0.91264  1.0000
  H   H9027     1.0  0.52420  0.95485  0.91308  1.0000
  Fe  Fe570     1.0  0.51421  0.86356  0.94708  1.0000
  C   C5086     1.0  0.58124  0.80554  0.98960  1.0000
  C   C5087     1.0  0.53929  0.96244  0.89223  1.0000
  C   C5088     1.0  0.52584  0.88501  0.84899  1.0000
  C   C5089     1.0  0.56023  0.82594  0.97572  1.0000
  C   C5090     1.0  0.56184  0.83550  0.96453  1.0000
  Fe  Fe571     1.0  0.51168  0.84078  0.96492  1.0000
  H   H9028     1.0  0.51906  0.78357  0.92931  1.0000
  H   H9029     1.0  0.54286  0.97015  0.83021  1.0000
  C   C5091     1.0  0.52116  0.75005  0.90116  1.0000
  H   H9030     1.0  0.50689  0.80779  0.89511  1.0000
  H   H9031     1.0  0.50546  0.88927  0.90938  1.0000
  H   H9032     1.0  0.58515  0.91619  0.74538  1.0000
  C   C5092     1.0  0.51584  0.99029  0.88062  1.0000
  H   H9033     1.0  0.58282  0.81170  0.98097  1.0000
  C   C5093     1.0  0.50099  0.81927  0.92535  1.0000
  H   H9034     1.0  0.49882  0.81888  0.90291  1.0000
  C   C5094     1.0  0.55248  0.80242  0.96290  1.0000
  C   C5095     1.0  0.54901  0.98364  0.88697  1.0000
  H   H9035     1.0  0.55169  0.97138  0.85694  1.0000
  C   C5096     1.0  0.58257  0.95178  0.88768  1.0000
  H   H9036     1.0  0.50013  0.80420  0.97683  1.0000
  C   C5097     1.0  0.51438  0.90981  0.75519  1.0000
  H   H9037     1.0  0.56577  0.81752  0.97356  1.0000
  N   N284      1.0  0.54919  0.98990  0.79529  1.0000
  H   H9038     1.0  0.55934  0.83325  0.95746  1.0000
  H   H9039     1.0  0.52564  0.85209  0.77228  1.0000
  H   H9040     1.0  0.57116  0.83627  0.96148  1.0000
  H   H9041     1.0  0.51867  0.88342  0.81307  1.0000
  H   H9042     1.0  0.57400  0.96657  0.87638  1.0000
  H   H9043     1.0  0.50123  0.93796  0.90892  1.0000
  H   H9044     1.0  0.51233  0.89294  0.74574  1.0000
  H   H9045     1.0  0.53766  0.78112  0.95251  1.0000
  H   H9046     1.0  0.51101  0.97572  0.79745  1.0000
  H   H9047     1.0  0.59459  0.89599  0.74983  1.0000
  H   H9048     1.0  0.55665  0.78581  0.97465  1.0000
  H   H9049     1.0  0.57000  0.89151  0.74605  1.0000
  N   N285      1.0  0.54233  0.86407  0.90130  1.0000
  C   C5098     1.0  0.54566  0.87299  0.90550  1.0000
  C   C5099     1.0  0.54145  0.86890  0.88861  1.0000
  C   C5100     1.0  0.53020  0.86265  0.90842  1.0000
  C   C5101     1.0  0.55074  0.85214  0.90285  1.0000
  C   C5102     1.0  0.56388  0.85187  0.90160  1.0000
  C   C5103     1.0  0.54479  0.87043  0.91890  1.0000
  C   C5104     1.0  0.52437  0.85509  0.90435  1.0000
  C   C5105     1.0  0.55260  0.87207  0.87963  1.0000
  C   C5106     1.0  0.54983  0.87846  0.86762  1.0000
  C   C5107     1.0  0.57147  0.83944  0.90159  1.0000
  C   C5108     1.0  0.55123  0.87795  0.92189  1.0000
  C   C5109     1.0  0.51298  0.85288  0.91309  1.0000
  H   H9050     1.0  0.53990  0.88187  0.90315  1.0000
  H   H9051     1.0  0.55472  0.87401  0.90102  1.0000
  H   H9052     1.0  0.53918  0.86245  0.88518  1.0000
  H   H9053     1.0  0.53415  0.87692  0.88800  1.0000
  H   H9054     1.0  0.52404  0.87141  0.90846  1.0000
  H   H9055     1.0  0.53041  0.85857  0.91782  1.0000
  H   H9056     1.0  0.54802  0.84670  0.91177  1.0000
  H   H9057     1.0  0.55029  0.84712  0.89666  1.0000
  H   H9058     1.0  0.56498  0.85461  0.90913  1.0000
  H   H9059     1.0  0.56746  0.85779  0.89348  1.0000
  H   H9060     1.0  0.53542  0.87258  0.92348  1.0000
  H   H9061     1.0  0.54845  0.86103  0.92243  1.0000
  H   H9062     1.0  0.53037  0.84644  0.90342  1.0000
  H   H9063     1.0  0.52195  0.85972  0.89582  1.0000
  H   H9064     1.0  0.55630  0.87795  0.88237  1.0000
  H   H9065     1.0  0.55938  0.86393  0.87834  1.0000
  H   H9066     1.0  0.54332  0.88693  0.86824  1.0000
  H   H9067     1.0  0.55799  0.88043  0.86126  1.0000
  H   H9068     1.0  0.54632  0.87291  0.86419  1.0000
  H   H9069     1.0  0.58077  0.83941  0.90093  1.0000
  H   H9070     1.0  0.56847  0.83327  0.90988  1.0000
  H   H9071     1.0  0.57105  0.83628  0.89401  1.0000
  H   H9072     1.0  0.54773  0.88744  0.91851  1.0000
  H   H9073     1.0  0.54994  0.87638  0.93158  1.0000
  H   H9074     1.0  0.56082  0.87562  0.91805  1.0000
  Fe  Fe572     1.0  0.50508  0.93606  0.86810  1.0000
  H   H9075     1.0  0.51392  0.90612  0.89663  1.0000
  H   H9076     1.0  0.51487  0.84755  0.92164  1.0000
  S   S1138     1.0  0.51675  0.84500  0.94527  1.0000
  H   H9077     1.0  0.52785  0.87533  0.84995  1.0000
  H   H9078     1.0  0.51759  0.95556  0.90118  1.0000
  H   H9079     1.0  0.62015  0.90732  0.74421  1.0000
  Fe  Fe573     1.0  0.52204  0.95165  0.86441  1.0000
  C   C5110     1.0  0.54751  0.89267  0.74740  1.0000
  H   H9080     1.0  0.54492  0.89147  0.75712  1.0000
  S   S1139     1.0  0.60597  0.92594  0.75554  1.0000
  H   H9081     1.0  0.52569  0.88158  0.79197  1.0000
  H   H9082     1.0  0.55612  0.84413  0.96605  1.0000
  H   H9083     1.0  0.57200  0.91469  0.75607  1.0000
  C   C5111     1.0  0.52683  0.99174  0.85693  1.0000
  C   C5112     1.0  0.57914  0.75450  0.98014  1.0000
  H   H9084     1.0  0.54105  0.95881  0.87248  1.0000
  H   H9085     1.0  0.51949  0.95804  0.76906  1.0000
  H   H9086     1.0  0.51698  0.93187  0.79472  1.0000
  H   H9087     1.0  0.54287  0.88696  0.83842  1.0000
  H   H9088     1.0  0.53456  0.97007  0.74952  1.0000
  C   C5113     1.0  0.54990  0.92629  0.83250  1.0000
  H   H9089     1.0  0.50042  0.82616  0.91723  1.0000
  C   C5114     1.0  0.58838  0.90041  0.76676  1.0000
  C   C5115     1.0  0.51019  0.95179  0.81113  1.0000
  N   N286      1.0  0.50350  0.96384  0.81311  1.0000
  C   C5116     1.0  0.55677  0.96252  0.86045  1.0000
  C   C5117     1.0  0.52763  0.92413  0.77294  1.0000
  H   H9090     1.0  0.54121  0.94452  0.80478  1.0000
  Fe  Fe574     1.0  0.58799  0.93589  0.76292  1.0000
  H   H9091     1.0  0.56187  0.90090  0.75588  1.0000
  S   S1140     1.0  0.50566  0.87690  0.93297  1.0000
  H   H9092     1.0  0.52000  0.89158  0.76246  1.0000
  H   H9093     1.0  0.52751  0.88695  0.85670  1.0000
  H   H9094     1.0  0.53940  0.88167  0.80596  1.0000
  H   H9095     1.0  0.58131  0.89149  0.75849  1.0000
  C   C5118     1.0  0.57532  0.75229  0.97130  1.0000
  C   C5119     1.0  0.53497  0.97787  0.77736  1.0000
  C   C5120     1.0  0.55797  0.95464  0.85214  1.0000
  H   H9096     1.0  0.53946  0.89454  0.74396  1.0000
  H   H9097     1.0  0.51637  0.88869  0.84891  1.0000
  H   H9098     1.0  0.50527  0.94821  0.80701  1.0000
  H   H9099     1.0  0.58007  0.97736  0.75894  1.0000
  C   C5121     1.0  0.53238  0.94542  0.81080  1.0000
  N   N287      1.0  0.53609  0.89575  0.81492  1.0000
  C   C5122     1.0  0.53430  0.89093  0.80551  1.0000
  C   C5123     1.0  0.54907  0.89438  0.81364  1.0000
  C   C5124     1.0  0.53154  0.88815  0.82664  1.0000
  C   C5125     1.0  0.52947  0.90832  0.81498  1.0000
  C   C5126     1.0  0.52929  0.91730  0.80301  1.0000
  C   C5127     1.0  0.52137  0.89093  0.80614  1.0000
  H   H9100     1.0  0.58067  0.79144  0.98200  1.0000
  C   C5128     1.0  0.55564  0.90152  0.80224  1.0000
  C   C5129     1.0  0.56884  0.89844  0.80177  1.0000
  S   S1141     1.0  0.50737  0.85948  0.96682  1.0000
  H   H9101     1.0  0.51181  0.91862  0.80056  1.0000
  H   H9102     1.0  0.52451  0.94566  0.79702  1.0000
  C   C5130     1.0  0.56509  0.90073  0.74634  1.0000
  H   H9103     1.0  0.53803  0.89546  0.79657  1.0000
  H   H9104     1.0  0.55065  0.89710  0.82095  1.0000
  H   H9105     1.0  0.58228  0.94246  0.89188  1.0000
  C   C5131     1.0  0.50704  0.81186  0.90219  1.0000
  H   H9106     1.0  0.56316  0.98293  0.78158  1.0000
  H   H9107     1.0  0.52021  0.90846  0.81977  1.0000
  H   H9108     1.0  0.53293  0.91217  0.82026  1.0000
  H   H9109     1.0  0.53336  0.91353  0.79518  1.0000
  H   H9110     1.0  0.53443  0.92379  0.80229  1.0000
  H   H9111     1.0  0.59073  0.77808  0.96426  1.0000
  H   H9112     1.0  0.55988  0.96007  0.89643  1.0000
  H   H9113     1.0  0.53150  0.90018  0.83752  1.0000
  C   C5132     1.0  0.51770  0.81782  0.89751  1.0000
  H   H9114     1.0  0.55455  0.89975  0.79420  1.0000
  H   H9115     1.0  0.55250  0.91107  0.80198  1.0000
  H   H9116     1.0  0.57333  0.90387  0.79374  1.0000
  H   H9117     1.0  0.57057  0.90028  0.80951  1.0000
  H   H9118     1.0  0.57266  0.88904  0.80149  1.0000
  C   C5133     1.0  0.57373  0.98563  0.75801  1.0000
  H   H9119     1.0  0.52767  0.85807  0.78338  1.0000
  H   H9120     1.0  0.50938  0.96752  0.74705  1.0000
  H   H9121     1.0  0.60402  0.76312  0.92614  1.0000
  C   C5134     1.0  0.51979  0.88974  0.79450  1.0000
  C   C5135     1.0  0.51685  0.82654  0.88581  1.0000
  C   C5136     1.0  0.56362  0.82883  0.98579  1.0000
  S   S1142     1.0  0.53667  0.93602  0.86858  1.0000
  S   S1143     1.0  0.57768  0.92719  0.77996  1.0000
  H   H9122     1.0  0.50695  0.98068  0.77705  1.0000
  H   H9123     1.0  0.56066  0.94743  0.89158  1.0000
  H   H9124     1.0  0.55378  0.94802  0.87544  1.0000
  C   C5137     1.0  0.51238  0.88845  0.92408  1.0000
  H   H9125     1.0  0.53154  0.96819  0.88885  1.0000
  H   H9126     1.0  0.51479  0.74532  0.90070  1.0000
  C   C5138     1.0  0.53356  0.89065  0.83773  1.0000
  H   H9127     1.0  0.54000  0.98475  0.89266  1.0000
  H   H9128     1.0  0.58134  0.95665  0.89460  1.0000
  H   H9129     1.0  0.50581  0.89874  0.77020  1.0000
  C   C5139     1.0  0.51676  0.92417  0.80214  1.0000
  C   C5140     1.0  0.52175  0.94859  0.77007  1.0000
  C   C5141     1.0  0.53118  0.79356  0.96423  1.0000
  C   C5142     1.0  0.51005  0.98106  0.83224  1.0000
  S   S1144     1.0  0.58429  0.95312  0.76814  1.0000
  H   H9130     1.0  0.61946  0.76302  0.92213  1.0000
  H   H9131     1.0  0.51054  0.94539  0.81968  1.0000
  H   H9132     1.0  0.49936  0.83249  0.93495  1.0000
  S   S1145     1.0  0.51732  0.94376  0.85219  1.0000
  H   H9133     1.0  0.55585  0.78440  0.96084  1.0000
  H   H9134     1.0  0.52448  0.74480  0.92511  1.0000
  H   H9135     1.0  0.55818  0.97762  0.87099  1.0000
  Fe  Fe575     1.0  0.56864  0.95777  0.76012  1.0000
  H   H9136     1.0  0.54022  0.94719  0.76777  1.0000
  S   S1146     1.0  0.55660  0.95089  0.77679  1.0000
  C   C5143     1.0  0.53136  0.98893  0.74494  1.0000
  C   C5144     1.0  0.54507  0.75470  0.98942  1.0000
  H   H9137     1.0  0.50819  0.80106  0.93147  1.0000
  C   C5145     1.0  0.51594  0.93033  0.77319  1.0000
  C   C5146     1.0  0.52592  0.86029  0.77444  1.0000
  H   H9138     1.0  0.52186  0.88914  0.82806  1.0000
  C   C5147     1.0  0.58631  0.77096  0.96627  1.0000
  H   H9139     1.0  0.56285  0.95819  0.84322  1.0000
  H   H9140     1.0  0.49940  0.89180  0.88171  1.0000
  H   H9141     1.0  0.53326  0.93240  0.74917  1.0000
  Fe  Fe576     1.0  0.57255  0.94495  0.78439  1.0000
  H   H9142     1.0  0.52551  0.79457  0.90878  1.0000
  H   H9143     1.0  0.52988  0.91468  0.77409  1.0000
  S   S1147     1.0  0.56195  0.97528  0.74892  1.0000
  H   H9144     1.0  0.50217  0.98675  0.81719  1.0000
  H   H9145     1.0  0.53552  0.87867  0.82669  1.0000
  C   C5148     1.0  0.52772  0.77138  0.91816  1.0000
  C   C5149     1.0  0.56146  0.98289  0.79108  1.0000
  C   C5150     1.0  0.54030  0.97739  0.78750  1.0000
  C   C5151     1.0  0.57883  0.91038  0.74933  1.0000
  H   H9146     1.0  0.56606  0.81222  0.95389  1.0000
  H   H9147     1.0  0.59372  0.89211  0.77103  1.0000
  C   C5152     1.0  0.50985  0.96774  0.81980  1.0000
  H   H9148     1.0  0.55089  0.82533  0.97815  1.0000
  C   C5153     1.0  0.53610  0.79067  0.95189  1.0000
  C   C5154     1.0  0.52744  0.79691  0.94395  1.0000
  H   H9149     1.0  0.59334  0.90741  0.76448  1.0000
  C   C5155     1.0  0.52298  0.95103  0.80354  1.0000
  C   C5156     1.0  0.53373  0.79322  0.98355  1.0000
  H   H9150     1.0  0.53029  0.77309  0.97917  1.0000
  H   H9151     1.0  0.51120  0.97340  0.83969  1.0000
  C   C5157     1.0  0.57310  0.95742  0.88052  1.0000
  H   H9152     1.0  0.52170  0.89747  0.78744  1.0000
  H   H9153     1.0  0.54447  0.79350  0.94746  1.0000
  H   H9154     1.0  0.50872  0.84797  0.90969  1.0000
  S   S1148     1.0  0.55078  0.92218  0.77198  1.0000
  S   S1149     1.0  0.50148  0.82736  0.97630  1.0000
  C   C5158     1.0  0.52844  0.97752  0.74505  1.0000
  C   C5159     1.0  0.55027  0.95770  0.87318  1.0000
  H   H9155     1.0  0.52853  0.95500  0.74636  1.0000
  C   C5160     1.0  0.51535  0.90263  0.90542  1.0000
  H   H9156     1.0  0.52613  0.81124  0.89605  1.0000
  H   H9157     1.0  0.55544  0.91375  0.82150  1.0000
  S   S1150     1.0  0.49819  0.95014  0.77412  1.0000
  C   C5161     1.0  0.54391  0.97914  0.82945  1.0000
  C   C5162     1.0  0.50322  0.97897  0.82457  1.0000
  H   H9158     1.0  0.51382  0.97323  0.88031  1.0000
  H   H9159     1.0  0.52651  0.98449  0.77754  1.0000
  H   H9160     1.0  0.50677  0.86133  0.91449  1.0000
  H   H9161     1.0  0.51053  0.88940  0.79545  1.0000
  H   H9162     1.0  0.53755  0.74609  0.90645  1.0000
  C   C5163     1.0  0.52526  0.76393  0.95641  1.0000
  H   H9163     1.0  0.60794  0.74961  0.97243  1.0000
  C   C5164     1.0  0.51422  0.86925  0.77413  1.0000
  H   H9164     1.0  0.51632  0.75732  0.90579  1.0000
  H   H9165     1.0  0.53624  0.77392  0.91640  1.0000
  H   H9166     1.0  0.50042  0.92383  0.91854  1.0000
  H   H9167     1.0  0.49789  0.97388  0.87001  1.0000
  H   H9168     1.0  0.57081  0.98820  0.80135  1.0000
  H   H9169     1.0  0.51937  0.87344  0.75500  1.0000
  H   H9170     1.0  0.51627  0.78934  0.90356  1.0000
  H   H9171     1.0  0.52756  0.76349  0.92544  1.0000
  C   C5165     1.0  0.56406  0.98694  0.75333  1.0000
  S   S1151     1.0  0.50972  0.76475  0.97736  1.0000
  H   H9172     1.0  0.54351  0.77069  0.96847  1.0000
  C   C5166     1.0  0.54411  0.98429  0.80776  1.0000
  H   H9173     1.0  0.53668  0.94569  0.89044  1.0000
  C   C5167     1.0  0.56537  0.80294  0.95765  1.0000
  H   H9174     1.0  0.51525  0.89906  0.80833  1.0000
  H   H9175     1.0  0.51480  0.87707  0.77668  1.0000
  C   C5168     1.0  0.51709  0.98096  0.87525  1.0000
  C   C5169     1.0  0.51754  0.78142  0.92165  1.0000
  H   H9176     1.0  0.50937  0.77815  0.92442  1.0000
  C   C5170     1.0  0.53675  0.94995  0.89739  1.0000
  C   C5171     1.0  0.51152  0.89785  0.76144  1.0000
  C   C5172     1.0  0.52471  0.95058  0.90591  1.0000
  C   C5173     1.0  0.61300  0.75739  0.92472  1.0000
  H   H9177     1.0  0.54916  0.95436  0.85144  1.0000
  H   H9178     1.0  0.59517  0.79184  0.98265  1.0000
  C   C5174     1.0  0.55055  0.98398  0.81716  1.0000
  H   H9179     1.0  0.51949  0.91216  0.76008  1.0000
  H   H9180     1.0  0.50616  0.91674  0.75469  1.0000
  H   H9181     1.0  0.51840  0.96948  0.81415  1.0000
  H   H9182     1.0  0.54755  0.80692  0.95588  1.0000
  H   H9183     1.0  0.51590  0.79006  0.98636  1.0000
  C   C5175     1.0  0.58348  0.97766  0.78993  1.0000
  H   H9184     1.0  0.54118  0.98018  0.76887  1.0000
  H   H9185     1.0  0.57280  0.83012  0.98266  1.0000
  C   C5176     1.0  0.58579  0.79307  0.98741  1.0000
  C   C5177     1.0  0.50266  0.97272  0.80165  1.0000
  H   H9186     1.0  0.58315  0.96934  0.79666  1.0000
  H   H9187     1.0  0.49816  0.90114  0.75164  1.0000
  C   C5178     1.0  0.55129  0.78948  0.96785  1.0000
  N   N288      1.0  0.50120  0.88264  0.75947  1.0000
  H   H9188     1.0  0.54429  0.97491  0.80843  1.0000
  H   H9189     1.0  0.49834  0.78472  0.90966  1.0000
  H   H9190     1.0  0.50066  0.90570  0.87160  1.0000
  H   H9191     1.0  0.53332  0.96917  0.77799  1.0000
  H   H9192     1.0  0.59098  0.98098  0.79021  1.0000
  C   C5179     1.0  0.50070  0.92229  0.84992  1.0000
  H   H9193     1.0  0.54880  0.97874  0.83605  1.0000
  H   H9194     1.0  0.51976  0.90956  0.74615  1.0000
  H   H9195     1.0  0.58725  0.76581  0.98456  1.0000
  C   C5180     1.0  0.52216  0.78988  0.99151  1.0000
  H   H9196     1.0  0.53040  0.98969  0.75406  1.0000
  H   H9197     1.0  0.59718  0.74664  0.94306  1.0000
  S   S1152     1.0  0.49701  0.77975  0.94929  1.0000
  H   H9198     1.0  0.51533  0.94570  0.74251  1.0000
  H   H9199     1.0  0.53510  0.98498  0.83148  1.0000
  H   H9200     1.0  0.52544  0.75385  0.89206  1.0000
  C   C5181     1.0  0.61490  0.74819  0.93595  1.0000
  H   H9201     1.0  0.52904  0.80331  0.96304  1.0000
  H   H9202     1.0  0.54274  0.98048  0.87351  1.0000
  C   C5182     1.0  0.49835  0.97823  0.78120  1.0000
  C   C5183     1.0  0.53934  0.77471  0.97627  1.0000
  H   H9203     1.0  0.55959  0.92465  0.74301  1.0000
  H   H9204     1.0  0.51945  0.97765  0.75055  1.0000
  H   H9205     1.0  0.53189  0.80299  0.98072  1.0000
  H   H9206     1.0  0.51161  0.98971  0.88983  1.0000
  H   H9207     1.0  0.55579  0.76734  0.98246  1.0000
  C   C5184     1.0  0.55366  0.90290  0.74194  1.0000
  H   H9208     1.0  0.54913  0.80746  0.96996  1.0000
  H   H9209     1.0  0.50512  0.98883  0.83595  1.0000
  H   H9210     1.0  0.56911  0.79801  0.95049  1.0000
  H   H9211     1.0  0.57065  0.79909  0.96448  1.0000
  H   H9212     1.0  0.53125  0.99238  0.84781  1.0000
  H   H9213     1.0  0.58503  0.97577  0.78111  1.0000
  H   H9214     1.0  0.49610  0.98095  0.80330  1.0000
  H   H9215     1.0  0.55136  0.99286  0.81708  1.0000
  H   H9216     1.0  0.52742  0.74367  0.98187  1.0000
