data_image0
_chemical_formula_structural       FeS3Fe2S2HC3FeC2SCH3SH5CH3SH3CH5CH4CHC2H3S2HCSH3FeS2HFe2SFeS3C3H5C6H4CH2C2H7C2HC2H2CHSCH3SH7SHCH2C3H6C2HCHCH8CH5CHCHCH2C3HC2H2CH2NC2SH2CHCH11CHNH3FeS2FeS2FeSFeS3HFeS2CSHFeSCHSCFeS2FeS2FeCFeS3C2H2CHCHCH5CH2C6H4C3HC2H2CH3C7H4C6H2CHC3HNH3CHC2HCH4CH2CH3C2H4CH4CH6CH4CHCSCNH3C2H2CH4CH3CH2CH2CH2CH2NC12H28NC12H9CH19CH3CHCH8CH2FeHC2H3NH2CHCHCH2C2HCH2CH6CHC2HCHC3HC2H4CH2C2H2FeH2C2H2CNHFeS2FeS2FeSFeS3H2SFeCSCFeSFeCSHFeS2FeS2FeSFeS3C2H6CHC6H6C6H4C6H2CHC2HC2H2NC12H30CH2CH2SH4CH3CNC2H5CH2CH5NC6HC4H17FeH8CHCHCHC3HCH4CHCH2CH2NC2H2CH3CHC2HC3HCH3C2H13CHC3H2C4NH2C2H2C2H3CHSC2H2CH2CH4NH16C4HCHC2H2FeS2HCFeSHSFeS2HFeSFeSHSH2FeS2FeSH2FeSHSH2C2SFeC3H4CHC2HCH2C2H2CH3CH2C6H4CH3CHCHCH2CHCH2CH2SNHCH3CH2CH12CNHSHC2HCH4CSCFeSC3H8C2H4NCH3CHCH2C3H3C3HC2HC2H4SH2SC2HCH4C2HCH2CH5SH12CHC2HCH2CFeHFeS2FeCFeHS2FeS2FeHCHS2CHFeCNFeS2FeS2C3HC2H2FeH3CHCHSHCH8SHC2H6CH3C3H4C6H4CHCSC2H6CHCH2CHCH3CHCHCHCHC3H9CHCH2SCH3CHC2H5CH3NH3FeHNCH5CH7C2H2C2H2C2H7C2H2CH2CH2C3H10C2H4C2H2CH2C2H3CHCNH6SH2C5HCHC4HC4FeCHCH5CH3C4NH3CH2SH2NCH2CH3SH2SH6CH2C2HFeS2FeS2FeHFeS3FeHSFeS2FeHFeHS2HSFeSHFeSFeS2FeS2FeS2FeSFeS3HFeS2FeS2FeSFeS3C8H4C6H4C2HCNCH4CH2C2HCHCHCNH2CH4C6H4C5H3C6H4C2HC9H4CH2C6H5CH2CH3CHCH2FeH4CHCHCHSCH3CH2CH8C3H4C2HCH5CHCH3CH6SCH3NC12H27C3HCH2C2H3CH3C4H18CHFeSNC5HC6H11CH2CH8C2H3C2H7SHCSH3C3H3CH9CH3CHCH3CH3C2H2CH2CHCH2CH4C5HNHCH6CH2CHCH4CH4CH2C4HSNC2H5NCH2NHC2H4C5H2NH3C2HCH2C2HCH3C2HCSCH3NCH3C3HC2H3C3NH12CHCNH6CSCHCNCH3C2H5CHSH3CH3CHCH3SH3CH4C5HC2HCH4CH4CHCSH2CSCH3C2HSHC2H3CH3CHCH4CHCH2C2H3CH2CH3CHCH2C2H2C2H2SHFeS2FeSFeSFeS3FeS2FeS2FeHFeHS2HSFeSHFeSFeS2FeS2FeS2FeSFeS3CFeS2FeS2FeSFeS3NHC3H2CH2CHC6H4C6H6CHC3H3CH2CHC6H4C6H4C6H4C2H4C3H2CH4NC12H28NH4CH2CH2NH11C2HCH3CH11NC8HCH7CH2C2H3CH5NC6HC2HCH3SH6CH4C2HC2H8C2H2C3H2C2H2C2H3C3HC2HCHC2H3CH2CH3CH6C2H3NCH4C6H2CH3SH2C4HCH3C2H12CH3C2H5CH3SHC2H3NHNH3CH5C2H2C2HC2H3CHCHFeNCHCH4SH4CHCH7C2HCHCSHCH2CH3C2HNCHCHC2HCHCH2CH2CH2C2H7CH4CH5FeCH4C2H4CHCNCH2C2H3CH4CHC2H5CH3CH4C2HCH4CH3CH5C2H8C2HSH3CH3CH10C3HCH3C2SH4C3H8C2HCH2C3H2CH2CH3CH4C2HCHC2S2CSFeSHFeS2FeSFeS3FeS2FeSHFeSFeS3FeS2FeS2FeSFeS3FeS2FeS2FeSFeS3FeS2FeSFeSFeCS3C6H4CHC3HCH5C3H2C6H4C5HCH2NH2CHC6H6C5H3C6H4CHCHC3FeH2C6H8CH2C3H2C6H4CNHNHSH2CHC2H5NC10HCH10CH13CH3NC9H20CSNC7H16NC12H34CH2SH2CH2CH2CHC2H4C2H2C2H3C2H2CH2NH8CH2CH2CH3FeH4CH3CH2C2H2CHCH4FeH6CH5CHC2HCH2C2H2CH3C3HCH2CH2CH4C2H2C2NHSH4C2HCHC2HNHC7HCHSH10C2HC2H2CHC2HCHC2H3C2H2CH2C2HCHCH4CH2CH3C4H4C2H2CH10NCH4CH10CH2CH4CHC2H5C4HCHCH10CH2CHCHCH6CHCH3CH8CH3C2H4FeCHCH3CHFeS2CH2FeS2FeS2FeHFeS3FeSHFeSCFeSFeS3FeS2FeSCFeSFeS3FeS2FeSHFeSFeS3FeS2FeSFeSFeS3HSC7H4C5HCHC3HSH2C8H4C2H3C7H4C6H4C7H3CH2CH2C5HC6H6CNC11H24CH4CSH14C3H10CH2NC4HC2H2CHCH8CH8CNH4CH4NC8HSHCH18CH4CH6CH3CH3CH5SHC4HCH2CH4FeNCNC2HC2HC4NH9CH3CH4C2HNH12CH2C2HNCH3CH2CH2CH3CHNCH3C2HCH6SC2H4SC2H2C3H7CHC2HCHSH2C2HCH2CHCHCH2CHCHCFeHC2HC3H4CHC2H5CH7C2HCH2C2NC2H7CHCH10CHCH2CH2SCHCH5SCH3C2HCH2C2H3C2H3NH6CHCHC2HSC2H2CH8C3H2CH3C2HCH4CNCHSCH4SCSHC3HSHCSHFeSCSCHCH2CHFeSHFeSCFeSHFeSHSH2C3H2CHCH4CH5NSH2CSH4C10H7C2H2CHCHCH13SH2CSH2CHFeHC2HSNC8HC2H3SH10CH4CH7FeCH4C2H2CH2C2H4CH3C2H2CHCHCHCHCHFeH4NCH3CH4CH5CH4FeCH4C2HCHSCHCFeSHSCHSH2SCH4FeS2FeCSHFeSHSHC2HC3H3C4H9C2H2NC2HCH3CH2CHCH2C6H4C2HSHC2H2CH3CH3CSHCH6CH2CH4CH4C3HC2HCHCHC3HC2SH3CH3NHFeH2CH5CH3C2H4NC5HC2HCH3CH12CH3CH2FeH3CHCHCH2CHFeH2SCHSH2CSHCHFeHNH2C3H3CHCH10C2SCFeS2FeSHFeSFeS3FeS2FeS2FeSFeS3FeS2FeS2FeSFeS3HC5H2CH2C6H4C6H2NHCH3CH2C2HC6H5CHC3H3C6H4CH2CH4C2H4CH3CHCHCH2C2H2NH2NC12H12CH4NH10NC12H28CH8C4H5CH3CHC3HCH3C2HCH3CHC2H2CHCHC3H5CH6NC3H3C2H2CH4NH4CH4CH4C2H4CH6CH9CHCH2CHCHCH7CHCHCH5C2H2CH5CSCFeCHCHC3H3C3NHCHSH3CSFeS2FeS2FeSFeS3FeS2FeSCFeHFeS3FeS2FeS2FeSFeS3H4C7H5NH8C6H4C3HC2H5CFeCH3C7H4C2NC8HC3H16CH12CNH2C2H5C2H2C2H2C2H2CH10CH2C3H2C2NCHCH6C3H2NCH3CH3CHCHCHCH5C2H6SC3H3CH2CH4CHCH5CH3CH8CHC2HC3NHCH5C4H2CH2CH3CH3CHCHCH5SH6C2HCHC3HCHCH6CHFeS2HFeHFeS2HCH6C2H2CH7CSH2CHNH2CH3C4HC2SH3CHCHFeS2FeSFeHSH3SH2C3H4C3HCH5C2SH4CHSC2H4C2H4CHCHCNH6NH2C5H2CH2C
_chemical_formula_sum              "Fe192 S384 H3072 C1728 N96"
_cell_length_a       88.5129
_cell_length_b       88.1017
_cell_length_c       47.1726
_cell_angle_alpha    87.548
_cell_angle_beta     87.5018
_cell_angle_gamma    108.226

_space_group_name_H-M_alt    "P 1"
_space_group_IT_number       1

loop_
  _space_group_symop_operation_xyz
  'x, y, z'

loop_
  _atom_site_type_symbol
  _atom_site_label
  _atom_site_symmetry_multiplicity
  _atom_site_fract_x
  _atom_site_fract_y
  _atom_site_fract_z
  _atom_site_occupancy
  Fe  Fe1       1.0  0.02900  0.43321  0.39030  1.0000
  S   S1        1.0  0.05214  0.43388  0.40972  1.0000
  S   S2        1.0  0.00867  0.40939  0.39227  1.0000
  S   S3        1.0  0.06299  0.47255  0.40161  1.0000
  Fe  Fe2       1.0  0.06422  0.45271  0.37389  1.0000
  Fe  Fe3       1.0  0.04901  0.45393  0.43543  1.0000
  S   S4        1.0  0.04119  0.45054  0.35323  1.0000
  S   S5        1.0  0.02554  0.45222  0.41711  1.0000
  H   H1        1.0  0.12030  0.46505  0.32239  1.0000
  C   C1        1.0  0.09629  0.46391  0.31347  1.0000
  C   C2        1.0  0.09346  0.47268  0.26458  1.0000
  C   C3        1.0  0.11272  0.46721  0.30636  1.0000
  Fe  Fe4       1.0  0.03962  0.46949  0.38258  1.0000
  C   C4        1.0  0.11950  0.47339  0.27879  1.0000
  C   C5        1.0  0.08672  0.46667  0.29222  1.0000
  S   S6        1.0  0.08857  0.45680  0.34920  1.0000
  C   C6        1.0  0.10992  0.47621  0.25756  1.0000
  H   H2        1.0  0.07407  0.46408  0.29703  1.0000
  H   H3        1.0  0.17728  0.48359  0.07197  1.0000
  H   H4        1.0  0.08582  0.47462  0.24845  1.0000
  S   S7        1.0  0.19932  0.49462  0.18219  1.0000
  H   H5        1.0  0.18972  0.47118  0.07087  1.0000
  H   H6        1.0  0.21063  0.48809  0.03734  1.0000
  H   H7        1.0  0.09892  0.48517  0.39759  1.0000
  H   H8        1.0  0.21729  0.48162  0.08454  1.0000
  H   H9        1.0  0.16351  0.45947  0.13918  1.0000
  C   C7        1.0  0.21588  0.49318  0.09088  1.0000
  H   H10       1.0  0.99915  0.43881  0.45998  1.0000
  H   H11       1.0  0.13211  0.47584  0.27391  1.0000
  H   H12       1.0  0.09044  0.49117  0.34604  1.0000
  S   S8        1.0  0.11768  0.48413  0.22214  1.0000
  H   H13       1.0  0.14616  0.47632  0.02963  1.0000
  H   H14       1.0  0.00277  0.48347  0.40127  1.0000
  H   H15       1.0  0.00999  0.42024  0.47614  1.0000
  C   C8        1.0  0.18787  0.48160  0.08143  1.0000
  H   H16       1.0  0.16663  0.45278  0.10445  1.0000
  H   H17       1.0  0.19151  0.47094  0.12268  1.0000
  H   H18       1.0  0.00865  0.47763  0.46590  1.0000
  H   H19       1.0  0.99317  0.42252  0.43682  1.0000
  H   H20       1.0  0.18235  0.48646  0.12555  1.0000
  C   C9        1.0  0.18289  0.47622  0.11314  1.0000
  H   H21       1.0  0.18425  0.48605  0.02392  1.0000
  H   H22       1.0  0.05009  0.49439  0.42130  1.0000
  H   H23       1.0  0.22893  0.48871  0.19230  1.0000
  H   H24       1.0  0.15721  0.46818  0.10845  1.0000
  C   C10       1.0  0.01683  0.48763  0.45211  1.0000
  H   H25       1.0  0.14804  0.48849  0.07658  1.0000
  C   C11       1.0  0.16655  0.46337  0.11635  1.0000
  C   C12       1.0  0.99573  0.48772  0.41742  1.0000
  H   H26       1.0  0.99528  0.39770  0.45297  1.0000
  H   H27       1.0  0.02292  0.48258  0.43576  1.0000
  H   H28       1.0  0.05259  0.49031  0.30096  1.0000
  S   S9        1.0  0.04515  0.45852  0.48264  1.0000
  S   S10       1.0  0.15515  0.49011  0.16084  1.0000
  H   H29       1.0  0.99183  0.43020  0.36725  1.0000
  C   C13       1.0  0.15028  0.48921  0.03051  1.0000
  S   S11       1.0  0.03291  0.49125  0.36966  1.0000
  H   H30       1.0  0.21318  0.49178  0.11431  1.0000
  H   H31       1.0  0.99573  0.37094  0.44354  1.0000
  H   H32       1.0  0.02601  0.49519  0.46533  1.0000
  Fe  Fe5       1.0  0.03388  0.43694  0.69945  1.0000
  S   S12       1.0  0.05831  0.43486  0.68964  1.0000
  S   S13       1.0  0.01212  0.41931  0.72355  1.0000
  H   H33       1.0  0.00163  0.46552  0.76357  1.0000
  Fe  Fe6       1.0  0.04510  0.47177  0.68013  1.0000
  Fe  Fe7       1.0  0.05849  0.44953  0.64891  1.0000
  S   S14       1.0  0.06770  0.44427  0.60556  1.0000
  Fe  Fe8       1.0  0.06855  0.45837  0.71051  1.0000
  S   S15       1.0  0.08766  0.45932  0.74352  1.0000
  S   S16       1.0  0.03343  0.44971  0.65760  1.0000
  S   S17       1.0  0.04398  0.45931  0.72280  1.0000
  C   C14       1.0  0.10027  0.47234  0.76751  1.0000
  C   C15       1.0  0.10923  0.46601  0.78599  1.0000
  C   C16       1.0  0.11932  0.47562  0.80536  1.0000
  H   H34       1.0  0.04108  0.40937  0.73986  1.0000
  H   H35       1.0  0.06533  0.40948  0.80542  1.0000
  H   H36       1.0  0.10826  0.45348  0.78549  1.0000
  H   H37       1.0  0.12571  0.47032  0.81967  1.0000
  H   H38       1.0  0.00338  0.42474  0.50998  1.0000
  C   C17       1.0  0.06108  0.44806  0.57156  1.0000
  C   C18       1.0  0.04852  0.45438  0.56850  1.0000
  C   C19       1.0  0.04393  0.45756  0.54114  1.0000
  C   C20       1.0  0.05167  0.45431  0.51647  1.0000
  C   C21       1.0  0.06412  0.44786  0.51954  1.0000
  C   C22       1.0  0.06881  0.44481  0.54691  1.0000
  H   H39       1.0  0.04235  0.45679  0.58721  1.0000
  H   H40       1.0  0.03424  0.46247  0.53903  1.0000
  H   H41       1.0  0.18209  0.48805  0.82476  1.0000
  H   H42       1.0  0.07850  0.43990  0.54898  1.0000
  C   C23       1.0  0.10020  0.48541  0.59907  1.0000
  H   H43       1.0  0.06178  0.49491  0.49361  1.0000
  H   H44       1.0  0.08961  0.49178  0.56258  1.0000
  C   C24       1.0  0.15878  0.45811  0.83704  1.0000
  C   C25       1.0  0.05211  0.40479  0.80860  1.0000
  H   H45       1.0  0.00212  0.46186  0.68555  1.0000
  H   H46       1.0  0.07118  0.40311  0.76240  1.0000
  H   H47       1.0  0.07171  0.45726  0.80467  1.0000
  H   H48       1.0  0.00365  0.40857  0.66630  1.0000
  H   H49       1.0  0.05703  0.38723  0.85567  1.0000
  H   H50       1.0  0.01401  0.47033  0.73099  1.0000
  H   H51       1.0  0.09785  0.48312  0.62243  1.0000
  C   C26       1.0  0.15932  0.47224  0.81660  1.0000
  C   C27       1.0  0.00276  0.41468  0.49603  1.0000
  H   H52       1.0  0.05625  0.49425  0.62190  1.0000
  C   C28       1.0  0.10163  0.48859  0.76893  1.0000
  C   C29       1.0  0.05773  0.38169  0.83513  1.0000
  H   H53       1.0  0.05367  0.36847  0.83916  1.0000
  H   H54       1.0  0.03476  0.38181  0.82339  1.0000
  C   C30       1.0  0.08667  0.49001  0.58582  1.0000
  H   H55       1.0  0.15406  0.48028  0.82818  1.0000
  S   S18       1.0  0.16177  0.48887  0.88767  1.0000
  C   C31       1.0  0.16526  0.46820  0.71443  1.0000
  H   H56       1.0  0.00125  0.43168  0.61730  1.0000
  H   H57       1.0  0.00538  0.45722  0.64102  1.0000
  H   H58       1.0  0.99878  0.38648  0.82118  1.0000
  S   S19       1.0  0.15250  0.48955  0.97176  1.0000
  H   H59       1.0  0.02518  0.47970  0.61652  1.0000
  H   H60       1.0  0.03488  0.40677  0.52725  1.0000
  H   H61       1.0  0.06062  0.38500  0.72459  1.0000
  H   H62       1.0  0.14642  0.45243  0.84626  1.0000
  H   H63       1.0  0.16075  0.46220  0.75893  1.0000
  H   H64       1.0  0.07018  0.44526  0.50085  1.0000
  H   H65       1.0  0.18319  0.47299  0.80175  1.0000
  S   S20       1.0  0.07039  0.47278  0.66878  1.0000
  H   H66       1.0  0.15155  0.46750  0.79923  1.0000
  C   C32       1.0  0.02683  0.40790  0.79197  1.0000
  H   H67       1.0  0.07032  0.38552  0.82652  1.0000
  H   H68       1.0  0.05793  0.46186  0.78117  1.0000
  C   C33       1.0  0.04715  0.38639  0.81391  1.0000
  C   C34       1.0  0.04847  0.43893  0.80565  1.0000
  C   C35       1.0  0.01515  0.39174  0.78352  1.0000
  H   H69       1.0  0.16256  0.44901  0.82562  1.0000
  H   H70       1.0  0.15392  0.45920  0.70930  1.0000
  H   H71       1.0  0.01914  0.38137  0.78908  1.0000
  H   H72       1.0  0.02465  0.40907  0.81509  1.0000
  H   H73       1.0  0.05851  0.40141  0.70251  1.0000
  H   H74       1.0  0.04901  0.43392  0.76123  1.0000
  C   C36       1.0  0.99350  0.40317  0.68109  1.0000
  C   C37       1.0  0.02832  0.41451  0.51810  1.0000
  H   H75       1.0  0.16672  0.46215  0.85470  1.0000
  C   C38       1.0  0.12089  0.49192  0.80647  1.0000
  H   H76       1.0  0.07802  0.40114  0.71137  1.0000
  C   C39       1.0  0.16369  0.47323  0.74476  1.0000
  H   H77       1.0  0.99419  0.39897  0.79358  1.0000
  H   H78       1.0  0.04086  0.39123  0.75724  1.0000
  H   H79       1.0  0.01398  0.39210  0.76015  1.0000
  H   H80       1.0  0.05546  0.46334  0.81896  1.0000
  H   H81       1.0  0.06554  0.43203  0.77931  1.0000
  H   H82       1.0  0.17498  0.46276  0.71217  1.0000
  H   H83       1.0  0.00784  0.44881  0.59238  1.0000
  H   H84       1.0  0.02702  0.42284  0.53436  1.0000
  C   C40       1.0  0.99855  0.38861  0.79785  1.0000
  H   H85       1.0  0.01468  0.49094  0.59714  1.0000
  H   H86       1.0  0.15362  0.47817  0.74571  1.0000
  H   H87       1.0  0.05034  0.43416  0.82685  1.0000
  H   H88       1.0  0.00560  0.39716  0.52889  1.0000
  H   H89       1.0  0.03590  0.43883  0.80545  1.0000
  C   C41       1.0  0.06447  0.40723  0.74610  1.0000
  H   H90       1.0  0.04812  0.38029  0.79418  1.0000
  C   C42       1.0  0.00352  0.46130  0.74226  1.0000
  H   H91       1.0  0.02265  0.41715  0.78087  1.0000
  C   C43       1.0  0.04689  0.40432  0.75674  1.0000
  H   H92       1.0  0.06727  0.48943  0.54293  1.0000
  H   H93       1.0  0.07569  0.47975  0.59034  1.0000
  C   C44       1.0  0.01201  0.40421  0.50955  1.0000
  C   C45       1.0  0.02564  0.48735  0.59698  1.0000
  C   C46       1.0  0.05904  0.45640  0.80231  1.0000
  H   H94       1.0  0.07056  0.42015  0.74052  1.0000
  C   C47       1.0  0.06540  0.39812  0.71953  1.0000
  C   C48       1.0  0.05234  0.42905  0.78137  1.0000
  H   H95       1.0  0.04943  0.40938  0.82915  1.0000
  H   H96       1.0  0.23484  0.48686  0.86825  1.0000
  C   C49       1.0  0.99436  0.45227  0.62979  1.0000
  H   H97       1.0  0.10105  0.47423  0.59005  1.0000
  H   H98       1.0  0.00603  0.44976  0.74511  1.0000
  N   N1        1.0  0.04443  0.41110  0.78480  1.0000
  C   C50       1.0  0.99780  0.44165  0.60720  1.0000
  C   C51       1.0  0.99447  0.40663  0.70978  1.0000
  S   S21       1.0  0.03442  0.49145  0.67371  1.0000
  H   H99       1.0  0.02599  0.48032  0.57810  1.0000
  H   H100      1.0  0.05441  0.48652  0.58807  1.0000
  C   C52       1.0  0.17667  0.48172  0.80588  1.0000
  H   H101      1.0  0.18817  0.47864  0.75375  1.0000
  C   C53       1.0  0.17947  0.48540  0.75304  1.0000
  H   H102      1.0  0.15407  0.49279  0.78146  1.0000
  H   H103      1.0  0.16772  0.47867  0.69894  1.0000
  H   H104      1.0  0.11175  0.49501  0.59445  1.0000
  H   H105      1.0  0.09485  0.49375  0.75512  1.0000
  H   H106      1.0  0.99372  0.44175  0.69858  1.0000
  H   H107      1.0  0.01424  0.39605  0.49376  1.0000
  H   H108      1.0  0.03551  0.42151  0.49924  1.0000
  H   H109      1.0  0.23453  0.48094  0.80277  1.0000
  H   H110      1.0  0.21118  0.49345  0.76737  1.0000
  H   H111      1.0  0.23899  0.47514  0.76794  1.0000
  H   H112      1.0  0.99169  0.46239  0.61866  1.0000
  C   C54       1.0  0.99096  0.45321  0.69561  1.0000
  H   H113      1.0  0.99192  0.37627  0.49556  1.0000
  N   N2        1.0  0.17894  0.49348  0.78049  1.0000
  H   H114      1.0  0.20835  0.49299  0.80539  1.0000
  H   H115      1.0  0.24075  0.46346  0.79951  1.0000
  H   H116      1.0  0.18408  0.49449  0.73500  1.0000
  Fe  Fe9       1.0  0.05648  0.58873  0.37123  1.0000
  S   S22       1.0  0.05762  0.58191  0.41715  1.0000
  S   S23       1.0  0.03326  0.58192  0.34846  1.0000
  Fe  Fe10      1.0  0.09330  0.60328  0.36099  1.0000
  S   S24       1.0  0.09684  0.59735  0.40698  1.0000
  S   S25       1.0  0.11663  0.61188  0.33201  1.0000
  Fe  Fe11      1.0  0.07803  0.57391  0.40234  1.0000
  S   S26       1.0  0.07946  0.55118  0.42354  1.0000
  Fe  Fe12      1.0  0.07619  0.60585  0.41889  1.0000
  S   S27       1.0  0.07501  0.62000  0.45779  1.0000
  S   S28       1.0  0.07582  0.57889  0.35593  1.0000
  S   S29       1.0  0.07375  0.61378  0.37338  1.0000
  H   H117      1.0  0.10764  0.63495  0.42334  1.0000
  Fe  Fe13      1.0  0.15736  0.51395  0.13853  1.0000
  S   S30       1.0  0.18039  0.52716  0.15756  1.0000
  S   S31       1.0  0.15729  0.52222  0.09159  1.0000
  C   C55       1.0  0.08470  0.50882  0.30507  1.0000
  S   S32       1.0  0.16467  0.50894  0.21952  1.0000
  H   H118      1.0  0.20947  0.68786  0.05786  1.0000
  Fe  Fe14      1.0  0.16530  0.53125  0.19405  1.0000
  S   S33       1.0  0.16838  0.55389  0.21726  1.0000
  C   C56       1.0  0.15426  0.49885  0.00494  1.0000
  H   H119      1.0  0.13330  0.67444  0.40230  1.0000
  S   S34       1.0  0.14248  0.52009  0.17359  1.0000
  C   C57       1.0  0.21201  0.54713  0.24053  1.0000
  Fe  Fe15      1.0  0.18053  0.66618  0.11928  1.0000
  S   S35       1.0  0.20434  0.66288  0.12370  1.0000
  S   S36       1.0  0.17250  0.67351  0.07662  1.0000
  Fe  Fe16      1.0  0.17076  0.65683  0.18369  1.0000
  S   S37       1.0  0.19444  0.65324  0.19194  1.0000
  S   S38       1.0  0.14839  0.65176  0.21471  1.0000
  Fe  Fe17      1.0  0.20583  0.67603  0.16401  1.0000
  C   C58       1.0  0.11063  0.50528  0.36750  1.0000
  Fe  Fe18      1.0  0.19130  0.64080  0.15101  1.0000
  S   S39       1.0  0.19633  0.61803  0.14039  1.0000
  S   S40       1.0  0.18235  0.68062  0.15831  1.0000
  S   S41       1.0  0.16726  0.64313  0.14381  1.0000
  C   C59       1.0  0.17566  0.66632  0.04287  1.0000
  C   C60       1.0  0.18546  0.65674  0.03899  1.0000
  H   H120      1.0  0.22558  0.58111  0.12535  1.0000
  H   H121      1.0  0.15950  0.60168  0.03200  1.0000
  C   C61       1.0  0.16825  0.67047  0.01922  1.0000
  H   H122      1.0  0.19139  0.65361  0.05686  1.0000
  C   C62       1.0  0.09591  0.50409  0.34998  1.0000
  H   H123      1.0  0.16067  0.67791  0.02194  1.0000
  C   C63       1.0  0.21430  0.57534  0.23180  1.0000
  H   H124      1.0  0.09141  0.59751  0.47588  1.0000
  H   H125      1.0  0.22786  0.58320  0.26952  1.0000
  H   H126      1.0  0.21648  0.50910  0.03829  1.0000
  H   H127      1.0  0.13439  0.67611  0.35037  1.0000
  H   H128      1.0  0.14951  0.66679  0.40358  1.0000
  C   C64       1.0  0.02592  0.58572  0.46728  1.0000
  H   H129      1.0  0.22823  0.73608  0.07454  1.0000
  H   H130      1.0  0.22168  0.72022  0.18612  1.0000
  C   C65       1.0  0.17570  0.57172  0.19579  1.0000
  C   C66       1.0  0.17665  0.58641  0.20724  1.0000
  C   C67       1.0  0.18266  0.60077  0.19031  1.0000
  C   C68       1.0  0.18824  0.60045  0.16223  1.0000
  C   C69       1.0  0.18756  0.58579  0.15105  1.0000
  C   C70       1.0  0.18107  0.57145  0.16763  1.0000
  H   H131      1.0  0.17276  0.58670  0.22919  1.0000
  H   H132      1.0  0.18327  0.61208  0.19908  1.0000
  H   H133      1.0  0.19198  0.58551  0.12941  1.0000
  H   H134      1.0  0.18032  0.56019  0.15862  1.0000
  C   C71       1.0  0.15636  0.51274  0.05871  1.0000
  C   C72       1.0  0.10269  0.55593  0.35199  1.0000
  C   C73       1.0  0.00522  0.52089  0.37646  1.0000
  H   H135      1.0  0.11506  0.52989  0.27269  1.0000
  C   C74       1.0  0.15952  0.51551  0.00649  1.0000
  C   C75       1.0  0.16046  0.52237  0.03316  1.0000
  H   H136      1.0  0.10444  0.64188  0.47803  1.0000
  H   H137      1.0  0.00264  0.56688  0.32610  1.0000
  C   C76       1.0  0.22995  0.73464  0.09753  1.0000
  H   H138      1.0  0.16435  0.53525  0.03400  1.0000
  H   H139      1.0  0.22057  0.54990  0.18322  1.0000
  H   H140      1.0  0.22043  0.52947  0.06988  1.0000
  C   C77       1.0  0.01452  0.57053  0.36536  1.0000
  C   C78       1.0  0.12528  0.62342  0.29966  1.0000
  C   C79       1.0  0.14091  0.62432  0.29025  1.0000
  C   C80       1.0  0.14815  0.63277  0.26441  1.0000
  C   C81       1.0  0.13991  0.64063  0.24753  1.0000
  C   C82       1.0  0.12427  0.63970  0.25696  1.0000
  C   C83       1.0  0.11698  0.63113  0.28269  1.0000
  H   H141      1.0  0.14747  0.61835  0.30300  1.0000
  H   H142      1.0  0.16015  0.63333  0.25763  1.0000
  H   H143      1.0  0.11771  0.64566  0.24418  1.0000
  H   H144      1.0  0.10493  0.63049  0.28928  1.0000
  C   C84       1.0  0.06565  0.53467  0.40982  1.0000
  C   C85       1.0  0.05748  0.53665  0.38594  1.0000
  C   C86       1.0  0.04743  0.52329  0.37370  1.0000
  C   C87       1.0  0.04496  0.50794  0.38599  1.0000
  C   C88       1.0  0.05249  0.50605  0.41078  1.0000
  C   C89       1.0  0.06305  0.51936  0.42238  1.0000
  H   H145      1.0  0.05909  0.54841  0.37650  1.0000
  H   H146      1.0  0.04177  0.52486  0.35446  1.0000
  C   C90       1.0  0.19254  0.49839  0.02527  1.0000
  H   H147      1.0  0.06915  0.51777  0.44111  1.0000
  C   C91       1.0  0.21527  0.57866  0.26385  1.0000
  C   C92       1.0  0.10429  0.65498  0.36864  1.0000
  C   C93       1.0  0.99238  0.50435  0.37521  1.0000
  H   H148      1.0  0.12393  0.51479  0.31693  1.0000
  N   N3        1.0  0.22057  0.56217  0.22221  1.0000
  H   H149      1.0  0.21345  0.51817  0.26645  1.0000
  H   H150      1.0  0.99608  0.55680  0.43063  1.0000
  H   H151      1.0  0.06627  0.50568  0.33990  1.0000
  C   C94       1.0  0.22121  0.70808  0.99108  1.0000
  H   H152      1.0  0.20352  0.55572  0.18996  1.0000
  C   C95       1.0  0.12592  0.64846  0.44981  1.0000
  C   C96       1.0  0.10568  0.49813  0.39785  1.0000
  H   H153      1.0  0.02056  0.54002  0.34792  1.0000
  C   C97       1.0  0.20743  0.52722  0.07228  1.0000
  H   H154      1.0  0.16461  0.58119  0.00228  1.0000
  H   H155      1.0  0.19293  0.51685  0.26099  1.0000
  H   H156      1.0  0.21328  0.60269  0.25820  1.0000
  H   H157      1.0  0.04435  0.50593  0.30953  1.0000
  C   C98       1.0  0.20458  0.54065  0.08890  1.0000
  H   H158      1.0  0.20908  0.56773  0.27755  1.0000
  H   H159      1.0  0.11589  0.56105  0.35058  1.0000
  C   C99       1.0  0.21856  0.71836  0.10892  1.0000
  H   H160      1.0  0.18563  0.50578  0.03423  1.0000
  H   H161      1.0  0.20054  0.51119  0.11032  1.0000
  H   H162      1.0  0.11830  0.51788  0.36838  1.0000
  C   C100      1.0  0.22126  0.57013  0.13975  1.0000
  C   C101      1.0  0.23185  0.50034  0.18111  1.0000
  H   H163      1.0  0.20839  0.59369  0.29386  1.0000
  H   H164      1.0  0.21420  0.68291  0.00812  1.0000
  H   H165      1.0  0.20312  0.52821  0.05076  1.0000
  H   H166      1.0  0.20263  0.50544  0.24042  1.0000
  C   C102      1.0  0.18747  0.65106  0.01203  1.0000
  H   H167      1.0  0.18555  0.50910  0.08602  1.0000
  H   H168      1.0  0.02262  0.57199  0.40765  1.0000
  H   H169      1.0  0.10208  0.53361  0.37256  1.0000
  H   H170      1.0  0.21761  0.80154  0.26993  1.0000
  C   C103      1.0  0.21179  0.69422  0.01258  1.0000
  H   H171      1.0  0.11039  0.65579  0.42203  1.0000
  H   H172      1.0  0.01651  0.50821  0.42677  1.0000
  H   H173      1.0  0.10103  0.53818  0.30739  1.0000
  H   H174      1.0  0.21122  0.55243  0.07802  1.0000
  H   H175      1.0  0.19171  0.53950  0.09036  1.0000
  H   H176      1.0  0.20877  0.54025  0.11063  1.0000
  C   C104      1.0  0.14832  0.63780  0.37093  1.0000
  H   H177      1.0  0.22207  0.70836  0.10022  1.0000
  H   H178      1.0  0.21412  0.52611  0.15309  1.0000
  H   H179      1.0  0.00053  0.52941  0.38765  1.0000
  H   H180      1.0  0.19491  0.64350  0.00932  1.0000
  C   C105      1.0  0.00767  0.49772  0.43800  1.0000
  H   H181      1.0  0.14312  0.63793  0.35008  1.0000
  C   C106      1.0  0.09752  0.53764  0.35304  1.0000
  S   S42       1.0  0.23145  0.69273  0.16829  1.0000
  C   C107      1.0  0.21949  0.50635  0.17364  1.0000
  N   N4        1.0  0.09926  0.51409  0.32223  1.0000
  H   H182      1.0  0.09820  0.55994  0.37165  1.0000
  H   H183      1.0  0.09820  0.50437  0.40891  1.0000
  H   H184      1.0  0.08684  0.50694  0.36388  1.0000
  C   C108      1.0  0.20738  0.59130  0.27098  1.0000
  C   C109      1.0  0.01097  0.52843  0.34654  1.0000
  H   H185      1.0  0.23603  0.50994  0.06414  1.0000
  H   H186      1.0  0.08687  0.51532  0.28382  1.0000
  C   C110      1.0  0.11630  0.64540  0.37043  1.0000
  H   H187      1.0  0.01582  0.52045  0.33392  1.0000
  H   H188      1.0  0.08437  0.53304  0.35529  1.0000
  H   H189      1.0  0.22917  0.70016  0.04513  1.0000
  H   H190      1.0  0.14874  0.66578  0.34778  1.0000
  C   C111      1.0  0.10422  0.53191  0.32607  1.0000
  H   H191      1.0  0.09780  0.56066  0.33356  1.0000
  H   H192      1.0  0.12306  0.64694  0.34959  1.0000
  H   H193      1.0  0.16831  0.68772  0.37123  1.0000
  C   C112      1.0  0.22345  0.52137  0.15911  1.0000
  H   H194      1.0  0.21896  0.71904  0.99851  1.0000
  H   H195      1.0  0.16017  0.62279  0.39295  1.0000
  C   C113      1.0  0.11268  0.51053  0.30577  1.0000
  H   H196      1.0  0.13258  0.55892  0.14270  1.0000
  H   H197      1.0  0.21846  0.71721  0.13243  1.0000
  C   C114      1.0  0.11701  0.64692  0.42185  1.0000
  H   H198      1.0  0.21581  0.61761  0.06000  1.0000
  H   H199      1.0  0.15366  0.69815  0.37428  1.0000
  C   C115      1.0  0.13333  0.51927  0.26381  1.0000
  H   H200      1.0  0.19953  0.54675  0.24642  1.0000
  H   H201      1.0  0.21786  0.54719  0.26099  1.0000
  N   N5        1.0  0.12097  0.58099  0.24370  1.0000
  C   C116      1.0  0.13602  0.58078  0.25740  1.0000
  C   C117      1.0  0.12517  0.59462  0.22126  1.0000
  C   C118      1.0  0.11007  0.58449  0.26631  1.0000
  C   C119      1.0  0.11225  0.56527  0.23140  1.0000
  C   C120      1.0  0.12250  0.55528  0.21937  1.0000
  C   C121      1.0  0.13352  0.56972  0.28481  1.0000
  C   C122      1.0  0.09499  0.58789  0.25581  1.0000
  C   C123      1.0  0.13641  0.59360  0.19589  1.0000
  C   C124      1.0  0.14238  0.60945  0.17827  1.0000
  C   C125      1.0  0.11207  0.54063  0.20534  1.0000
  C   C126      1.0  0.14887  0.56637  0.29212  1.0000
  C   C127      1.0  0.08309  0.58742  0.28054  1.0000
  H   H202      1.0  0.14292  0.59308  0.26312  1.0000
  H   H203      1.0  0.14416  0.57732  0.24236  1.0000
  H   H204      1.0  0.11434  0.59566  0.21137  1.0000
  H   H205      1.0  0.13053  0.60620  0.23128  1.0000
  H   H206      1.0  0.11671  0.59495  0.27798  1.0000
  H   H207      1.0  0.10587  0.57435  0.28266  1.0000
  H   H208      1.0  0.10367  0.55713  0.24770  1.0000
  H   H209      1.0  0.10473  0.56731  0.21423  1.0000
  H   H210      1.0  0.12847  0.55087  0.23658  1.0000
  H   H211      1.0  0.13193  0.56224  0.20348  1.0000
  H   H212      1.0  0.12973  0.57557  0.30302  1.0000
  H   H213      1.0  0.12419  0.55815  0.28249  1.0000
  H   H214      1.0  0.08886  0.57901  0.24071  1.0000
  H   H215      1.0  0.09832  0.60008  0.24513  1.0000
  H   H216      1.0  0.14705  0.59081  0.20271  1.0000
  H   H217      1.0  0.12986  0.58434  0.18173  1.0000
  H   H218      1.0  0.15045  0.60839  0.16034  1.0000
  H   H219      1.0  0.13229  0.61278  0.16961  1.0000
  H   H220      1.0  0.14921  0.61912  0.19149  1.0000
  H   H221      1.0  0.10662  0.54434  0.18658  1.0000
  H   H222      1.0  0.11945  0.53328  0.19808  1.0000
  H   H223      1.0  0.10252  0.53305  0.22064  1.0000
  H   H224      1.0  0.15280  0.55990  0.27499  1.0000
  H   H225      1.0  0.15850  0.57775  0.29488  1.0000
  H   H226      1.0  0.14680  0.55880  0.31224  1.0000
  H   H227      1.0  0.07875  0.57529  0.29147  1.0000
  H   H228      1.0  0.08869  0.59634  0.29602  1.0000
  H   H229      1.0  0.07267  0.59037  0.27250  1.0000
  N   N6        1.0  0.15952  0.60256  0.07780  1.0000
  C   C128      1.0  0.15963  0.59169  0.10335  1.0000
  C   C129      1.0  0.17578  0.61495  0.07271  1.0000
  C   C130      1.0  0.14778  0.61135  0.08509  1.0000
  C   C131      1.0  0.15458  0.59359  0.05132  1.0000
  C   C132      1.0  0.15902  0.57797  0.04808  1.0000
  C   C133      1.0  0.14306  0.58017  0.11455  1.0000
  C   C134      1.0  0.14772  0.62522  0.06377  1.0000
  C   C135      1.0  0.19001  0.60872  0.06624  1.0000
  C   C136      1.0  0.20575  0.62248  0.06330  1.0000
  C   C137      1.0  0.11638  0.51782  0.27468  1.0000
  C   C138      1.0  0.14460  0.56709  0.13549  1.0000
  C   C139      1.0  0.13344  0.63104  0.06996  1.0000
  H   H230      1.0  0.16479  0.59899  0.12136  1.0000
  H   H231      1.0  0.16761  0.58442  0.09925  1.0000
  H   H232      1.0  0.17594  0.62317  0.05411  1.0000
  H   H233      1.0  0.17854  0.62258  0.09129  1.0000
  H   H234      1.0  0.15006  0.61654  0.10625  1.0000
  H   H235      1.0  0.13540  0.60291  0.08704  1.0000
  H   H236      1.0  0.14141  0.59000  0.04983  1.0000
  H   H237      1.0  0.01568  0.51974  0.38701  1.0000
  H   H238      1.0  0.11014  0.49741  0.30494  1.0000
  C   C140      1.0  0.13618  0.63706  0.39601  1.0000
  H   H239      1.0  0.13623  0.58693  0.12598  1.0000
  H   H240      1.0  0.13592  0.57439  0.09694  1.0000
  H   H241      1.0  0.14751  0.62159  0.04151  1.0000
  H   H242      1.0  0.15849  0.63559  0.06591  1.0000
  H   H243      1.0  0.19107  0.60016  0.08332  1.0000
  H   H244      1.0  0.18874  0.60300  0.04564  1.0000
  H   H245      1.0  0.20591  0.63076  0.04483  1.0000
  H   H246      1.0  0.20160  0.57262  0.22671  1.0000
  H   H247      1.0  0.99802  0.49691  0.36265  1.0000
  H   H248      1.0  0.13511  0.52332  0.24094  1.0000
  H   H249      1.0  0.15139  0.56820  0.06293  1.0000
  H   H250      1.0  0.15069  0.57249  0.15441  1.0000
  H   H251      1.0  0.22631  0.74382  0.10887  1.0000
  H   H252      1.0  0.15141  0.55988  0.12533  1.0000
  H   H253      1.0  0.20114  0.52865  0.21123  1.0000
  H   H254      1.0  0.12210  0.62139  0.06722  1.0000
  H   H255      1.0  0.22364  0.78794  0.24801  1.0000
  H   H256      1.0  0.16321  0.62430  0.35471  1.0000
  H   H257      1.0  0.20608  0.51778  0.99497  1.0000
  C   C141      1.0  0.15437  0.62334  0.37269  1.0000
  H   H258      1.0  0.12751  0.62471  0.39828  1.0000
  H   H259      1.0  0.23754  0.74849  0.19288  1.0000
  H   H260      1.0  0.19885  0.69223  0.01178  1.0000
  C   C142      1.0  0.00124  0.56459  0.34894  1.0000
  H   H261      1.0  0.07066  0.52415  0.31819  1.0000
  C   C143      1.0  0.14432  0.67365  0.36122  1.0000
  H   H262      1.0  0.09228  0.64218  0.33318  1.0000
  H   H263      1.0  0.22133  0.53018  0.21721  1.0000
  H   H264      1.0  0.15918  0.56077  0.01653  1.0000
  H   H265      1.0  0.11743  0.53695  0.32656  1.0000
  H   H266      1.0  0.08865  0.66088  0.33886  1.0000
  H   H267      1.0  0.12842  0.63712  0.45529  1.0000
  H   H268      1.0  0.10975  0.66763  0.37372  1.0000
  H   H269      1.0  0.03337  0.59395  0.44991  1.0000
  C   C144      1.0  0.23954  0.53023  0.15216  1.0000
  H   H270      1.0  0.20764  0.62935  0.08273  1.0000
  H   H271      1.0  0.09401  0.64954  0.38422  1.0000
  Fe  Fe19      1.0  0.17787  0.50379  0.18082  1.0000
  H   H272      1.0  0.16120  0.69485  0.33975  1.0000
  C   C145      1.0  0.15769  0.68956  0.36180  1.0000
  C   C146      1.0  0.13869  0.66610  0.39182  1.0000
  H   H273      1.0  0.10799  0.51001  0.26048  1.0000
  H   H274      1.0  0.14325  0.63838  0.41514  1.0000
  H   H275      1.0  0.15882  0.64869  0.37166  1.0000
  N   N7        1.0  0.12729  0.64916  0.39453  1.0000
  H   H276      1.0  0.21312  0.70881  0.04903  1.0000
  H   H277      1.0  0.10905  0.63252  0.37224  1.0000
  C   C147      1.0  0.09783  0.65470  0.33906  1.0000
  H   H278      1.0  0.20624  0.71714  0.10299  1.0000
  C   C148      1.0  0.20443  0.51703  0.25034  1.0000
  H   H279      1.0  0.11645  0.49937  0.40993  1.0000
  C   C149      1.0  0.21014  0.53078  0.22756  1.0000
  H   H280      1.0  0.10756  0.66091  0.32291  1.0000
  H   H281      1.0  0.14435  0.61208  0.37118  1.0000
  C   C150      1.0  0.20640  0.49810  0.04414  1.0000
  C   C151      1.0  0.01254  0.56750  0.39484  1.0000
  H   H282      1.0  0.13349  0.63510  0.09195  1.0000
  C   C152      1.0  0.21670  0.55974  0.19155  1.0000
  H   H283      1.0  0.21795  0.58380  0.17441  1.0000
  H   H284      1.0  0.13418  0.64136  0.05497  1.0000
  C   C153      1.0  0.21625  0.69808  0.04295  1.0000
  H   H285      1.0  0.14222  0.52811  0.27570  1.0000
  H   H286      1.0  0.22079  0.58695  0.22008  1.0000
  H   H287      1.0  0.02151  0.57350  0.45938  1.0000
  H   H288      1.0  0.17151  0.57939  0.05269  1.0000
  H   H289      1.0  0.22802  0.56191  0.13387  1.0000
  H   H290      1.0  0.13737  0.65836  0.44782  1.0000
  C   C154      1.0  0.18001  0.65511  0.98844  1.0000
  H   H291      1.0  0.23219  0.51684  0.09840  1.0000
  C   C155      1.0  0.23239  0.50623  0.08676  1.0000
  C   C156      1.0  0.19864  0.50503  0.99500  1.0000
  H   H292      1.0  0.11369  0.66319  0.47121  1.0000
  C   C157      1.0  0.22382  0.57458  0.17050  1.0000
  H   H293      1.0  0.22634  0.78754  0.28586  1.0000
  C   C158      1.0  0.19849  0.51055  0.08720  1.0000
  C   C159      1.0  0.11598  0.65159  0.47486  1.0000
  C   C160      1.0  0.99746  0.55888  0.40777  1.0000
  H   H294      1.0  0.00105  0.53078  0.33541  1.0000
  C   C161      1.0  0.17049  0.66499  0.99210  1.0000
  C   C162      1.0  0.22671  0.79541  0.26661  1.0000
  H   H295      1.0  0.20841  0.56431  0.13676  1.0000
  H   H296      1.0  0.13544  0.50752  0.26608  1.0000
  H   H297      1.0  0.19454  0.58702  0.26663  1.0000
  H   H298      1.0  0.11787  0.49841  0.35759  1.0000
  C   C163      1.0  0.23452  0.72408  0.18264  1.0000
  H   H299      1.0  0.23683  0.57995  0.17237  1.0000
  H   H300      1.0  0.24063  0.56796  0.24894  1.0000
  C   C164      1.0  0.23829  0.56739  0.22598  1.0000
  C   C165      1.0  0.06931  0.51120  0.31804  1.0000
  H   H301      1.0  0.14398  0.57023  0.01268  1.0000
  H   H302      1.0  0.01563  0.58992  0.47287  1.0000
  Fe  Fe20      1.0  0.14207  0.49730  0.19811  1.0000
  H   H303      1.0  0.05740  0.50847  0.27805  1.0000
  H   H304      1.0  0.23417  0.71025  0.99337  1.0000
  C   C166      1.0  0.15652  0.57224  0.01802  1.0000
  C   C167      1.0  0.05510  0.50351  0.30043  1.0000
  H   H305      1.0  0.00155  0.50199  0.45543  1.0000
  H   H306      1.0  0.08198  0.49591  0.30090  1.0000
  C   C168      1.0  0.15139  0.49608  0.05721  1.0000
  N   N8        1.0  0.20232  0.49629  0.07579  1.0000
  H   H307      1.0  0.04616  0.58187  0.48581  1.0000
  Fe  Fe21      1.0  0.05692  0.59615  0.67071  1.0000
  S   S43       1.0  0.06384  0.57853  0.64448  1.0000
  S   S44       1.0  0.03054  0.59426  0.67480  1.0000
  Fe  Fe22      1.0  0.09161  0.61342  0.68620  1.0000
  S   S45       1.0  0.10030  0.59702  0.65937  1.0000
  S   S46       1.0  0.11295  0.63061  0.70740  1.0000
  Fe  Fe23      1.0  0.08385  0.59966  0.62589  1.0000
  S   S47       1.0  0.09204  0.59767  0.57982  1.0000
  Fe  Fe24      1.0  0.07973  0.57755  0.67977  1.0000
  S   S48       1.0  0.08576  0.55643  0.69820  1.0000
  S   S49       1.0  0.07651  0.61784  0.65067  1.0000
  S   S50       1.0  0.07134  0.59345  0.70792  1.0000
  H   H308      1.0  0.02385  0.59263  0.55955  1.0000
  H   H309      1.0  0.01222  0.49854  0.71835  1.0000
  S   S51       1.0  0.17772  0.52408  0.85348  1.0000
  Fe  Fe25      1.0  0.15275  0.50689  0.86392  1.0000
  C   C169      1.0  0.05581  0.49771  0.59899  1.0000
  S   S52       1.0  0.18556  0.51840  0.92033  1.0000
  C   C170      1.0  0.05007  0.57270  0.54054  1.0000
  Fe  Fe26      1.0  0.17490  0.53434  0.89549  1.0000
  S   S53       1.0  0.18114  0.55956  0.90976  1.0000
  Fe  Fe27      1.0  0.18647  0.50670  0.87934  1.0000
  C   C171      1.0  0.14253  0.55335  0.95372  1.0000
  S   S54       1.0  0.14960  0.51856  0.90467  1.0000
  H   H310      1.0  0.06438  0.51556  0.50005  1.0000
  Fe  Fe28      1.0  0.18003  0.65274  0.90838  1.0000
  S   S55       1.0  0.20394  0.65982  0.88420  1.0000
  S   S56       1.0  0.18273  0.64698  0.95542  1.0000
  Fe  Fe29      1.0  0.16230  0.65250  0.85215  1.0000
  S   S57       1.0  0.18532  0.66041  0.82545  1.0000
  S   S58       1.0  0.13751  0.64390  0.83354  1.0000
  Fe  Fe30      1.0  0.19191  0.64224  0.85287  1.0000
  S   S59       1.0  0.20199  0.62434  0.83298  1.0000
  Fe  Fe31      1.0  0.19533  0.67742  0.85964  1.0000
  S   S60       1.0  0.21097  0.70348  0.85035  1.0000
  S   S61       1.0  0.16866  0.63364  0.87843  1.0000
  S   S62       1.0  0.17160  0.67112  0.88477  1.0000
  C   C172      1.0  0.23069  0.71352  0.86007  1.0000
  C   C173      1.0  0.21736  0.68978  0.95118  1.0000
  H   H311      1.0  0.08110  0.50787  0.50153  1.0000
  H   H312      1.0  0.04055  0.59826  0.49915  1.0000
  H   H313      1.0  0.23091  0.73618  0.84057  1.0000
  H   H314      1.0  0.20566  0.49794  0.98518  1.0000
  H   H315      1.0  0.12661  0.60893  0.88028  1.0000
  H   H316      1.0  0.03479  0.57459  0.72982  1.0000
  C   C174      1.0  0.00108  0.51355  0.74109  1.0000
  H   H317      1.0  0.16841  0.50983  0.73616  1.0000
  C   C175      1.0  0.18733  0.57724  0.88759  1.0000
  C   C176      1.0  0.19258  0.57751  0.85909  1.0000
  C   C177      1.0  0.19725  0.59204  0.84232  1.0000
  C   C178      1.0  0.19655  0.60622  0.85399  1.0000
  C   C179      1.0  0.19141  0.60587  0.88249  1.0000
  C   C180      1.0  0.18688  0.59147  0.89921  1.0000
  H   H318      1.0  0.19318  0.56661  0.85013  1.0000
  H   H319      1.0  0.20137  0.59228  0.82033  1.0000
  H   H320      1.0  0.19123  0.61678  0.89193  1.0000
  H   H321      1.0  0.18303  0.59138  0.92133  1.0000
  H   H322      1.0  0.02972  0.56139  0.66560  1.0000
  H   H323      1.0  0.17015  0.69573  0.93631  1.0000
  C   C181      1.0  0.11943  0.63403  0.74276  1.0000
  C   C182      1.0  0.13577  0.64136  0.74660  1.0000
  C   C183      1.0  0.14153  0.64432  0.77404  1.0000
  C   C184      1.0  0.13100  0.64022  0.79822  1.0000
  C   C185      1.0  0.11464  0.63303  0.79437  1.0000
  C   C186      1.0  0.10888  0.62998  0.76693  1.0000
  H   H324      1.0  0.14404  0.64484  0.72814  1.0000
  H   H325      1.0  0.15409  0.65011  0.77642  1.0000
  H   H326      1.0  0.10629  0.62998  0.81276  1.0000
  H   H327      1.0  0.09626  0.62470  0.76443  1.0000
  C   C187      1.0  0.07108  0.53843  0.69261  1.0000
  C   C188      1.0  0.05676  0.53841  0.68115  1.0000
  C   C189      1.0  0.04543  0.52393  0.67544  1.0000
  C   C190      1.0  0.04830  0.50946  0.68172  1.0000
  C   C191      1.0  0.06242  0.50945  0.69387  1.0000
  C   C192      1.0  0.07385  0.52395  0.69919  1.0000
  H   H328      1.0  0.05438  0.54952  0.67681  1.0000
  H   H329      1.0  0.03452  0.52397  0.66600  1.0000
  C   C193      1.0  0.22478  0.51471  0.78623  1.0000
  H   H330      1.0  0.08485  0.52393  0.70831  1.0000
  C   C194      1.0  0.08705  0.60423  0.54637  1.0000
  C   C195      1.0  0.09174  0.59805  0.52167  1.0000
  H   H331      1.0  0.07481  0.55984  0.53772  1.0000
  C   C196      1.0  0.07491  0.61988  0.51641  1.0000
  C   C197      1.0  0.07861  0.61520  0.54361  1.0000
  H   H332      1.0  0.09837  0.58966  0.52351  1.0000
  H   H333      1.0  0.07517  0.62027  0.56235  1.0000
  N   N9        1.0  0.13137  0.58974  0.74897  1.0000
  C   C198      1.0  0.12874  0.59199  0.71782  1.0000
  C   C199      1.0  0.11796  0.59217  0.76733  1.0000
  C   C200      1.0  0.14669  0.60248  0.75512  1.0000
  C   C201      1.0  0.13323  0.57359  0.75625  1.0000
  C   C202      1.0  0.11927  0.55876  0.74949  1.0000
  C   C203      1.0  0.14197  0.59034  0.69659  1.0000
  C   C204      1.0  0.15020  0.60456  0.78697  1.0000
  C   C205      1.0  0.10102  0.58681  0.75599  1.0000
  C   C206      1.0  0.08830  0.58606  0.77948  1.0000
  C   C207      1.0  0.12357  0.54336  0.75388  1.0000
  C   C208      1.0  0.13763  0.59182  0.66585  1.0000
  C   C209      1.0  0.16641  0.61694  0.79039  1.0000
  H   H334      1.0  0.12743  0.60405  0.71341  1.0000
  H   H335      1.0  0.11736  0.58346  0.71178  1.0000
  H   H336      1.0  0.11736  0.58638  0.78894  1.0000
  H   H337      1.0  0.12036  0.60510  0.77066  1.0000
  H   H338      1.0  0.14677  0.61439  0.74591  1.0000
  H   H339      1.0  0.15716  0.60006  0.74470  1.0000
  H   H340      1.0  0.14440  0.57269  0.74578  1.0000
  H   H341      1.0  0.13471  0.57215  0.77934  1.0000
  H   H342      1.0  0.11602  0.55943  0.72717  1.0000
  H   H343      1.0  0.10872  0.55759  0.76403  1.0000
  H   H344      1.0  0.15340  0.59990  0.69889  1.0000
  H   H345      1.0  0.14378  0.57851  0.69985  1.0000
  H   H346      1.0  0.15040  0.59321  0.79758  1.0000
  H   H347      1.0  0.14116  0.60875  0.79843  1.0000
  H   H348      1.0  0.10032  0.59559  0.73887  1.0000
  H   H349      1.0  0.09793  0.57494  0.74702  1.0000
  H   H350      1.0  0.09079  0.59774  0.78935  1.0000
  H   H351      1.0  0.07644  0.58314  0.77035  1.0000
  H   H352      1.0  0.08788  0.57661  0.79612  1.0000
  H   H353      1.0  0.12677  0.54177  0.77607  1.0000
  H   H354      1.0  0.11317  0.53293  0.74954  1.0000
  H   H355      1.0  0.13367  0.54353  0.73894  1.0000
  H   H356      1.0  0.14739  0.59085  0.65117  1.0000
  H   H357      1.0  0.12657  0.58208  0.66183  1.0000
  H   H358      1.0  0.13590  0.60362  0.66118  1.0000
  H   H359      1.0  0.16715  0.62862  0.77962  1.0000
  H   H360      1.0  0.16814  0.61877  0.81334  1.0000
  H   H361      1.0  0.17614  0.61275  0.78154  1.0000
  H   H362      1.0  0.22970  0.53714  0.91247  1.0000
  H   H363      1.0  0.15436  0.52972  0.74107  1.0000
  C   C210      1.0  0.04240  0.59229  0.58808  1.0000
  H   H364      1.0  0.99291  0.53021  0.71568  1.0000
  H   H365      1.0  0.02882  0.60735  0.60381  1.0000
  C   C211      1.0  0.04145  0.60782  0.60007  1.0000
  H   H366      1.0  0.11944  0.60879  0.84515  1.0000
  H   H367      1.0  0.23013  0.67801  0.83932  1.0000
  S   S63       1.0  0.20696  0.49704  0.86732  1.0000
  H   H368      1.0  0.02090  0.54932  0.55345  1.0000
  H   H369      1.0  0.00721  0.53637  0.66301  1.0000
  H   H370      1.0  0.11274  0.51073  0.78875  1.0000
  H   H371      1.0  0.10756  0.59484  0.87269  1.0000
  C   C212      1.0  0.23050  0.73626  0.94851  1.0000
  H   H372      1.0  0.17583  0.71729  0.93824  1.0000
  H   H373      1.0  0.19693  0.69843  0.91408  1.0000
  H   H374      1.0  0.99652  0.58765  0.67498  1.0000
  C   C213      1.0  0.23305  0.52466  0.85874  1.0000
  N   N10       1.0  0.03377  0.57448  0.54539  1.0000
  C   C214      1.0  0.22637  0.66040  0.79238  1.0000
  C   C215      1.0  0.07939  0.61347  0.49178  1.0000
  H   H375      1.0  0.15261  0.56442  0.95616  1.0000
  H   H376      1.0  0.03036  0.55861  0.58327  1.0000
  H   H377      1.0  0.02479  0.57624  0.76303  1.0000
  H   H378      1.0  0.07576  0.55867  0.59770  1.0000
  H   H379      1.0  0.00037  0.55410  0.78059  1.0000
  C   C216      1.0  0.99705  0.54612  0.59119  1.0000
  H   H380      1.0  0.22202  0.68862  0.79803  1.0000
  H   H381      1.0  0.07320  0.56731  0.50193  1.0000
  C   C217      1.0  0.15289  0.52027  0.75823  1.0000
  H   H382      1.0  0.01268  0.52136  0.74766  1.0000
  H   H383      1.0  0.08463  0.50416  0.62144  1.0000
  H   H384      1.0  0.23496  0.51036  0.79097  1.0000
  H   H385      1.0  0.22456  0.53121  0.85810  1.0000
  H   H386      1.0  0.03880  0.50953  0.61398  1.0000
  N   N11       1.0  0.13468  0.56356  0.87517  1.0000
  C   C218      1.0  0.14692  0.56756  0.85034  1.0000
  C   C219      1.0  0.12920  0.57783  0.88135  1.0000
  C   C220      1.0  0.14284  0.55996  0.90084  1.0000
  C   C221      1.0  0.12068  0.54897  0.87070  1.0000
  C   C222      1.0  0.11241  0.54894  0.84241  1.0000
  C   C223      1.0  0.15353  0.55390  0.84165  1.0000
  H   H387      1.0  0.21560  0.65920  0.80645  1.0000
  C   C224      1.0  0.12833  0.58905  0.85567  1.0000
  C   C225      1.0  0.11995  0.60108  0.86412  1.0000
  C   C226      1.0  0.10046  0.53248  0.83839  1.0000
  C   C227      1.0  0.16270  0.55793  0.81264  1.0000
  H   H388      1.0  0.03539  0.56169  0.76014  1.0000
  H   H389      1.0  0.15731  0.57804  0.85492  1.0000
  H   H390      1.0  0.14211  0.57144  0.83113  1.0000
  H   H391      1.0  0.11735  0.57384  0.89329  1.0000
  H   H392      1.0  0.13739  0.58588  0.89569  1.0000
  H   H393      1.0  0.15358  0.57032  0.90413  1.0000
  H   H394      1.0  0.14727  0.54969  0.89748  1.0000
  H   H395      1.0  0.12422  0.53790  0.87276  1.0000
  H   H396      1.0  0.11119  0.54725  0.88791  1.0000
  H   H397      1.0  0.12099  0.55177  0.82369  1.0000
  H   H398      1.0  0.10571  0.55767  0.84259  1.0000
  H   H399      1.0  0.16183  0.55205  0.85737  1.0000
  H   H400      1.0  0.14393  0.54239  0.84016  1.0000
  H   H401      1.0  0.12259  0.54451  0.92826  1.0000
  H   H402      1.0  0.17468  0.70853  0.90421  1.0000
  H   H403      1.0  0.14060  0.59605  0.84744  1.0000
  H   H404      1.0  0.12192  0.58231  0.83827  1.0000
  Fe  Fe32      1.0  0.16054  0.50207  0.92751  1.0000
  H   H405      1.0  0.22350  0.52272  0.80307  1.0000
  H   H406      1.0  0.00360  0.54185  0.60765  1.0000
  H   H407      1.0  0.09117  0.52900  0.85617  1.0000
  H   H408      1.0  0.09455  0.53279  0.81817  1.0000
  H   H409      1.0  0.10662  0.52326  0.83734  1.0000
  H   H410      1.0  0.17202  0.56981  0.81215  1.0000
  H   H411      1.0  0.16855  0.54873  0.80832  1.0000
  H   H412      1.0  0.15446  0.55800  0.79561  1.0000
  C   C228      1.0  0.08708  0.53990  0.59833  1.0000
  H   H413      1.0  0.01006  0.53948  0.77753  1.0000
  C   C229      1.0  0.05050  0.55727  0.52626  1.0000
  H   H414      1.0  0.21524  0.68872  0.92819  1.0000
  C   C230      1.0  0.08499  0.55524  0.60926  1.0000
  H   H415      1.0  0.99316  0.49835  0.70574  1.0000
  C   C231      1.0  0.00750  0.56198  0.57655  1.0000
  C   C232      1.0  0.22931  0.71881  0.94207  1.0000
  C   C233      1.0  0.04032  0.50223  0.59605  1.0000
  H   H416      1.0  0.04781  0.61829  0.58540  1.0000
  C   C234      1.0  0.08501  0.50554  0.59775  1.0000
  H   H417      1.0  0.04708  0.60948  0.62070  1.0000
  H   H418      1.0  0.23139  0.68885  0.76375  1.0000
  H   H419      1.0  0.09077  0.54215  0.57535  1.0000
  H   H420      1.0  0.08154  0.55364  0.63238  1.0000
  C   C235      1.0  0.06809  0.50503  0.50643  1.0000
  H   H421      1.0  0.14743  0.54340  0.94974  1.0000
  C   C236      1.0  0.99888  0.57647  0.67203  1.0000
  H   H422      1.0  0.23131  0.66038  0.74606  1.0000
  H   H423      1.0  0.12244  0.65199  0.49462  1.0000
  C   C237      1.0  0.23890  0.49974  0.86439  1.0000
  H   H424      1.0  0.03590  0.58233  0.60359  1.0000
  H   H425      1.0  0.22179  0.66056  0.96867  1.0000
  N   N12       1.0  0.21715  0.70591  0.96046  1.0000
  C   C238      1.0  0.23734  0.71922  0.78031  1.0000
  C   C239      1.0  0.22610  0.53167  0.93436  1.0000
  H   H426      1.0  0.05513  0.59293  0.58671  1.0000
  H   H427      1.0  0.21910  0.53846  0.94519  1.0000
  C   C240      1.0  0.21006  0.64090  0.75863  1.0000
  H   H428      1.0  0.14197  0.51022  0.75485  1.0000
  H   H429      1.0  0.09638  0.56521  0.60588  1.0000
  H   H430      1.0  0.23430  0.69314  0.88186  1.0000
  C   C241      1.0  0.16749  0.51452  0.75738  1.0000
  H   H431      1.0  0.23755  0.68845  0.97661  1.0000
  C   C242      1.0  0.16618  0.50156  0.78153  1.0000
  C   C243      1.0  0.20055  0.70690  0.95753  1.0000
  H   H432      1.0  0.21872  0.73821  0.94826  1.0000
  C   C244      1.0  0.02576  0.57439  0.51773  1.0000
  C   C245      1.0  0.03550  0.59026  0.55830  1.0000
  C   C246      1.0  0.02366  0.56062  0.56477  1.0000
  H   H433      1.0  0.06163  0.52998  0.59735  1.0000
  C   C247      1.0  0.23302  0.68575  0.95529  1.0000
  H   H434      1.0  0.06761  0.54615  0.51023  1.0000
  H   H435      1.0  0.22705  0.71719  0.91927  1.0000
  H   H436      1.0  0.06680  0.52387  0.55160  1.0000
  C   C248      1.0  0.17795  0.70741  0.92650  1.0000
  C   C249      1.0  0.07153  0.52553  0.60369  1.0000
  H   H437      1.0  0.08484  0.51929  0.54889  1.0000
  H   H438      1.0  0.23439  0.71829  0.75767  1.0000
  H   H439      1.0  0.09645  0.51495  0.59109  1.0000
  H   H440      1.0  0.01656  0.54761  0.72511  1.0000
  H   H441      1.0  0.04355  0.60029  0.54439  1.0000
  H   H442      1.0  0.19929  0.63832  0.77330  1.0000
  H   H443      1.0  0.12761  0.56551  0.93467  1.0000
  H   H444      1.0  0.21636  0.63209  0.76362  1.0000
  H   H445      1.0  0.04070  0.50939  0.57596  1.0000
  H   H446      1.0  0.20622  0.63950  0.73653  1.0000
  H   H447      1.0  0.06453  0.49829  0.69934  1.0000
  H   H448      1.0  0.21839  0.51908  0.93321  1.0000
  H   H449      1.0  0.23022  0.64991  0.79868  1.0000
  C   C250      1.0  0.01763  0.56178  0.66664  1.0000
  H   H450      1.0  0.09689  0.53759  0.60986  1.0000
  C   C251      1.0  0.06760  0.55771  0.51871  1.0000
  C   C252      1.0  0.06389  0.50027  0.53804  1.0000
  C   C253      1.0  0.00480  0.54757  0.66530  1.0000
  H   H451      1.0  0.05809  0.58326  0.52778  1.0000
  H   H452      1.0  0.02157  0.56210  0.50992  1.0000
  C   C254      1.0  0.19545  0.70825  0.92667  1.0000
  C   C255      1.0  0.22094  0.65798  0.76159  1.0000
  C   C256      1.0  0.01476  0.57631  0.67045  1.0000
  C   C257      1.0  0.23768  0.72991  0.85212  1.0000
  N   N13       1.0  0.07103  0.51056  0.58867  1.0000
  H   H453      1.0  0.20260  0.71981  0.91562  1.0000
  H   H454      1.0  0.06959  0.52283  0.62717  1.0000
  C   C258      1.0  0.23960  0.70562  0.87506  1.0000
  C   C259      1.0  0.13257  0.55581  0.92931  1.0000
  H   H455      1.0  0.00944  0.57124  0.59246  1.0000
  H   H456      1.0  0.01476  0.57779  0.52107  1.0000
  C   C260      1.0  0.07212  0.51426  0.55684  1.0000
  C   C261      1.0  0.23050  0.66797  0.95187  1.0000
  H   H457      1.0  0.05584  0.57265  0.56103  1.0000
  H   H458      1.0  0.15143  0.52532  0.77896  1.0000
  H   H459      1.0  0.06860  0.62856  0.51445  1.0000
  C   C262      1.0  0.22764  0.50803  0.86387  1.0000
  H   H460      1.0  0.04413  0.55564  0.50634  1.0000
  S   S64       1.0  0.13410  0.50503  0.82962  1.0000
  C   C263      1.0  0.02782  0.56768  0.74897  1.0000
  C   C264      1.0  0.23364  0.68952  0.78670  1.0000
  H   H461      1.0  0.22751  0.52169  0.76544  1.0000
  H   H462      1.0  0.19426  0.51374  0.80083  1.0000
  C   C265      1.0  0.01272  0.55535  0.73987  1.0000
  H   H463      1.0  0.23530  0.73910  0.96968  1.0000
  H   H464      1.0  0.19159  0.69613  0.96827  1.0000
  C   C266      1.0  0.00441  0.50597  0.71397  1.0000
  H   H465      1.0  0.19758  0.51475  0.76316  1.0000
  H   H466      1.0  0.17804  0.52517  0.75958  1.0000
  H   H467      1.0  0.01060  0.51542  0.69732  1.0000
  H   H468      1.0  0.21392  0.66603  0.75594  1.0000
  N   N14       1.0  0.23930  0.67586  0.79705  1.0000
  H   H469      1.0  0.16267  0.52312  0.98711  1.0000
  H   H470      1.0  0.23664  0.52837  0.97314  1.0000
  H   H471      1.0  0.20726  0.68005  0.96205  1.0000
  H   H472      1.0  0.23248  0.65201  0.84728  1.0000
  H   H473      1.0  0.22594  0.66444  0.93082  1.0000
  H   H474      1.0  0.00068  0.56521  0.55944  1.0000
  H   H475      1.0  0.00592  0.56194  0.72809  1.0000
  H   H476      1.0  0.22627  0.71769  0.79370  1.0000
  H   H477      1.0  0.04493  0.54660  0.54097  1.0000
  H   H478      1.0  0.05074  0.49684  0.54129  1.0000
  H   H479      1.0  0.19888  0.71716  0.96880  1.0000
  H   H480      1.0  0.16458  0.66813  0.97422  1.0000
  H   H481      1.0  0.99325  0.53685  0.57546  1.0000
  H   H482      1.0  0.16618  0.50731  0.80210  1.0000
  H   H483      1.0  0.99605  0.50378  0.75781  1.0000
  H   H484      1.0  0.18835  0.50432  0.98188  1.0000
  C   C267      1.0  0.19480  0.50636  0.78237  1.0000
  C   C268      1.0  0.11184  0.49824  0.78815  1.0000
  C   C269      1.0  0.00252  0.54535  0.76587  1.0000
  C   C270      1.0  0.08777  0.60247  0.49460  1.0000
  H   H485      1.0  0.13499  0.55025  0.97387  1.0000
  C   C271      1.0  0.03588  0.58573  0.49293  1.0000
  H   H486      1.0  0.23675  0.74681  0.90533  1.0000
  C   C272      1.0  0.24078  0.53237  0.95071  1.0000
  C   C273      1.0  0.20954  0.50051  0.78545  1.0000
  H   H487      1.0  0.46989  0.40573  0.48216  1.0000
  H   H488      1.0  0.45810  0.34191  0.22740  1.0000
  Fe  Fe33      1.0  0.40753  0.47432  0.36912  1.0000
  S   S65       1.0  0.38146  0.46058  0.36767  1.0000
  S   S66       1.0  0.42846  0.46549  0.37896  1.0000
  H   H489      1.0  0.46218  0.47519  0.45721  1.0000
  C   C274      1.0  0.47014  0.48738  0.31764  1.0000
  Fe  Fe34      1.0  0.37774  0.47497  0.40429  1.0000
  S   S67       1.0  0.36364  0.46468  0.44629  1.0000
  H   H490      1.0  0.48205  0.18764  0.03313  1.0000
  S   S68       1.0  0.40359  0.48760  0.40678  1.0000
  Fe  Fe35      1.0  0.46549  0.39721  0.36197  1.0000
  S   S69       1.0  0.45221  0.37184  0.37691  1.0000
  S   S70       1.0  0.45261  0.40987  0.33338  1.0000
  H   H491      1.0  0.37732  0.43712  0.42671  1.0000
  Fe  Fe36      1.0  0.47501  0.36659  0.36462  1.0000
  S   S71       1.0  0.47378  0.34414  0.34061  1.0000
  Fe  Fe37      1.0  0.46225  0.37853  0.41946  1.0000
  S   S72       1.0  0.44712  0.37623  0.46089  1.0000
  H   H492      1.0  0.48032  0.02156  0.31657  1.0000
  S   S73       1.0  0.47425  0.40424  0.40484  1.0000
  H   H493      1.0  0.43909  0.04202  0.45421  1.0000
  H   H494      1.0  0.42604  0.37704  0.24351  1.0000
  Fe  Fe38      1.0  0.46180  0.06703  0.35512  1.0000
  S   S74       1.0  0.46257  0.04382  0.33716  1.0000
  S   S75       1.0  0.46181  0.09001  0.32955  1.0000
  Fe  Fe39      1.0  0.46822  0.05695  0.41655  1.0000
  S   S76       1.0  0.46985  0.03394  0.40085  1.0000
  H   H495      1.0  0.47559  0.01747  0.25294  1.0000
  H   H496      1.0  0.42515  0.49383  0.46221  1.0000
  Fe  Fe40      1.0  0.44798  0.03149  0.37707  1.0000
  S   S77       1.0  0.43493  0.00501  0.38920  1.0000
  H   H497      1.0  0.43584  0.45668  0.44818  1.0000
  S   S78       1.0  0.44558  0.05437  0.39411  1.0000
  H   H498      1.0  0.42319  0.05684  0.48013  1.0000
  H   H499      1.0  0.46272  0.47466  0.35881  1.0000
  C   C275      1.0  0.46786  0.36912  0.25748  1.0000
  C   C276      1.0  0.48257  0.12355  0.26430  1.0000
  S   S79       1.0  0.48393  0.07107  0.37931  1.0000
  Fe  Fe41      1.0  0.48393  0.04760  0.36301  1.0000
  C   C277      1.0  0.39110  0.41399  0.40746  1.0000
  C   C278      1.0  0.40778  0.40434  0.45678  1.0000
  C   C279      1.0  0.47017  0.09902  0.29512  1.0000
  H   H500      1.0  0.44357  0.36224  0.22347  1.0000
  H   H501      1.0  0.42607  0.35471  0.31480  1.0000
  H   H502      1.0  0.47670  0.24134  0.24344  1.0000
  H   H503      1.0  0.38581  0.42203  0.33592  1.0000
  C   C280      1.0  0.45893  0.42344  0.47169  1.0000
  H   H504      1.0  0.47963  0.46141  0.33988  1.0000
  C   C281      1.0  0.46889  0.48594  0.44347  1.0000
  C   C282      1.0  0.48104  0.11466  0.24004  1.0000
  H   H505      1.0  0.46884  0.25730  0.21551  1.0000
  C   C283      1.0  0.36098  0.41372  0.44104  1.0000
  H   H506      1.0  0.41150  0.39092  0.27247  1.0000
  H   H507      1.0  0.46233  0.31645  0.30999  1.0000
  C   C284      1.0  0.38769  0.41465  0.35432  1.0000
  C   C285      1.0  0.35916  0.49137  0.27752  1.0000
  H   H508      1.0  0.47150  0.36257  0.47863  1.0000
  H   H509      1.0  0.47236  0.35873  0.25529  1.0000
  C   C286      1.0  0.42651  0.03572  0.46155  1.0000
  H   H510      1.0  0.41905  0.38971  0.48071  1.0000
  H   H511      1.0  0.34776  0.42969  0.42769  1.0000
  H   H512      1.0  0.48198  0.00361  0.34941  1.0000
  C   C287      1.0  0.42784  0.37717  0.26669  1.0000
  H   H513      1.0  0.47132  0.30697  0.26602  1.0000
  H   H514      1.0  0.40258  0.41179  0.40201  1.0000
  C   C288      1.0  0.43306  0.44853  0.36744  1.0000
  C   C289      1.0  0.42802  0.44167  0.34192  1.0000
  C   C290      1.0  0.43385  0.42960  0.33185  1.0000
  C   C291      1.0  0.44444  0.42406  0.34754  1.0000
  C   C292      1.0  0.44884  0.43042  0.37368  1.0000
  C   C293      1.0  0.44327  0.44265  0.38345  1.0000
  H   H515      1.0  0.42023  0.44616  0.32931  1.0000
  H   H516      1.0  0.43038  0.42474  0.31158  1.0000
  H   H517      1.0  0.45695  0.42627  0.38595  1.0000
  H   H518      1.0  0.44712  0.44772  0.40335  1.0000
  C   C294      1.0  0.47696  0.11581  0.29147  1.0000
  H   H519      1.0  0.39734  0.43535  0.37799  1.0000
  H   H520      1.0  0.36066  0.48102  0.23731  1.0000
  H   H521      1.0  0.38196  0.40192  0.40902  1.0000
  C   C295      1.0  0.44538  0.37833  0.27174  1.0000
  H   H522      1.0  0.46987  0.27407  0.23692  1.0000
  C   C296      1.0  0.42540  0.45955  0.45751  1.0000
  H   H523      1.0  0.37620  0.42567  0.38422  1.0000
  C   C297      1.0  0.38790  0.42361  0.38141  1.0000
  H   H524      1.0  0.46355  0.07724  0.27309  1.0000
  H   H525      1.0  0.45460  0.36066  0.31128  1.0000
  C   C298      1.0  0.46901  0.09010  0.27094  1.0000
  H   H526      1.0  0.41937  0.05521  0.44301  1.0000
  C   C299      1.0  0.40631  0.43658  0.43381  1.0000
  H   H527      1.0  0.45371  0.46374  0.31191  1.0000
  H   H528      1.0  0.34804  0.42663  0.46578  1.0000
  C   C300      1.0  0.47419  0.09787  0.24369  1.0000
  H   H529      1.0  0.45187  0.07109  0.48327  1.0000
  H   H530      1.0  0.48023  0.48361  0.30922  1.0000
  S   S80       1.0  0.48748  0.12370  0.20482  1.0000
  N   N15       1.0  0.48523  0.49319  0.36377  1.0000
  H   H531      1.0  0.44423  0.47910  0.31587  1.0000
  C   C301      1.0  0.41112  0.44436  0.46233  1.0000
  H   H532      1.0  0.46973  0.37550  0.23605  1.0000
  H   H533      1.0  0.47925  0.29261  0.19385  1.0000
  H   H534      1.0  0.39920  0.41233  0.35024  1.0000
  C   C302      1.0  0.35626  0.48938  0.24854  1.0000
  H   H535      1.0  0.45343  0.00387  0.31135  1.0000
  H   H536      1.0  0.46185  0.00160  0.35916  1.0000
  C   C303      1.0  0.42376  0.39154  0.27787  1.0000
  H   H537      1.0  0.35955  0.40792  0.42050  1.0000
  H   H538      1.0  0.42230  0.32622  0.22067  1.0000
  H   H539      1.0  0.46047  0.47545  0.40492  1.0000
  H   H540      1.0  0.40121  0.44764  0.47268  1.0000
  H   H541      1.0  0.45388  0.34392  0.29162  1.0000
  H   H542      1.0  0.48766  0.03493  0.26933  1.0000
  H   H543      1.0  0.47280  0.09080  0.22522  1.0000
  H   H544      1.0  0.47521  0.39028  0.28382  1.0000
  H   H545      1.0  0.44367  0.33051  0.25479  1.0000
  H   H546      1.0  0.48506  0.00390  0.40218  1.0000
  H   H547      1.0  0.49077  0.20735  0.26481  1.0000
  H   H548      1.0  0.43766  0.33969  0.34865  1.0000
  C   C304      1.0  0.48173  0.33853  0.30859  1.0000
  N   N16       1.0  0.39186  0.42183  0.43543  1.0000
  H   H549      1.0  0.42255  0.46832  0.44279  1.0000
  S   S81       1.0  0.40650  0.49410  0.33808  1.0000
  H   H550      1.0  0.42081  0.02761  0.44506  1.0000
  C   C305      1.0  0.38870  0.47304  0.48199  1.0000
  C   C306      1.0  0.43506  0.33016  0.21305  1.0000
  H   H551      1.0  0.39646  0.47454  0.46314  1.0000
  C   C307      1.0  0.37220  0.46793  0.47983  1.0000
  H   H552      1.0  0.38237  0.39888  0.45879  1.0000
  H   H553      1.0  0.45076  0.02304  0.45865  1.0000
  H   H554      1.0  0.45269  0.38867  0.25744  1.0000
  H   H555      1.0  0.41687  0.43408  0.42396  1.0000
  C   C308      1.0  0.46328  0.99920  0.30435  1.0000
  S   S82       1.0  0.47598  0.05683  0.46245  1.0000
  C   C309      1.0  0.44556  0.33898  0.23589  1.0000
  Fe  Fe42      1.0  0.38001  0.48148  0.33890  1.0000
  S   S83       1.0  0.48358  0.37063  0.40904  1.0000
  C   C310      1.0  0.48350  0.28375  0.31040  1.0000
  C   C311      1.0  0.37734  0.42695  0.44162  1.0000
  C   C312      1.0  0.47528  0.01197  0.47465  1.0000
  H   H556      1.0  0.42839  0.35049  0.24807  1.0000
  H   H557      1.0  0.41922  0.36621  0.27714  1.0000
  H   H558      1.0  0.47325  0.21314  0.25928  1.0000
  H   H559      1.0  0.48768  0.13644  0.26207  1.0000
  H   H560      1.0  0.48956  0.42983  0.45390  1.0000
  H   H561      1.0  0.40651  0.00041  0.35555  1.0000
  H   H562      1.0  0.48749  0.20875  0.99322  1.0000
  H   H563      1.0  0.48902  0.44128  0.48400  1.0000
  C   C313      1.0  0.43033  0.33356  0.33146  1.0000
  C   C314      1.0  0.44145  0.35432  0.24329  1.0000
  H   H564      1.0  0.43221  0.40294  0.26827  1.0000
  H   H565      1.0  0.46046  0.27762  0.18942  1.0000
  H   H566      1.0  0.47853  0.47204  0.41632  1.0000
  H   H567      1.0  0.48390  0.27534  0.32837  1.0000
  N   N17       1.0  0.45035  0.36361  0.26691  1.0000
  C   C315      1.0  0.44820  0.35341  0.29418  1.0000
  H   H568      1.0  0.46633  0.02847  0.27586  1.0000
  H   H569      1.0  0.35957  0.40439  0.45838  1.0000
  H   H570      1.0  0.47780  0.01868  0.45360  1.0000
  C   C316      1.0  0.48637  0.46405  0.35934  1.0000
  H   H571      1.0  0.42428  0.39151  0.30137  1.0000
  C   C317      1.0  0.47334  0.27961  0.19195  1.0000
  H   H572      1.0  0.43488  0.32384  0.32442  1.0000
  H   H573      1.0  0.48097  0.00240  0.47435  1.0000
  C   C318      1.0  0.47217  0.48098  0.41373  1.0000
  C   C319      1.0  0.41801  0.04833  0.46377  1.0000
  C   C320      1.0  0.43091  0.34546  0.30654  1.0000
  H   H574      1.0  0.48002  0.37303  0.29722  1.0000
  H   H575      1.0  0.44786  0.38224  0.29373  1.0000
  H   H576      1.0  0.41786  0.32814  0.34025  1.0000
  C   C321      1.0  0.47830  0.31837  0.27337  1.0000
  C   C322      1.0  0.47923  0.38009  0.27765  1.0000
  C   C323      1.0  0.40852  0.39398  0.48319  1.0000
  H   H577      1.0  0.42308  0.33875  0.29055  1.0000
  C   C324      1.0  0.47684  0.02427  0.27246  1.0000
  C   C325      1.0  0.46936  0.48703  0.35061  1.0000
  H   H578      1.0  0.40436  0.44603  0.41938  1.0000
  C   C326      1.0  0.47545  0.27002  0.21841  1.0000
  C   C327      1.0  0.45481  0.47644  0.30653  1.0000
  H   H579      1.0  0.37784  0.40309  0.35605  1.0000
  H   H580      1.0  0.48022  0.49197  0.45335  1.0000
  H   H581      1.0  0.43675  0.33798  0.19329  1.0000
  H   H582      1.0  0.33572  0.41106  0.44549  1.0000
  S   S84       1.0  0.48766  0.39165  0.34707  1.0000
  H   H583      1.0  0.47780  0.45950  0.37780  1.0000
  H   H584      1.0  0.43840  0.31938  0.20793  1.0000
  S   S85       1.0  0.36955  0.47958  0.29508  1.0000
  C   C328      1.0  0.47316  0.32379  0.29842  1.0000
  C   C329      1.0  0.47845  0.01388  0.29822  1.0000
  H   H585      1.0  0.40748  0.39700  0.43812  1.0000
  C   C330      1.0  0.45731  0.00459  0.48109  1.0000
  H   H586      1.0  0.46384  0.99762  0.41119  1.0000
  H   H587      1.0  0.47101  0.28123  0.30429  1.0000
  H   H588      1.0  0.47844  0.27579  0.17261  1.0000
  H   H589      1.0  0.48984  0.07659  0.30825  1.0000
  C   C331      1.0  0.34733  0.42073  0.44529  1.0000
  C   C332      1.0  0.42265  0.00028  0.47026  1.0000
  H   H590      1.0  0.48800  0.15008  0.01577  1.0000
  C   C333      1.0  0.44902  0.01771  0.48085  1.0000
  H   H591      1.0  0.39182  0.41474  0.47999  1.0000
  H   H592      1.0  0.46140  0.49400  0.35708  1.0000
  C   C334      1.0  0.39278  0.40995  0.45875  1.0000
  H   H593      1.0  0.47772  0.12293  0.30980  1.0000
  H   H594      1.0  0.42851  0.46510  0.47804  1.0000
  H   H595      1.0  0.45511  0.47820  0.28305  1.0000
  H   H596      1.0  0.37765  0.43183  0.46302  1.0000
  H   H597      1.0  0.41457  0.43616  0.47735  1.0000
  S   S86       1.0  0.37364  0.49434  0.37552  1.0000
  H   H598      1.0  0.46052  0.42267  0.44836  1.0000
  H   H599      1.0  0.24724  0.49057  0.08616  1.0000
  H   H600      1.0  0.42626  0.00483  0.44782  1.0000
  H   H601      1.0  0.40510  0.04253  0.46933  1.0000
  H   H602      1.0  0.47606  0.26070  0.27439  1.0000
  H   H603      1.0  0.41898  0.41454  0.45463  1.0000
  H   H604      1.0  0.44689  0.41532  0.47889  1.0000
  H   H605      1.0  0.39982  0.00558  0.47093  1.0000
  H   H606      1.0  0.45963  0.43588  0.47637  1.0000
  H   H607      1.0  0.48920  0.01018  0.29422  1.0000
  H   H608      1.0  0.39766  0.38335  0.48602  1.0000
  H   H609      1.0  0.46164  0.49420  0.44233  1.0000
  C   C335      1.0  0.48853  0.42914  0.47765  1.0000
  H   H610      1.0  0.48729  0.21394  0.22977  1.0000
  C   C336      1.0  0.48607  0.21585  0.25278  1.0000
  C   C337      1.0  0.48927  0.26509  0.27493  1.0000
  H   H611      1.0  0.48767  0.29615  0.31764  1.0000
  C   C338      1.0  0.48993  0.24526  0.24068  1.0000
  H   H612      1.0  0.24207  0.49551  0.12127  1.0000
  H   H613      1.0  0.45262  0.99600  0.46458  1.0000
  C   C339      1.0  0.47152  0.41825  0.48711  1.0000
  Fe  Fe43      1.0  0.40629  0.48064  0.66496  1.0000
  H   H614      1.0  0.42317  0.07219  0.72115  1.0000
  Fe  Fe44      1.0  0.38264  0.44795  0.66006  1.0000
  S   S87       1.0  0.36520  0.45807  0.63843  1.0000
  S   S88       1.0  0.37756  0.42134  0.66988  1.0000
  Fe  Fe45      1.0  0.38695  0.47370  0.61223  1.0000
  C   C340      1.0  0.45483  0.37397  0.49429  1.0000
  Fe  Fe46      1.0  0.37099  0.47664  0.67185  1.0000
  H   H615      1.0  0.48108  0.35863  0.52625  1.0000
  S   S89       1.0  0.40375  0.46243  0.63244  1.0000
  S   S90       1.0  0.38666  0.46522  0.69492  1.0000
  Fe  Fe47      1.0  0.44864  0.38218  0.67290  1.0000
  S   S91       1.0  0.45768  0.36143  0.66354  1.0000
  S   S92       1.0  0.42314  0.37877  0.68803  1.0000
  Fe  Fe48      1.0  0.46943  0.37667  0.62416  1.0000
  H   H616      1.0  0.40803  0.48061  0.50980  1.0000
  C   C341      1.0  0.28657  0.47796  0.83236  1.0000
  H   H617      1.0  0.43023  0.09990  0.73875  1.0000
  S   S93       1.0  0.45880  0.39624  0.63207  1.0000
  S   S94       1.0  0.46922  0.39388  0.69928  1.0000
  C   C342      1.0  0.40466  0.44062  0.74096  1.0000
  H   H618      1.0  0.45753  0.01471  0.75760  1.0000
  Fe  Fe49      1.0  0.47567  0.06932  0.68704  1.0000
  C   C343      1.0  0.24247  0.47575  0.79031  1.0000
  N   N18       1.0  0.48642  0.29094  0.78628  1.0000
  Fe  Fe50      1.0  0.46121  0.05936  0.62855  1.0000
  S   S95       1.0  0.46067  0.03386  0.63546  1.0000
  S   S96       1.0  0.45203  0.06747  0.58794  1.0000
  Fe  Fe51      1.0  0.45156  0.03534  0.67993  1.0000
  S   S97       1.0  0.43253  0.01386  0.70252  1.0000
  S   S98       1.0  0.45037  0.06055  0.67258  1.0000
  C   C344      1.0  0.45854  0.06418  0.55312  1.0000
  C   C345      1.0  0.45180  0.06910  0.52929  1.0000
  C   C346      1.0  0.45692  0.06698  0.50137  1.0000
  H   H619      1.0  0.47279  0.32381  0.71564  1.0000
  C   C347      1.0  0.47553  0.05488  0.52079  1.0000
  C   C348      1.0  0.47033  0.05690  0.54867  1.0000
  H   H620      1.0  0.44271  0.07480  0.53245  1.0000
  H   H621      1.0  0.26703  0.47175  0.92205  1.0000
  Fe  Fe52      1.0  0.47995  0.40663  0.65759  1.0000
  H   H622      1.0  0.42486  0.07242  0.75911  1.0000
  H   H623      1.0  0.46240  0.00890  0.70869  1.0000
  H   H624      1.0  0.39271  0.34418  0.62660  1.0000
  C   C349      1.0  0.39903  0.35939  0.54542  1.0000
  H   H625      1.0  0.30470  0.45636  0.70891  1.0000
  C   C350      1.0  0.41781  0.38054  0.60021  1.0000
  H   H626      1.0  0.39895  0.35359  0.50108  1.0000
  S   S99       1.0  0.47588  0.04418  0.69758  1.0000
  H   H627      1.0  0.44751  0.09725  0.75364  1.0000
  C   C351      1.0  0.46889  0.05992  0.49696  1.0000
  H   H628      1.0  0.43534  0.45424  0.74374  1.0000
  H   H629      1.0  0.47887  0.00455  0.61048  1.0000
  H   H630      1.0  0.46915  0.08544  0.76578  1.0000
  H   H631      1.0  0.45578  0.02754  0.49374  1.0000
  H   H632      1.0  0.44071  0.06975  0.73662  1.0000
  H   H633      1.0  0.43795  0.46415  0.66681  1.0000
  H   H634      1.0  0.48175  0.31354  0.78931  1.0000
  H   H635      1.0  0.38583  0.35433  0.54793  1.0000
  S   S100      1.0  0.39444  0.48149  0.56533  1.0000
  H   H636      1.0  0.40108  0.34303  0.57836  1.0000
  C   C352      1.0  0.45447  0.37750  0.54551  1.0000
  C   C353      1.0  0.44872  0.37933  0.51858  1.0000
  H   H637      1.0  0.45448  0.44140  0.75545  1.0000
  H   H638      1.0  0.46499  0.29750  0.78168  1.0000
  H   H639      1.0  0.28837  0.46969  0.87581  1.0000
  H   H640      1.0  0.44991  0.38181  0.56400  1.0000
  H   H641      1.0  0.43962  0.38502  0.51646  1.0000
  H   H642      1.0  0.49015  0.24951  0.93223  1.0000
  C   C354      1.0  0.38420  0.37772  0.62372  1.0000
  H   H643      1.0  0.26255  0.48895  0.95863  1.0000
  H   H644      1.0  0.43171  0.12863  0.72063  1.0000
  H   H645      1.0  0.48081  0.20281  0.94613  1.0000
  C   C355      1.0  0.48033  0.28483  0.81640  1.0000
  C   C356      1.0  0.35049  0.48330  0.78176  1.0000
  C   C357      1.0  0.35446  0.48164  0.75292  1.0000
  H   H646      1.0  0.38257  0.37052  0.64414  1.0000
  H   H647      1.0  0.45710  0.30969  0.73789  1.0000
  H   H648      1.0  0.35247  0.47519  0.79800  1.0000
  H   H649      1.0  0.35934  0.47228  0.74722  1.0000
  C   C358      1.0  0.39151  0.41091  0.67497  1.0000
  C   C359      1.0  0.40695  0.41577  0.66174  1.0000
  C   C360      1.0  0.41721  0.40641  0.66602  1.0000
  C   C361      1.0  0.41183  0.39200  0.68299  1.0000
  C   C362      1.0  0.39641  0.38727  0.69582  1.0000
  C   C363      1.0  0.38636  0.39660  0.69183  1.0000
  H   H650      1.0  0.41073  0.42648  0.64777  1.0000
  H   H651      1.0  0.42908  0.41012  0.65584  1.0000
  H   H652      1.0  0.39209  0.37619  0.70885  1.0000
  H   H653      1.0  0.37443  0.39261  0.70183  1.0000
  C   C364      1.0  0.38539  0.47441  0.53351  1.0000
  H   H654      1.0  0.45807  0.27456  0.75940  1.0000
  C   C365      1.0  0.47219  0.36463  0.52412  1.0000
  S   S101      1.0  0.48617  0.06993  0.64207  1.0000
  C   C366      1.0  0.36230  0.46537  0.50491  1.0000
  C   C367      1.0  0.36885  0.46858  0.53166  1.0000
  H   H655      1.0  0.47558  0.05300  0.56674  1.0000
  H   H656      1.0  0.45365  0.41398  0.76760  1.0000
  H   H657      1.0  0.42242  0.00345  0.57895  1.0000
  H   H658      1.0  0.36109  0.46711  0.55065  1.0000
  H   H659      1.0  0.46827  0.19252  0.90239  1.0000
  H   H660      1.0  0.26783  0.46625  0.77992  1.0000
  C   C368      1.0  0.39524  0.47634  0.50857  1.0000
  H   H661      1.0  0.40859  0.43616  0.76080  1.0000
  C   C369      1.0  0.30482  0.46865  0.71360  1.0000
  H   H662      1.0  0.47018  0.10187  0.80777  1.0000
  H   H663      1.0  0.27489  0.48868  0.89691  1.0000
  C   C370      1.0  0.43307  0.45490  0.72089  1.0000
  H   H664      1.0  0.29365  0.45786  0.84926  1.0000
  C   C371      1.0  0.46166  0.12608  0.72634  1.0000
  H   H665      1.0  0.42069  0.34278  0.61012  1.0000
  H   H666      1.0  0.45860  0.45216  0.60342  1.0000
  H   H667      1.0  0.46809  0.42189  0.73815  1.0000
  C   C372      1.0  0.40285  0.48624  0.75904  1.0000
  H   H668      1.0  0.49058  0.12584  0.62973  1.0000
  C   C373      1.0  0.41564  0.33730  0.65488  1.0000
  H   H669      1.0  0.48064  0.02035  0.49112  1.0000
  C   C374      1.0  0.46419  0.00065  0.72563  1.0000
  H   H670      1.0  0.47709  0.36406  0.76551  1.0000
  C   C375      1.0  0.46947  0.31804  0.73742  1.0000
  H   H671      1.0  0.42625  0.33325  0.65689  1.0000
  C   C376      1.0  0.49027  0.10172  0.74421  1.0000
  C   C377      1.0  0.46754  0.01000  0.75244  1.0000
  C   C378      1.0  0.45575  0.45457  0.64876  1.0000
  H   H672      1.0  0.45795  0.47195  0.75090  1.0000
  H   H673      1.0  0.42778  0.14529  0.67951  1.0000
  H   H674      1.0  0.40210  0.37229  0.53934  1.0000
  H   H675      1.0  0.44188  0.09372  0.68963  1.0000
  H   H676      1.0  0.45024  0.24666  0.74504  1.0000
  H   H677      1.0  0.47147  0.46857  0.69119  1.0000
  H   H678      1.0  0.42901  0.35923  0.63196  1.0000
  H   H679      1.0  0.25233  0.49115  0.92727  1.0000
  H   H680      1.0  0.46718  0.27922  0.81771  1.0000
  C   C379      1.0  0.35157  0.49169  0.73149  1.0000
  H   H681      1.0  0.45551  0.99787  0.50201  1.0000
  C   C380      1.0  0.48106  0.30904  0.74534  1.0000
  H   H682      1.0  0.46441  0.28312  0.86882  1.0000
  H   H683      1.0  0.41389  0.34320  0.67456  1.0000
  S   S102      1.0  0.35522  0.48947  0.69451  1.0000
  C   C381      1.0  0.46306  0.25368  0.74555  1.0000
  H   H684      1.0  0.46498  0.46653  0.64706  1.0000
  H   H685      1.0  0.28523  0.46035  0.74513  1.0000
  H   H686      1.0  0.48147  0.14717  0.70950  1.0000
  C   C382      1.0  0.48070  0.19280  0.90565  1.0000
  H   H687      1.0  0.40270  0.36138  0.64490  1.0000
  C   C383      1.0  0.29444  0.47024  0.85454  1.0000
  C   C384      1.0  0.43160  0.07602  0.73819  1.0000
  H   H688      1.0  0.47782  0.30666  0.83468  1.0000
  H   H689      1.0  0.43131  0.46678  0.71735  1.0000
  H   H690      1.0  0.48659  0.40263  0.58419  1.0000
  H   H691      1.0  0.41358  0.02345  0.50068  1.0000
  H   H692      1.0  0.31739  0.47662  0.71147  1.0000
  C   C385      1.0  0.47155  0.12003  0.68051  1.0000
  H   H693      1.0  0.40290  0.45237  0.74426  1.0000
  H   H694      1.0  0.46908  0.41894  0.51018  1.0000
  H   H695      1.0  0.28755  0.49014  0.83879  1.0000
  N   N19       1.0  0.45668  0.11738  0.69968  1.0000
  H   H696      1.0  0.28550  0.48690  0.92825  1.0000
  H   H697      1.0  0.39370  0.38926  0.62549  1.0000
  H   H698      1.0  0.46746  0.25899  0.72379  1.0000
  Fe  Fe53      1.0  0.48467  0.04442  0.65231  1.0000
  H   H699      1.0  0.41829  0.43013  0.71378  1.0000
  N   N20       1.0  0.40403  0.36533  0.59894  1.0000
  C   C386      1.0  0.48571  0.11304  0.63732  1.0000
  H   H700      1.0  0.41183  0.44546  0.69669  1.0000
  H   H701      1.0  0.44350  0.46111  0.61340  1.0000
  H   H702      1.0  0.48136  0.00392  0.66256  1.0000
  H   H703      1.0  0.48118  0.11783  0.69287  1.0000
  H   H704      1.0  0.37837  0.35696  0.59832  1.0000
  C   C387      1.0  0.41824  0.34899  0.62888  1.0000
  H   H705      1.0  0.45157  0.13638  0.67526  1.0000
  H   H706      1.0  0.48626  0.42251  0.57478  1.0000
  H   H707      1.0  0.42232  0.38974  0.55575  1.0000
  H   H708      1.0  0.44442  0.40677  0.58098  1.0000
  H   H709      1.0  0.43584  0.42768  0.74701  1.0000
  H   H710      1.0  0.26873  0.48056  0.75203  1.0000
  H   H711      1.0  0.47868  0.02029  0.74909  1.0000
  C   C388      1.0  0.46612  0.36995  0.54841  1.0000
  C   C389      1.0  0.47807  0.30267  0.77683  1.0000
  H   H712      1.0  0.48778  0.28001  0.74616  1.0000
  H   H713      1.0  0.46229  0.15043  0.71191  1.0000
  C   C390      1.0  0.40641  0.35619  0.57347  1.0000
  C   C391      1.0  0.44892  0.45173  0.61953  1.0000
  H   H714      1.0  0.44464  0.42897  0.69657  1.0000
  H   H715      1.0  0.45791  0.47961  0.69682  1.0000
  C   C392      1.0  0.29443  0.47822  0.80234  1.0000
  C   C393      1.0  0.34383  0.49518  0.78975  1.0000
  H   H716      1.0  0.47916  0.29903  0.88432  1.0000
  H   H717      1.0  0.43062  0.41344  0.60271  1.0000
  H   H718      1.0  0.29200  0.46539  0.79813  1.0000
  H   H719      1.0  0.30760  0.48329  0.80352  1.0000
  H   H720      1.0  0.27384  0.47059  0.83304  1.0000
  H   H721      1.0  0.30485  0.46371  0.75822  1.0000
  H   H722      1.0  0.41628  0.00211  0.52801  1.0000
  C   C394      1.0  0.27141  0.47940  0.77474  1.0000
  C   C395      1.0  0.43505  0.00510  0.57230  1.0000
  H   H723      1.0  0.45225  0.01555  0.53791  1.0000
  H   H724      1.0  0.48406  0.10560  0.61855  1.0000
  C   C396      1.0  0.47737  0.28967  0.86864  1.0000
  H   H725      1.0  0.48042  0.18084  0.91464  1.0000
  H   H726      1.0  0.43972  0.43981  0.61972  1.0000
  C   C397      1.0  0.29767  0.46856  0.74373  1.0000
  H   H727      1.0  0.29783  0.47277  0.69770  1.0000
  H   H728      1.0  0.41750  0.38575  0.62121  1.0000
  C   C398      1.0  0.38822  0.36851  0.59861  1.0000
  C   C399      1.0  0.29832  0.48567  0.75153  1.0000
  C   C400      1.0  0.48001  0.48879  0.73444  1.0000
  H   H729      1.0  0.38737  0.37546  0.57893  1.0000
  H   H730      1.0  0.36605  0.38790  0.63815  1.0000
  H   H731      1.0  0.41936  0.35816  0.56861  1.0000
  H   H732      1.0  0.46294  0.14970  0.76484  1.0000
  H   H733      1.0  0.43254  0.44299  0.66859  1.0000
  H   H734      1.0  0.39305  0.43197  0.73603  1.0000
  H   H735      1.0  0.48206  0.14631  0.76215  1.0000
  H   H736      1.0  0.46537  0.09676  0.66017  1.0000
  H   H737      1.0  0.40509  0.32662  0.65276  1.0000
  H   H738      1.0  0.36984  0.38949  0.60020  1.0000
  C   C401      1.0  0.44543  0.12383  0.68358  1.0000
  C   C402      1.0  0.47873  0.09656  0.76685  1.0000
  H   H739      1.0  0.46154  0.44533  0.65361  1.0000
  H   H740      1.0  0.45139  0.12428  0.74184  1.0000
  H   H741      1.0  0.40893  0.48378  0.73947  1.0000
  H   H742      1.0  0.40127  0.33823  0.52538  1.0000
  C   C403      1.0  0.44249  0.45395  0.67185  1.0000
  C   C404      1.0  0.43945  0.01388  0.54298  1.0000
  H   H743      1.0  0.45895  0.09383  0.70801  1.0000
  H   H744      1.0  0.44854  0.40813  0.73228  1.0000
  C   C405      1.0  0.27353  0.48480  0.91982  1.0000
  H   H745      1.0  0.41774  0.35630  0.51663  1.0000
  H   H746      1.0  0.40632  0.48011  0.77752  1.0000
  C   C406      1.0  0.46747  0.47224  0.73466  1.0000
  C   C407      1.0  0.40358  0.35491  0.62548  1.0000
  H   H747      1.0  0.43444  0.00354  0.64487  1.0000
  H   H748      1.0  0.44185  0.11703  0.66433  1.0000
  H   H749      1.0  0.43801  0.02587  0.54477  1.0000
  C   C408      1.0  0.25978  0.48621  0.79183  1.0000
  H   H750      1.0  0.42178  0.11068  0.70285  1.0000
  C   C409      1.0  0.42887  0.00435  0.52012  1.0000
  N   N21       1.0  0.43161  0.01224  0.49047  1.0000
  H   H751      1.0  0.48462  0.40505  0.75587  1.0000
  H   H752      1.0  0.46424  0.44099  0.70234  1.0000
  H   H753      1.0  0.43323  0.41844  0.56501  1.0000
  H   H754      1.0  0.30718  0.47736  0.85569  1.0000
  H   H755      1.0  0.48111  0.40493  0.53376  1.0000
  H   H756      1.0  0.38974  0.48122  0.75762  1.0000
  S   S103      1.0  0.47344  0.36676  0.58173  1.0000
  H   H757      1.0  0.45985  0.26075  0.78752  1.0000
  H   H758      1.0  0.48474  0.09165  0.86282  1.0000
  C   C410      1.0  0.43275  0.40901  0.58173  1.0000
  C   C411      1.0  0.44875  0.43225  0.74061  1.0000
  C   C412      1.0  0.47938  0.10592  0.79076  1.0000
  C   C413      1.0  0.46506  0.26679  0.76660  1.0000
  C   C414      1.0  0.41933  0.39375  0.57657  1.0000
  H   H759      1.0  0.35860  0.37039  0.61814  1.0000
  C   C415      1.0  0.44942  0.09957  0.70690  1.0000
  H   H760      1.0  0.42928  0.37788  0.59909  1.0000
  C   C416      1.0  0.45521  0.41822  0.74483  1.0000
  C   C417      1.0  0.48644  0.35902  0.77027  1.0000
  C   C418      1.0  0.48375  0.29751  0.83914  1.0000
  C   C419      1.0  0.47397  0.15168  0.75104  1.0000
  H   H761      1.0  0.40922  0.13150  0.69444  1.0000
  C   C420      1.0  0.48824  0.20569  0.92600  1.0000
  C   C421      1.0  0.45151  0.43901  0.70916  1.0000
  C   C422      1.0  0.42590  0.02669  0.49074  1.0000
  C   C423      1.0  0.36871  0.38155  0.61965  1.0000
  Fe  Fe54      1.0  0.47936  0.37448  0.68666  1.0000
  C   C424      1.0  0.46103  0.46891  0.70483  1.0000
  H   H762      1.0  0.40824  0.39701  0.57552  1.0000
  C   C425      1.0  0.47004  0.14440  0.72235  1.0000
  H   H763      1.0  0.48476  0.49083  0.75584  1.0000
  H   H764      1.0  0.45754  0.99818  0.61815  1.0000
  H   H765      1.0  0.49012  0.48973  0.71888  1.0000
  H   H766      1.0  0.46989  0.32755  0.75235  1.0000
  H   H767      1.0  0.29417  0.49115  0.73295  1.0000
  C   C426      1.0  0.43958  0.09416  0.73572  1.0000
  H   H768      1.0  0.48479  0.04941  0.51765  1.0000
  H   H769      1.0  0.34949  0.46124  0.50359  1.0000
  H   H770      1.0  0.46134  0.11250  0.63944  1.0000
  C   C427      1.0  0.42967  0.12326  0.69977  1.0000
  C   C428      1.0  0.42066  0.13242  0.68271  1.0000
  C   C429      1.0  0.46973  0.10976  0.65407  1.0000
  C   C430      1.0  0.41687  0.44208  0.71628  1.0000
  N   N22       1.0  0.44707  0.45397  0.70235  1.0000
  H   H771      1.0  0.47342  0.46335  0.74102  1.0000
  H   H772      1.0  0.26233  0.48717  0.81450  1.0000
  H   H773      1.0  0.41797  0.12732  0.66167  1.0000
  C   C431      1.0  0.40461  0.35137  0.52072  1.0000
  H   H774      1.0  0.31112  0.49265  0.75266  1.0000
  H   H775      1.0  0.47634  0.13271  0.67212  1.0000
  S   S104      1.0  0.48943  0.09111  0.71222  1.0000
  H   H776      1.0  0.48846  0.18960  0.98255  1.0000
  H   H777      1.0  0.47955  0.29934  0.73051  1.0000
  N   N23       1.0  0.28902  0.48693  0.77855  1.0000
  C   C432      1.0  0.46676  0.36682  0.49712  1.0000
  H   H778      1.0  0.46992  0.12089  0.73745  1.0000
  H   H779      1.0  0.44266  0.01231  0.58815  1.0000
  C   C433      1.0  0.48821  0.35423  0.79861  1.0000
  H   H780      1.0  0.40970  0.40100  0.50244  1.0000
  H   H781      1.0  0.46968  0.24538  0.75204  1.0000
  H   H782      1.0  0.48869  0.00551  0.71037  1.0000
  S   S105      1.0  0.43033  0.49240  0.68145  1.0000
  H   H783      1.0  0.43325  0.03576  0.50443  1.0000
  H   H784      1.0  0.48004  0.16478  0.74776  1.0000
  S   S106      1.0  0.39109  0.49305  0.64336  1.0000
  H   H785      1.0  0.48914  0.26819  0.77653  1.0000
  H   H786      1.0  0.46862  0.00211  0.77073  1.0000
  H   H787      1.0  0.48754  0.21721  0.91664  1.0000
  H   H788      1.0  0.48751  0.19537  0.88470  1.0000
  H   H789      1.0  0.48542  0.27528  0.82351  1.0000
  H   H790      1.0  0.48382  0.28124  0.87528  1.0000
  C   C434      1.0  0.48290  0.27656  0.76837  1.0000
  H   H791      1.0  0.48015  0.35566  0.81545  1.0000
  H   H792      1.0  0.49072  0.39857  0.49053  1.0000
  C   C435      1.0  0.26420  0.49386  0.93627  1.0000
  C   C436      1.0  0.44395  0.67076  0.29185  1.0000
  H   H793      1.0  0.47681  0.97916  0.29049  1.0000
  Fe  Fe55      1.0  0.44391  0.66556  0.18603  1.0000
  S   S107      1.0  0.46823  0.66937  0.16555  1.0000
  S   S108      1.0  0.43531  0.68533  0.20404  1.0000
  Fe  Fe56      1.0  0.43323  0.62940  0.17539  1.0000
  S   S109      1.0  0.45693  0.63126  0.15376  1.0000
  S   S110      1.0  0.41635  0.60401  0.18273  1.0000
  Fe  Fe57      1.0  0.46710  0.64629  0.19025  1.0000
  H   H794      1.0  0.37506  0.80780  0.12442  1.0000
  Fe  Fe58      1.0  0.45544  0.65390  0.13144  1.0000
  S   S111      1.0  0.45655  0.66332  0.08508  1.0000
  S   S112      1.0  0.44348  0.64346  0.21258  1.0000
  S   S113      1.0  0.43098  0.65100  0.15128  1.0000
  Fe  Fe59      1.0  0.46202  0.78172  0.19916  1.0000
  H   H795      1.0  0.27310  0.72485  0.10917  1.0000
  S   S114      1.0  0.47170  0.76051  0.20408  1.0000
  Fe  Fe60      1.0  0.43555  0.79676  0.19971  1.0000
  S   S115      1.0  0.45112  0.82018  0.17885  1.0000
  S   S116      1.0  0.41060  0.79435  0.21686  1.0000
  Fe  Fe61      1.0  0.46036  0.80482  0.14990  1.0000
  H   H796      1.0  0.46295  0.91015  0.44928  1.0000
  Fe  Fe62      1.0  0.46895  0.81813  0.21060  1.0000
  H   H797      1.0  0.26887  0.56688  0.23726  1.0000
  S   S117      1.0  0.44324  0.78155  0.16857  1.0000
  S   S118      1.0  0.45293  0.79507  0.23236  1.0000
  H   H798      1.0  0.48135  0.64929  0.06710  1.0000
  S   S119      1.0  0.31338  0.54498  0.18517  1.0000
  Fe  Fe63      1.0  0.32251  0.52289  0.12090  1.0000
  S   S120      1.0  0.31363  0.54390  0.11657  1.0000
  H   H799      1.0  0.43110  0.51319  0.36796  1.0000
  Fe  Fe64      1.0  0.33125  0.55469  0.14857  1.0000
  S   S121      1.0  0.34596  0.58091  0.14250  1.0000
  Fe  Fe65      1.0  0.29629  0.53221  0.15355  1.0000
  S   S122      1.0  0.27191  0.53611  0.14998  1.0000
  S   S123      1.0  0.34135  0.53439  0.15111  1.0000
  Fe  Fe66      1.0  0.33167  0.78544  0.15449  1.0000
  S   S124      1.0  0.33697  0.81181  0.14435  1.0000
  S   S125      1.0  0.35097  0.77488  0.14144  1.0000
  Fe  Fe67      1.0  0.29696  0.78018  0.17281  1.0000
  S   S126      1.0  0.30029  0.80639  0.16377  1.0000
  S   S127      1.0  0.27106  0.76589  0.18681  1.0000
  Fe  Fe68      1.0  0.31367  0.80427  0.12324  1.0000
  S   S128      1.0  0.30861  0.81622  0.08236  1.0000
  Fe  Fe69      1.0  0.32325  0.81168  0.18601  1.0000
  S   S129      1.0  0.33141  0.83401  0.21290  1.0000
  S   S130      1.0  0.30906  0.77797  0.13109  1.0000
  S   S131      1.0  0.31934  0.78549  0.19745  1.0000
  H   H800      1.0  0.26971  0.57615  0.20187  1.0000
  Fe  Fe70      1.0  0.36578  0.88097  0.35824  1.0000
  S   S132      1.0  0.38516  0.87560  0.38226  1.0000
  S   S133      1.0  0.34971  0.85849  0.33778  1.0000
  Fe  Fe71      1.0  0.37891  0.91679  0.37184  1.0000
  S   S134      1.0  0.39893  0.91324  0.39563  1.0000
  S   S135      1.0  0.37805  0.94234  0.36443  1.0000
  Fe  Fe72      1.0  0.40126  0.89807  0.35999  1.0000
  S   S136      1.0  0.42434  0.89834  0.33815  1.0000
  Fe  Fe73      1.0  0.38100  0.89122  0.41659  1.0000
  S   S137      1.0  0.38678  0.88570  0.46244  1.0000
  S   S138      1.0  0.38248  0.90288  0.33436  1.0000
  S   S139      1.0  0.36024  0.89527  0.39447  1.0000
  C   C437      1.0  0.39424  0.95972  0.37030  1.0000
  C   C438      1.0  0.26342  0.81022  0.19647  1.0000
  C   C439      1.0  0.46621  0.93066  0.38136  1.0000
  C   C440      1.0  0.46801  0.91829  0.36538  1.0000
  C   C441      1.0  0.45539  0.90912  0.35051  1.0000
  C   C442      1.0  0.44071  0.91190  0.35241  1.0000
  C   C443      1.0  0.43914  0.92487  0.36704  1.0000
  C   C444      1.0  0.45196  0.93437  0.38136  1.0000
  H   H801      1.0  0.47906  0.91558  0.36464  1.0000
  H   H802      1.0  0.45692  0.89954  0.33836  1.0000
  H   H803      1.0  0.42808  0.92758  0.36733  1.0000
  H   H804      1.0  0.45062  0.94418  0.39310  1.0000
  C   C445      1.0  0.33742  0.84041  0.24758  1.0000
  C   C446      1.0  0.33556  0.82969  0.27128  1.0000
  C   C447      1.0  0.33963  0.83543  0.29843  1.0000
  C   C448      1.0  0.34608  0.85195  0.30241  1.0000
  C   C449      1.0  0.34848  0.86263  0.27853  1.0000
  C   C450      1.0  0.34399  0.85691  0.25152  1.0000
  H   H805      1.0  0.33057  0.81698  0.26888  1.0000
  H   H806      1.0  0.33764  0.82699  0.31663  1.0000
  H   H807      1.0  0.35324  0.87537  0.28109  1.0000
  H   H808      1.0  0.34538  0.86543  0.23366  1.0000
  C   C451      1.0  0.30429  0.81224  0.04630  1.0000
  C   C452      1.0  0.29641  0.82166  0.03244  1.0000
  H   H809      1.0  0.25326  0.79487  0.10834  1.0000
  C   C453      1.0  0.43977  0.96733  0.30448  1.0000
  N   N24       1.0  0.26018  0.75077  0.08951  1.0000
  C   C454      1.0  0.30881  0.80087  0.03080  1.0000
  H   H810      1.0  0.29292  0.83051  0.04398  1.0000
  H   H811      1.0  0.45603  0.89947  0.48252  1.0000
  H   H812      1.0  0.31173  0.54341  0.00701  1.0000
  H   H813      1.0  0.31494  0.79352  0.04114  1.0000
  C   C455      1.0  0.24799  0.50927  0.17436  1.0000
  H   H814      1.0  0.25737  0.81397  0.15320  1.0000
  H   H815      1.0  0.41712  0.83872  0.01641  1.0000
  C   C456      1.0  0.31948  0.53000  0.03940  1.0000
  C   C457      1.0  0.46991  0.99465  0.35286  1.0000
  H   H816      1.0  0.24541  0.81533  0.28006  1.0000
  C   C458      1.0  0.38653  0.81767  0.12146  1.0000
  H   H817      1.0  0.39848  0.61758  0.22663  1.0000
  C   C459      1.0  0.28000  0.73453  0.09336  1.0000
  H   H818      1.0  0.39903  0.52984  0.26700  1.0000
  C   C460      1.0  0.25192  0.52427  0.15970  1.0000
  N   N25       1.0  0.45130  0.74525  0.10941  1.0000
  H   H819      1.0  0.29143  0.79958  0.28731  1.0000
  H   H820      1.0  0.42346  0.53036  0.29155  1.0000
  C   C461      1.0  0.34119  0.50831  0.24846  1.0000
  H   H821      1.0  0.44101  0.91007  0.42227  1.0000
  H   H822      1.0  0.44515  0.60397  0.21459  1.0000
  H   H823      1.0  0.39221  0.81709  0.17647  1.0000
  H   H824      1.0  0.37631  0.80155  0.05525  1.0000
  C   C462      1.0  0.39417  0.78723  0.19592  1.0000
  C   C463      1.0  0.37892  0.78521  0.20819  1.0000
  C   C464      1.0  0.36561  0.78126  0.19162  1.0000
  C   C465      1.0  0.36742  0.77889  0.16279  1.0000
  C   C466      1.0  0.38257  0.78009  0.15072  1.0000
  C   C467      1.0  0.39600  0.78450  0.16717  1.0000
  H   H825      1.0  0.37744  0.78690  0.23055  1.0000
  H   H826      1.0  0.35391  0.77995  0.20120  1.0000
  H   H827      1.0  0.38399  0.77812  0.12843  1.0000
  H   H828      1.0  0.40775  0.78604  0.15757  1.0000
  C   C468      1.0  0.46064  0.80531  0.06895  1.0000
  C   C469      1.0  0.44421  0.79900  0.06614  1.0000
  C   C470      1.0  0.43816  0.79626  0.03891  1.0000
  C   C471      1.0  0.35150  0.79083  0.04914  1.0000
  C   C472      1.0  0.47086  0.80878  0.04413  1.0000
  H   H829      1.0  0.43616  0.79634  0.08491  1.0000
  H   H830      1.0  0.47180  0.49975  0.30888  1.0000
  H   H831      1.0  0.39651  0.81289  0.12548  1.0000
  C   C473      1.0  0.39775  0.59797  0.16743  1.0000
  C   C474      1.0  0.39026  0.60904  0.15874  1.0000
  C   C475      1.0  0.37445  0.60366  0.15053  1.0000
  C   C476      1.0  0.36610  0.58722  0.15091  1.0000
  C   C477      1.0  0.37388  0.57618  0.15833  1.0000
  C   C478      1.0  0.38968  0.58156  0.16637  1.0000
  H   H832      1.0  0.39641  0.62173  0.15938  1.0000
  H   H833      1.0  0.36854  0.61227  0.14457  1.0000
  H   H834      1.0  0.36764  0.56352  0.15842  1.0000
  H   H835      1.0  0.39559  0.57296  0.17227  1.0000
  C   C479      1.0  0.46218  0.65700  0.05207  1.0000
  C   C480      1.0  0.45267  0.72968  0.12208  1.0000
  H   H836      1.0  0.39814  0.84052  0.13710  1.0000
  C   C481      1.0  0.38664  0.83088  0.14146  1.0000
  C   C482      1.0  0.47510  0.65114  0.04873  1.0000
  C   C483      1.0  0.33019  0.51576  0.99384  1.0000
  C   C484      1.0  0.44546  0.70631  0.20175  1.0000
  C   C485      1.0  0.46181  0.71264  0.19450  1.0000
  C   C486      1.0  0.46963  0.72924  0.19518  1.0000
  C   C487      1.0  0.46112  0.73982  0.20202  1.0000
  C   C488      1.0  0.44464  0.73358  0.20801  1.0000
  C   C489      1.0  0.43693  0.71690  0.20828  1.0000
  H   H837      1.0  0.46847  0.70473  0.18875  1.0000
  H   H838      1.0  0.34742  0.55805  0.01272  1.0000
  H   H839      1.0  0.43793  0.74153  0.21341  1.0000
  H   H840      1.0  0.42426  0.71217  0.21380  1.0000
  C   C490      1.0  0.47015  0.92450  0.48455  1.0000
  H   H841      1.0  0.38793  0.82254  0.09906  1.0000
  H   H842      1.0  0.41702  0.53926  0.32132  1.0000
  C   C491      1.0  0.46290  0.53672  0.39991  1.0000
  C   C492      1.0  0.45578  0.54713  0.41231  1.0000
  C   C493      1.0  0.43980  0.54561  0.40801  1.0000
  C   C494      1.0  0.43091  0.53346  0.39169  1.0000
  C   C495      1.0  0.43787  0.52267  0.38034  1.0000
  C   C496      1.0  0.45383  0.52433  0.38439  1.0000
  H   H843      1.0  0.35808  0.82425  0.23175  1.0000
  H   H844      1.0  0.43437  0.55377  0.41736  1.0000
  H   H845      1.0  0.42485  0.55304  0.25933  1.0000
  H   H846      1.0  0.45924  0.51637  0.37463  1.0000
  H   H847      1.0  0.46005  0.99400  0.28351  1.0000
  C   C497      1.0  0.48311  0.84909  0.31742  1.0000
  H   H848      1.0  0.39389  0.53455  0.43995  1.0000
  H   H849      1.0  0.45991  0.97379  0.38369  1.0000
  C   C498      1.0  0.41925  0.98796  0.38043  1.0000
  H   H850      1.0  0.38018  0.61833  0.21182  1.0000
  H   H851      1.0  0.41442  0.88120  0.41109  1.0000
  H   H852      1.0  0.27201  0.55662  0.20637  1.0000
  C   C499      1.0  0.28650  0.79138  0.27043  1.0000
  H   H853      1.0  0.46864  0.71436  0.06671  1.0000
  C   C500      1.0  0.47103  0.98387  0.37896  1.0000
  H   H854      1.0  0.31299  0.85250  0.28649  1.0000
  H   H855      1.0  0.46853  0.77471  0.02028  1.0000
  Fe  Fe74      1.0  0.32266  0.52377  0.18645  1.0000
  H   H856      1.0  0.42920  0.58014  0.24539  1.0000
  H   H857      1.0  0.41345  0.52197  0.44392  1.0000
  H   H858      1.0  0.46329  0.60136  0.22626  1.0000
  H   H859      1.0  0.29267  0.85225  0.29172  1.0000
  C   C501      1.0  0.44587  0.69936  0.12064  1.0000
  H   H860      1.0  0.46242  0.69454  0.05385  1.0000
  C   C502      1.0  0.32695  0.51848  0.04521  1.0000
  H   H861      1.0  0.48895  0.98654  0.31877  1.0000
  C   C503      1.0  0.37084  0.57086  0.28135  1.0000
  H   H862      1.0  0.44053  0.95927  0.43900  1.0000
  S   S140      1.0  0.48915  0.89980  0.41429  1.0000
  C   C504      1.0  0.26884  0.78178  0.09250  1.0000
  H   H863      1.0  0.38833  0.82626  0.00754  1.0000
  H   H864      1.0  0.27695  0.75193  0.12198  1.0000
  H   H865      1.0  0.38709  0.62900  0.24285  1.0000
  C   C505      1.0  0.26789  0.73438  0.17407  1.0000
  H   H866      1.0  0.36412  0.54311  0.33953  1.0000
  H   H867      1.0  0.28138  0.78242  0.09511  1.0000
  C   C506      1.0  0.26565  0.79466  0.11030  1.0000
  H   H868      1.0  0.25634  0.76373  0.12552  1.0000
  H   H869      1.0  0.44513  0.69770  0.14413  1.0000
  H   H870      1.0  0.27691  0.73051  0.07178  1.0000
  H   H871      1.0  0.43525  0.86085  0.17194  1.0000
  H   H872      1.0  0.31521  0.53550  0.05672  1.0000
  H   H873      1.0  0.36214  0.56014  0.21268  1.0000
  H   H874      1.0  0.45149  0.86594  0.39522  1.0000
  H   H875      1.0  0.38746  0.87090  0.18276  1.0000
  C   C507      1.0  0.40306  0.84862  0.19277  1.0000
  C   C508      1.0  0.45823  0.67452  0.26950  1.0000
  C   C509      1.0  0.31832  0.56082  0.25757  1.0000
  H   H876      1.0  0.44269  0.84935  0.19703  1.0000
  H   H877      1.0  0.33441  0.55321  0.23091  1.0000
  H   H878      1.0  0.44829  0.96442  0.34610  1.0000
  H   H879      1.0  0.44564  0.68037  0.30698  1.0000
  C   C510      1.0  0.42833  0.66896  0.27768  1.0000
  C   C511      1.0  0.43001  0.75985  0.10451  1.0000
  H   H880      1.0  0.41717  0.95450  0.32772  1.0000
  C   C512      1.0  0.45951  0.65653  0.00059  1.0000
  H   H881      1.0  0.36466  0.60420  0.25528  1.0000
  H   H882      1.0  0.39713  0.76691  0.99807  1.0000
  H   H883      1.0  0.42594  0.98911  0.47234  1.0000
  H   H884      1.0  0.48156  0.65421  0.35400  1.0000
  H   H885      1.0  0.36343  0.54449  0.28797  1.0000
  C   C513      1.0  0.25885  0.71832  0.17039  1.0000
  H   H886      1.0  0.41943  0.94792  0.29266  1.0000
  C   C514      1.0  0.38622  0.61789  0.23184  1.0000
  H   H887      1.0  0.37668  0.83536  0.13591  1.0000
  H   H888      1.0  0.43456  0.88473  0.39672  1.0000
  H   H889      1.0  0.35498  0.50412  0.42475  1.0000
  C   C515      1.0  0.40421  0.99516  0.47398  1.0000
  H   H890      1.0  0.42378  0.93094  0.43376  1.0000
  H   H891      1.0  0.36968  0.52262  0.41145  1.0000
  H   H892      1.0  0.47438  0.76917  0.06903  1.0000
  H   H893      1.0  0.38030  0.53474  0.46836  1.0000
  H   H894      1.0  0.48359  0.81368  0.04597  1.0000
  H   H895      1.0  0.36470  0.77536  0.01273  1.0000
  S   S141      1.0  0.46915  0.80902  0.10264  1.0000
  C   C516      1.0  0.36591  0.55843  0.23451  1.0000
  H   H896      1.0  0.41820  0.66522  0.29391  1.0000
  H   H897      1.0  0.42854  0.68056  0.26713  1.0000
  H   H898      1.0  0.42633  0.65981  0.26155  1.0000
  N   N26       1.0  0.43455  0.85736  0.31337  1.0000
  C   C517      1.0  0.44069  0.87166  0.29235  1.0000
  C   C518      1.0  0.41716  0.85459  0.32210  1.0000
  C   C519      1.0  0.44396  0.86130  0.33957  1.0000
  C   C520      1.0  0.43700  0.84246  0.30209  1.0000
  C   C521      1.0  0.43134  0.83801  0.27211  1.0000
  C   C522      1.0  0.45855  0.87631  0.28238  1.0000
  C   C523      1.0  0.43849  0.84894  0.36538  1.0000
  C   C524      1.0  0.40647  0.85811  0.29907  1.0000
  C   C525      1.0  0.38884  0.85196  0.30910  1.0000
  C   C526      1.0  0.43695  0.82434  0.26187  1.0000
  C   C527      1.0  0.46288  0.88951  0.25857  1.0000
  C   C528      1.0  0.45000  0.85353  0.38918  1.0000
  H   H899      1.0  0.43879  0.88236  0.30160  1.0000
  H   H900      1.0  0.43385  0.86995  0.27298  1.0000
  H   H901      1.0  0.41148  0.84210  0.33117  1.0000
  H   H902      1.0  0.41607  0.86240  0.33960  1.0000
  H   H903      1.0  0.44358  0.87297  0.34714  1.0000
  H   H904      1.0  0.45675  0.86271  0.33463  1.0000
  H   H905      1.0  0.44982  0.84335  0.30205  1.0000
  H   H906      1.0  0.43080  0.83179  0.31647  1.0000
  H   H907      1.0  0.43617  0.84816  0.25615  1.0000
  H   H908      1.0  0.41816  0.83381  0.27253  1.0000
  H   H909      1.0  0.46622  0.88097  0.30008  1.0000
  H   H910      1.0  0.46149  0.86591  0.27420  1.0000
  H   H911      1.0  0.43816  0.83680  0.35955  1.0000
  H   H912      1.0  0.42645  0.84839  0.37403  1.0000
  H   H913      1.0  0.40963  0.87127  0.29454  1.0000
  H   H914      1.0  0.40787  0.85266  0.27890  1.0000
  H   H915      1.0  0.38153  0.85482  0.29237  1.0000
  H   H916      1.0  0.38485  0.83879  0.31361  1.0000
  H   H917      1.0  0.38668  0.85780  0.32860  1.0000
  H   H918      1.0  0.45013  0.82767  0.26133  1.0000
  H   H919      1.0  0.43164  0.81329  0.27584  1.0000
  H   H920      1.0  0.43328  0.82173  0.23996  1.0000
  H   H921      1.0  0.46031  0.90033  0.26586  1.0000
  H   H922      1.0  0.47580  0.89279  0.25234  1.0000
  H   H923      1.0  0.45609  0.88532  0.23961  1.0000
  H   H924      1.0  0.34168  0.80754  0.07027  1.0000
  H   H925      1.0  0.36742  0.81537  0.04138  1.0000
  C   C529      1.0  0.36249  0.55502  0.29908  1.0000
  C   C530      1.0  0.30561  0.79929  0.00155  1.0000
  C   C531      1.0  0.38974  0.81446  0.00304  1.0000
  H   H926      1.0  0.42065  0.54605  0.47001  1.0000
  C   C532      1.0  0.47562  0.66811  0.30349  1.0000
  H   H927      1.0  0.28574  0.52634  0.99751  1.0000
  H   H928      1.0  0.42902  0.97209  0.40364  1.0000
  C   C533      1.0  0.40418  0.81307  0.01932  1.0000
  C   C534      1.0  0.37612  0.58746  0.23685  1.0000
  H   H929      1.0  0.48236  0.73394  0.19038  1.0000
  H   H930      1.0  0.36820  0.56444  0.34071  1.0000
  H   H931      1.0  0.36019  0.54564  0.01378  1.0000
  C   C535      1.0  0.41910  0.82728  0.01127  1.0000
  H   H932      1.0  0.46993  0.70316  0.28127  1.0000
  H   H933      1.0  0.47285  0.80911  0.99810  1.0000
  H   H934      1.0  0.48688  0.94380  0.32232  1.0000
  C   C536      1.0  0.38223  0.55534  0.23182  1.0000
  C   C537      1.0  0.47269  0.65110  0.99704  1.0000
  C   C538      1.0  0.39968  0.53131  0.29024  1.0000
  C   C539      1.0  0.25915  0.75116  0.05757  1.0000
  H   H935      1.0  0.31734  0.56511  0.27915  1.0000
  H   H936      1.0  0.34693  0.58127  0.23497  1.0000
  H   H937      1.0  0.38334  0.97934  0.45575  1.0000
  H   H938      1.0  0.28259  0.76731  0.99499  1.0000
  H   H939      1.0  0.40176  0.81270  0.04264  1.0000
  H   H940      1.0  0.40711  0.80214  0.01400  1.0000
  H   H941      1.0  0.48546  0.66863  0.25039  1.0000
  H   H942      1.0  0.37416  0.80415  0.26678  1.0000
  H   H943      1.0  0.34516  0.49597  0.21192  1.0000
  H   H944      1.0  0.43761  0.68843  0.11225  1.0000
  H   H945      1.0  0.47561  0.56971  0.28894  1.0000
  H   H946      1.0  0.47177  0.69489  0.31527  1.0000
  H   H947      1.0  0.40409  0.85749  0.20935  1.0000
  H   H948      1.0  0.34977  0.55373  0.30378  1.0000
  H   H949      1.0  0.36029  0.89695  0.48305  1.0000
  H   H950      1.0  0.33821  0.50256  0.02645  1.0000
  H   H951      1.0  0.42919  0.82600  0.02333  1.0000
  H   H952      1.0  0.26496  0.75012  0.99956  1.0000
  C   C540      1.0  0.24319  0.80786  0.26137  1.0000
  H   H953      1.0  0.44814  0.96442  0.28909  1.0000
  Fe  Fe75      1.0  0.40001  0.50580  0.37591  1.0000
  S   S142      1.0  0.48309  0.84154  0.23147  1.0000
  N   N27       1.0  0.36963  0.56882  0.05639  1.0000
  C   C541      1.0  0.37175  0.57074  0.02434  1.0000
  C   C542      1.0  0.38203  0.58222  0.06958  1.0000
  C   C543      1.0  0.37219  0.55313  0.06537  1.0000
  C   C544      1.0  0.35301  0.56789  0.06703  1.0000
  C   C545      1.0  0.34743  0.58237  0.05869  1.0000
  H   H954      1.0  0.48627  0.51736  0.35024  1.0000
  C   C546      1.0  0.37458  0.55056  0.09745  1.0000
  C   C547      1.0  0.38714  0.59910  0.05399  1.0000
  C   C548      1.0  0.39702  0.61180  0.07275  1.0000
  C   C549      1.0  0.32962  0.57877  0.06603  1.0000
  C   C550      1.0  0.37868  0.86100  0.17262  1.0000
  C   C551      1.0  0.37477  0.53354  0.10467  1.0000
  H   H955      1.0  0.26386  0.76998  0.00554  1.0000
  H   H956      1.0  0.24931  0.72496  0.09432  1.0000
  H   H957      1.0  0.37808  0.58332  0.09198  1.0000
  H   H958      1.0  0.39341  0.57937  0.07080  1.0000
  H   H959      1.0  0.38283  0.55182  0.05348  1.0000
  H   H960      1.0  0.36189  0.54280  0.06002  1.0000
  H   H961      1.0  0.34413  0.55682  0.06028  1.0000
  H   H962      1.0  0.35178  0.56658  0.09060  1.0000
  H   H963      1.0  0.34949  0.58570  0.03563  1.0000
  H   H964      1.0  0.35375  0.59273  0.07090  1.0000
  H   H965      1.0  0.26760  0.79240  0.13300  1.0000
  C   C552      1.0  0.24210  0.71305  0.17442  1.0000
  H   H966      1.0  0.36495  0.55264  0.11078  1.0000
  H   H967      1.0  0.38606  0.55886  0.10364  1.0000
  C   C553      1.0  0.35972  0.55781  0.00805  1.0000
  H   H968      1.0  0.37691  0.60281  0.04755  1.0000
  H   H969      1.0  0.40117  0.62363  0.06074  1.0000
  H   H970      1.0  0.38974  0.61280  0.09194  1.0000
  H   H971      1.0  0.40765  0.60875  0.07952  1.0000
  H   H972      1.0  0.32591  0.58921  0.05913  1.0000
  H   H973      1.0  0.32253  0.56815  0.05516  1.0000
  H   H974      1.0  0.32704  0.57659  0.08936  1.0000
  H   H975      1.0  0.39467  0.59918  0.03444  1.0000
  C   C554      1.0  0.38390  0.82818  0.22400  1.0000
  C   C555      1.0  0.47031  0.61871  0.29314  1.0000
  H   H976      1.0  0.37662  0.53212  0.12765  1.0000
  H   H977      1.0  0.36323  0.52465  0.10017  1.0000
  H   H978      1.0  0.38457  0.53105  0.09217  1.0000
  C   C556      1.0  0.41929  0.97289  0.39133  1.0000
  C   C557      1.0  0.27122  0.76189  0.00795  1.0000
  H   H979      1.0  0.45169  0.93543  0.44254  1.0000
  H   H980      1.0  0.44450  0.66425  0.03017  1.0000
  H   H981      1.0  0.42391  0.86607  0.41623  1.0000
  H   H982      1.0  0.38370  0.78298  0.02627  1.0000
  H   H983      1.0  0.45280  0.58464  0.31600  1.0000
  H   H984      1.0  0.45810  0.71362  0.01846  1.0000
  H   H985      1.0  0.34799  0.81510  0.00982  1.0000
  S   S143      1.0  0.48732  0.64277  0.21603  1.0000
  H   H986      1.0  0.38446  0.97566  0.34689  1.0000
  C   C558      1.0  0.35333  0.50222  0.29171  1.0000
  S   S144      1.0  0.41102  0.53139  0.38591  1.0000
  H   H987      1.0  0.39297  0.53905  0.21209  1.0000
  H   H988      1.0  0.41322  0.75972  0.13996  1.0000
  H   H989      1.0  0.39160  0.56565  0.22107  1.0000
  C   C559      1.0  0.45059  0.59499  0.22278  1.0000
  C   C560      1.0  0.27612  0.75020  0.09876  1.0000
  C   C561      1.0  0.27469  0.75990  0.03914  1.0000
  H   H990      1.0  0.25987  0.83100  0.17429  1.0000
  H   H991      1.0  0.38865  0.58737  0.23510  1.0000
  H   H992      1.0  0.46251  0.55624  0.42543  1.0000
  C   C562      1.0  0.39424  0.97483  0.35922  1.0000
  H   H993      1.0  0.39136  0.82011  0.22556  1.0000
  H   H994      1.0  0.48402  0.75546  0.10241  1.0000
  H   H995      1.0  0.38270  0.60397  0.27127  1.0000
  H   H996      1.0  0.37091  0.58241  0.01618  1.0000
  H   H997      1.0  0.45091  0.75751  0.02248  1.0000
  H   H998      1.0  0.33312  0.78691  0.08293  1.0000
  H   H999      1.0  0.24279  0.81564  0.24253  1.0000
  H   H1000     1.0  0.28074  0.73816  0.17092  1.0000
  H   H1001     1.0  0.35655  0.52226  0.44227  1.0000
  C   C563      1.0  0.48913  0.95661  0.31574  1.0000
  H   H1002     1.0  0.38165  0.50480  0.43825  1.0000
  H   H1003     1.0  0.36919  0.58056  0.29425  1.0000
  H   H1004     1.0  0.47269  0.95969  0.34773  1.0000
  C   C564      1.0  0.42773  0.93483  0.45504  1.0000
  H   H1005     1.0  0.29999  0.72521  0.09330  1.0000
  C   C565      1.0  0.26457  0.82100  0.16966  1.0000
  H   H1006     1.0  0.44100  0.71456  0.08788  1.0000
  H   H1007     1.0  0.43296  0.52783  0.48274  1.0000
  H   H1008     1.0  0.42966  0.57478  0.38555  1.0000
  C   C566      1.0  0.26565  0.56466  0.21497  1.0000
  H   H1009     1.0  0.41969  0.95552  0.44909  1.0000
  H   H1010     1.0  0.46378  0.73991  0.07245  1.0000
  H   H1011     1.0  0.27713  0.82601  0.16101  1.0000
  C   C567      1.0  0.44311  0.93070  0.46125  1.0000
  C   C568      1.0  0.44838  0.79995  0.01405  1.0000
  H   H1012     1.0  0.48850  0.77883  0.15039  1.0000
  H   H1013     1.0  0.41066  0.77005  0.10767  1.0000
  C   C569      1.0  0.37418  0.84553  0.19250  1.0000
  H   H1014     1.0  0.46194  0.58327  0.26921  1.0000
  H   H1015     1.0  0.45657  0.68353  0.25363  1.0000
  C   C570      1.0  0.48384  0.61587  0.30396  1.0000
  H   H1016     1.0  0.38773  0.83699  0.24064  1.0000
  C   C571      1.0  0.30050  0.84459  0.29049  1.0000
  H   H1017     1.0  0.27671  0.81598  0.29214  1.0000
  H   H1018     1.0  0.44385  0.88417  0.44536  1.0000
  C   C572      1.0  0.47672  0.97910  0.31413  1.0000
  H   H1019     1.0  0.38401  0.57092  0.01738  1.0000
  H   H1020     1.0  0.25058  0.80473  0.20274  1.0000
  H   H1021     1.0  0.36274  0.83720  0.18589  1.0000
  H   H1022     1.0  0.25676  0.51022  0.09842  1.0000
  C   C573      1.0  0.29290  0.81983  0.00385  1.0000
  C   C574      1.0  0.41352  0.75942  0.11642  1.0000
  C   C575      1.0  0.27645  0.51456  0.99709  1.0000
  C   C576      1.0  0.45735  0.91102  0.47058  1.0000
  C   C577      1.0  0.43446  0.74523  0.11627  1.0000
  H   H1023     1.0  0.26764  0.82993  0.22419  1.0000
  N   N28       1.0  0.37417  0.80121  0.00969  1.0000
  H   H1024     1.0  0.37259  0.52982  0.22528  1.0000
  C   C578      1.0  0.45444  0.65964  0.02783  1.0000
  H   H1025     1.0  0.47699  0.50529  0.39700  1.0000
  H   H1026     1.0  0.36764  0.87741  0.15334  1.0000
  H   H1027     1.0  0.30100  0.74030  0.11838  1.0000
  H   H1028     1.0  0.48118  0.97920  0.37540  1.0000
  H   H1029     1.0  0.24459  0.54520  0.22629  1.0000
  H   H1030     1.0  0.44846  0.58657  0.36815  1.0000
  C   C579      1.0  0.27167  0.50823  0.02794  1.0000
  H   H1031     1.0  0.26825  0.80046  0.19096  1.0000
  H   H1032     1.0  0.46409  0.95316  0.31516  1.0000
  C   C580      1.0  0.27260  0.81998  0.22051  1.0000
  H   H1033     1.0  0.28504  0.82598  0.21165  1.0000
  C   C581      1.0  0.36543  0.81070  0.26368  1.0000
  H   H1034     1.0  0.38391  0.57280  0.28023  1.0000
  H   H1035     1.0  0.25736  0.50450  0.18030  1.0000
  H   H1036     1.0  0.35325  0.80227  0.26890  1.0000
  H   H1037     1.0  0.46059  0.62877  0.25833  1.0000
  C   C582      1.0  0.47613  0.70436  0.99794  1.0000
  H   H1038     1.0  0.35271  0.79815  0.09275  1.0000
  H   H1039     1.0  0.27112  0.83052  0.27207  1.0000
  H   H1040     1.0  0.29813  0.84054  0.24612  1.0000
  H   H1041     1.0  0.44996  0.58619  0.20635  1.0000
  C   C583      1.0  0.43068  0.95287  0.45484  1.0000
  H   H1042     1.0  0.25226  0.78985  0.24259  1.0000
  H   H1043     1.0  0.27530  0.78230  0.27906  1.0000
  C   C584      1.0  0.36993  0.55483  0.32770  1.0000
  C   C585      1.0  0.34429  0.51050  0.27732  1.0000
  C   C586      1.0  0.43302  0.85466  0.19345  1.0000
  C   C587      1.0  0.33239  0.51148  0.02223  1.0000
  H   H1044     1.0  0.26690  0.51656  0.03975  1.0000
  S   S145      1.0  0.30424  0.51018  0.15660  1.0000
  N   N29       1.0  0.27269  0.81063  0.24807  1.0000
  C   C588      1.0  0.25626  0.79965  0.25744  1.0000
  C   C589      1.0  0.44072  0.57615  0.31329  1.0000
  H   H1045     1.0  0.47878  0.84204  0.33717  1.0000
  H   H1046     1.0  0.45504  0.77119  0.06794  1.0000
  H   H1047     1.0  0.44255  0.65926  0.30396  1.0000
  H   H1048     1.0  0.45219  0.56756  0.24735  1.0000
  H   H1049     1.0  0.31014  0.79109  0.25634  1.0000
  N   N30       1.0  0.47466  0.68038  0.28084  1.0000
  C   C590      1.0  0.29765  0.73669  0.09664  1.0000
  H   H1050     1.0  0.42570  0.73477  0.10757  1.0000
  H   H1051     1.0  0.43014  0.58991  0.35830  1.0000
  N   N31       1.0  0.38641  0.83682  0.19489  1.0000
  H   H1052     1.0  0.45867  0.75819  0.14700  1.0000
  C   C591      1.0  0.28354  0.80058  0.24349  1.0000
  C   C592      1.0  0.27844  0.82232  0.27073  1.0000
  H   H1053     1.0  0.25644  0.79342  0.27836  1.0000
  H   H1054     1.0  0.27859  0.79143  0.22794  1.0000
  H   H1055     1.0  0.37262  0.58846  0.21460  1.0000
  H   H1056     1.0  0.44019  0.98021  0.34236  1.0000
  C   C593      1.0  0.44114  0.71403  0.11139  1.0000
  C   C594      1.0  0.24357  0.74012  0.18649  1.0000
  C   C595      1.0  0.46261  0.75871  0.12413  1.0000
  C   C596      1.0  0.26030  0.74542  0.18206  1.0000
  C   C597      1.0  0.29837  0.78248  0.26365  1.0000
  H   H1057     1.0  0.29994  0.77567  0.28306  1.0000
  H   H1058     1.0  0.25750  0.52471  0.99375  1.0000
  N   N32       1.0  0.44119  0.91322  0.46744  1.0000
  H   H1059     1.0  0.46831  0.56934  0.32536  1.0000
  H   H1060     1.0  0.35287  0.77898  0.05486  1.0000
  H   H1061     1.0  0.28602  0.76027  0.08859  1.0000
  C   C598      1.0  0.48022  0.75888  0.12324  1.0000
  C   C599      1.0  0.43562  0.58068  0.36496  1.0000
  H   H1062     1.0  0.41702  0.83310  0.17888  1.0000
  C   C600      1.0  0.48041  0.64837  0.02131  1.0000
  H   H1063     1.0  0.45073  0.72905  0.14567  1.0000
  H   H1064     1.0  0.37701  0.75563  0.98975  1.0000
  C   C601      1.0  0.45076  0.55398  0.29826  1.0000
  C   C602      1.0  0.43364  0.56817  0.34276  1.0000
  H   H1065     1.0  0.37708  0.54258  0.19291  1.0000
  C   C603      1.0  0.47110  0.62671  0.26626  1.0000
  H   H1066     1.0  0.46659  0.66692  0.32126  1.0000
  H   H1067     1.0  0.48689  0.72930  0.30042  1.0000
  H   H1068     1.0  0.47047  0.75500  0.02394  1.0000
  C   C604      1.0  0.29601  0.83319  0.26647  1.0000
  C   C605      1.0  0.46809  0.56200  0.30673  1.0000
  H   H1069     1.0  0.43965  0.55960  0.35032  1.0000
  C   C606      1.0  0.45000  0.57530  0.26413  1.0000
  S   S146      1.0  0.48203  0.60599  0.33839  1.0000
  C   C607      1.0  0.46481  0.80616  0.01689  1.0000
  H   H1070     1.0  0.29532  0.80800  0.23344  1.0000
  H   H1071     1.0  0.29394  0.77387  0.24701  1.0000
  H   H1072     1.0  0.40718  0.94743  0.39496  1.0000
  N   N33       1.0  0.46462  0.98649  0.32580  1.0000
  C   C608      1.0  0.40695  0.95887  0.38623  1.0000
  H   H1073     1.0  0.45817  0.70051  0.11257  1.0000
  H   H1074     1.0  0.40424  0.74847  0.11043  1.0000
  H   H1075     1.0  0.43858  0.77132  0.10999  1.0000
  C   C609      1.0  0.41690  0.84145  0.19579  1.0000
  C   C610      1.0  0.44160  0.58665  0.25045  1.0000
  C   C611      1.0  0.47411  0.99340  0.40560  1.0000
  H   H1076     1.0  0.42884  0.71194  0.12053  1.0000
  C   C612      1.0  0.44818  0.97450  0.33131  1.0000
  C   C613      1.0  0.46211  0.76326  0.06266  1.0000
  H   H1077     1.0  0.29963  0.83777  0.31119  1.0000
  H   H1078     1.0  0.30416  0.82592  0.26637  1.0000
  H   H1079     1.0  0.44471  0.54557  0.31648  1.0000
  C   C614      1.0  0.38752  0.52758  0.45962  1.0000
  C   C615      1.0  0.48552  0.63216  0.24980  1.0000
  C   C616      1.0  0.46302  0.76247  0.03036  1.0000
  N   N34       1.0  0.36519  0.57223  0.25192  1.0000
  H   H1080     1.0  0.39452  0.51927  0.30135  1.0000
  H   H1081     1.0  0.36857  0.50434  0.46887  1.0000
  H   H1082     1.0  0.42546  0.79132  0.03712  1.0000
  H   H1083     1.0  0.39963  0.98887  0.43028  1.0000
  H   H1084     1.0  0.24544  0.55457  0.19106  1.0000
  H   H1085     1.0  0.40564  0.85580  0.17225  1.0000
  H   H1086     1.0  0.42070  0.56192  0.34188  1.0000
  H   H1087     1.0  0.44535  0.84522  0.40818  1.0000
  H   H1088     1.0  0.37129  0.84946  0.21368  1.0000
  H   H1089     1.0  0.36762  0.82050  0.27855  1.0000
  H   H1090     1.0  0.28312  0.75287  0.04002  1.0000
  H   H1091     1.0  0.35727  0.54696  0.24331  1.0000
  C   C617      1.0  0.37673  0.60326  0.25093  1.0000
  H   H1092     1.0  0.40049  0.97245  0.45385  1.0000
  C   C618      1.0  0.47590  0.54932  0.31478  1.0000
  N   N35       1.0  0.39950  0.52566  0.48019  1.0000
  H   H1093     1.0  0.44411  0.73982  0.06679  1.0000
  H   H1094     1.0  0.43189  0.74396  0.13980  1.0000
  H   H1095     1.0  0.43376  0.95732  0.47620  1.0000
  H   H1096     1.0  0.38406  0.85959  0.15173  1.0000
  H   H1097     1.0  0.46188  0.85274  0.38220  1.0000
  H   H1098     1.0  0.41789  0.92903  0.47115  1.0000
  C   C619      1.0  0.33432  0.55789  0.25233  1.0000
  S   S147      1.0  0.47957  0.80467  0.17973  1.0000
  C   C620      1.0  0.42593  0.87917  0.41492  1.0000
  H   H1099     1.0  0.41647  0.56260  0.28521  1.0000
  C   C621      1.0  0.38425  0.82447  0.17293  1.0000
  N   N36       1.0  0.44143  0.56507  0.29014  1.0000
  C   C622      1.0  0.41695  0.53873  0.29794  1.0000
  H   H1100     1.0  0.44128  0.59616  0.26492  1.0000
  H   H1101     1.0  0.45686  0.66347  0.25789  1.0000
  H   H1102     1.0  0.45127  0.54626  0.28034  1.0000
  C   C623      1.0  0.29754  0.80880  0.98800  1.0000
  C   C624      1.0  0.25694  0.76508  0.10179  1.0000
  H   H1103     1.0  0.43350  0.86354  0.20969  1.0000
  H   H1104     1.0  0.37200  0.81578  0.17531  1.0000
  H   H1105     1.0  0.36261  0.80737  0.21916  1.0000
  H   H1106     1.0  0.42167  0.90502  0.43966  1.0000
  H   H1107     1.0  0.43493  0.97614  0.29371  1.0000
  C   C625      1.0  0.40932  0.51661  0.46576  1.0000
  H   H1108     1.0  0.33490  0.54846  0.26807  1.0000
  S   S148      1.0  0.32979  0.51257  0.08065  1.0000
  H   H1109     1.0  0.24247  0.54177  0.14070  1.0000
  H   H1110     1.0  0.47005  0.69136  0.00282  1.0000
  H   H1111     1.0  0.40135  0.55957  0.46616  1.0000
  C   C626      1.0  0.42481  0.55549  0.28234  1.0000
  H   H1112     1.0  0.35865  0.86855  0.18759  1.0000
  H   H1113     1.0  0.46492  0.72907  0.11785  1.0000
  H   H1114     1.0  0.46239  0.77057  0.11559  1.0000
  C   C627      1.0  0.43307  0.50624  0.46413  1.0000
  H   H1115     1.0  0.43341  0.58385  0.30717  1.0000
  C   C628      1.0  0.36663  0.81749  0.23300  1.0000
  H   H1116     1.0  0.27398  0.80659  0.10282  1.0000
  H   H1117     1.0  0.47433  0.82880  0.29130  1.0000
  H   H1118     1.0  0.30521  0.74593  0.08078  1.0000
  S   S149      1.0  0.48323  0.53941  0.40245  1.0000
  H   H1119     1.0  0.42953  0.75969  0.08104  1.0000
  H   H1120     1.0  0.34273  0.78917  0.03257  1.0000
  H   H1121     1.0  0.35504  0.85682  0.15663  1.0000
  C   C629      1.0  0.43391  0.90435  0.44213  1.0000
  H   H1122     1.0  0.35244  0.79136  0.98759  1.0000
  H   H1123     1.0  0.45914  0.61480  0.30577  1.0000
  H   H1124     1.0  0.41594  0.83494  0.21671  1.0000
  H   H1125     1.0  0.26488  0.70991  0.16428  1.0000
  C   C630      1.0  0.31740  0.53436  0.01110  1.0000
  C   C631      1.0  0.45502  0.74625  0.07764  1.0000
  C   C632      1.0  0.43225  0.88626  0.44267  1.0000
  C   C633      1.0  0.34848  0.57356  0.25333  1.0000
  C   C634      1.0  0.36409  0.86623  0.16726  1.0000
  H   H1126     1.0  0.24987  0.75660  0.05145  1.0000
  C   C635      1.0  0.47457  0.96153  0.32446  1.0000
  C   C636      1.0  0.24769  0.55676  0.21363  1.0000
  H   H1127     1.0  0.48338  0.70575  0.05389  1.0000
  C   C637      1.0  0.24536  0.50021  0.09888  1.0000
  H   H1128     1.0  0.28665  0.82720  0.99387  1.0000
  H   H1129     1.0  0.48352  0.70231  0.23412  1.0000
  H   H1130     1.0  0.25501  0.73876  0.05017  1.0000
  H   H1131     1.0  0.34641  0.57966  0.27263  1.0000
  C   C638      1.0  0.37637  0.78494  0.00873  1.0000
  H   H1132     1.0  0.43705  0.51198  0.44251  1.0000
  H   H1133     1.0  0.30852  0.54942  0.25590  1.0000
  H   H1134     1.0  0.38619  0.55291  0.25300  1.0000
  H   H1135     1.0  0.47856  0.72637  0.01961  1.0000
  C   C639      1.0  0.47687  0.69652  0.29292  1.0000
  H   H1136     1.0  0.28091  0.77191  0.04634  1.0000
  C   C640      1.0  0.40674  0.98889  0.36403  1.0000
  S   S150      1.0  0.32911  0.51865  0.23199  1.0000
  H   H1137     1.0  0.39233  0.53881  0.29689  1.0000
  H   H1138     1.0  0.33939  0.51841  0.28881  1.0000
  C   C641      1.0  0.47055  0.71380  0.02080  1.0000
  S   S151      1.0  0.48157  0.94077  0.40224  1.0000
  C   C642      1.0  0.42578  0.95214  0.31204  1.0000
  H   H1139     1.0  0.47571  0.54137  0.29707  1.0000
  H   H1140     1.0  0.42363  0.87951  0.46009  1.0000
  H   H1141     1.0  0.31691  0.56973  0.24137  1.0000
  C   C643      1.0  0.34438  0.79626  0.07537  1.0000
  C   C644      1.0  0.48052  0.84151  0.29133  1.0000
  H   H1142     1.0  0.38288  0.55651  0.32469  1.0000
  S   S152      1.0  0.48515  0.58450  0.40761  1.0000
  H   H1143     1.0  0.24515  0.76577  0.09593  1.0000
  C   C645      1.0  0.48509  0.69067  0.22930  1.0000
  C   C646      1.0  0.38111  0.54081  0.21445  1.0000
  H   H1144     1.0  0.44862  0.93804  0.47879  1.0000
  H   H1145     1.0  0.44372  0.50576  0.47527  1.0000
  H   H1146     1.0  0.48163  0.75017  0.13987  1.0000
  C   C647      1.0  0.36347  0.51553  0.43102  1.0000
  H   H1147     1.0  0.26738  0.78496  0.06999  1.0000
  H   H1148     1.0  0.40194  0.50409  0.46299  1.0000
  H   H1149     1.0  0.35532  0.50384  0.31398  1.0000
  C   C648      1.0  0.37548  0.51188  0.45033  1.0000
  H   H1150     1.0  0.43007  0.94247  0.32092  1.0000
  C   C649      1.0  0.42434  0.51575  0.48089  1.0000
  H   H1151     1.0  0.47453  0.68377  0.21829  1.0000
  H   H1152     1.0  0.46045  0.56465  0.47460  1.0000
  H   H1153     1.0  0.30921  0.79066  0.98963  1.0000
  H   H1154     1.0  0.28232  0.50723  0.03856  1.0000
  C   C650      1.0  0.47133  0.70665  0.05057  1.0000
  H   H1155     1.0  0.49083  0.78455  0.11277  1.0000
  C   C651      1.0  0.36795  0.80300  0.03921  1.0000
  H   H1156     1.0  0.46963  0.54201  0.33406  1.0000
  H   H1157     1.0  0.47274  0.65609  0.29446  1.0000
  C   C652      1.0  0.24754  0.73596  0.10256  1.0000
  C   C653      1.0  0.48603  0.85033  0.26542  1.0000
  H   H1158     1.0  0.49066  0.64422  0.01887  1.0000
  H   H1159     1.0  0.47462  0.93517  0.46938  1.0000
  H   H1160     1.0  0.48887  0.70603  0.00156  1.0000
  C   C654      1.0  0.39652  0.98321  0.45216  1.0000
  H   H1161     1.0  0.48970  0.91566  0.47266  1.0000
  H   H1162     1.0  0.47559  0.98563  0.42371  1.0000
  C   C655      1.0  0.34745  0.49786  0.23404  1.0000
  H   H1163     1.0  0.46918  0.54912  0.48260  1.0000
  H   H1164     1.0  0.24402  0.57985  0.21688  1.0000
  H   H1165     1.0  0.24858  0.73502  0.12591  1.0000
  C   C656      1.0  0.35587  0.81676  0.99020  1.0000
  H   H1166     1.0  0.26258  0.49619  0.02892  1.0000
  C   C657      1.0  0.48660  0.68098  0.25664  1.0000
  H   H1167     1.0  0.36559  0.82829  0.99075  1.0000
  H   H1168     1.0  0.49042  0.64641  0.32508  1.0000
  C   C658      1.0  0.36269  0.80260  0.98769  1.0000
  C   C659      1.0  0.32253  0.52715  0.98814  1.0000
  H   H1169     1.0  0.48849  0.55522  0.31945  1.0000
  H   H1170     1.0  0.42708  0.57440  0.48648  1.0000
  C   C660      1.0  0.41069  0.54186  0.48674  1.0000
  C   C661      1.0  0.48252  0.49562  0.39485  1.0000
  H   H1171     1.0  0.44563  0.68441  0.98795  1.0000
  H   H1172     1.0  0.42251  0.82763  0.98823  1.0000
  S   S153      1.0  0.45802  0.56728  0.66199  1.0000
  H   H1173     1.0  0.40193  0.50605  0.78310  1.0000
  Fe  Fe76      1.0  0.46637  0.64741  0.92287  1.0000
  S   S154      1.0  0.44228  0.65041  0.92711  1.0000
  S   S155      1.0  0.48036  0.64850  0.96266  1.0000
  Fe  Fe77      1.0  0.46356  0.64052  0.85913  1.0000
  S   S156      1.0  0.43913  0.64359  0.86020  1.0000
  Fe  Fe78      1.0  0.44940  0.66507  0.88573  1.0000
  S   S157      1.0  0.44038  0.68661  0.88140  1.0000
  Fe  Fe79      1.0  0.43438  0.62891  0.90130  1.0000
  S   S158      1.0  0.41264  0.60836  0.91697  1.0000
  S   S159      1.0  0.47422  0.66326  0.88216  1.0000
  S   S160      1.0  0.45805  0.62470  0.89954  1.0000
  Fe  Fe80      1.0  0.46493  0.77940  0.89196  1.0000
  S   S161      1.0  0.47526  0.80209  0.91482  1.0000
  S   S162      1.0  0.47821  0.76120  0.88614  1.0000
  Fe  Fe81      1.0  0.43600  0.78878  0.87686  1.0000
  S   S163      1.0  0.44401  0.81197  0.89836  1.0000
  S   S164      1.0  0.41400  0.78041  0.85201  1.0000
  Fe  Fe82      1.0  0.46814  0.81477  0.87702  1.0000
  H   H1174     1.0  0.28852  0.53938  0.95562  1.0000
  Fe  Fe83      1.0  0.45032  0.79748  0.93422  1.0000
  H   H1175     1.0  0.31792  0.92456  0.63881  1.0000
  S   S165      1.0  0.45956  0.79236  0.85356  1.0000
  S   S166      1.0  0.44059  0.77403  0.91341  1.0000
  H   H1176     1.0  0.30068  0.53753  0.78137  1.0000
  S   S167      1.0  0.32520  0.53491  0.82303  1.0000
  Fe  Fe84      1.0  0.32406  0.52928  0.90621  1.0000
  S   S168      1.0  0.31924  0.54985  0.88251  1.0000
  H   H1177     1.0  0.37425  0.97982  0.52609  1.0000
  Fe  Fe85      1.0  0.30444  0.53160  0.85482  1.0000
  S   S169      1.0  0.28093  0.53516  0.84307  1.0000
  Fe  Fe86      1.0  0.34024  0.55114  0.85355  1.0000
  S   S170      1.0  0.35868  0.57410  0.83599  1.0000
  S   S171      1.0  0.34642  0.53191  0.87852  1.0000
  Fe  Fe87      1.0  0.31375  0.80036  0.85220  1.0000
  S   S172      1.0  0.32094  0.77789  0.85563  1.0000
  S   S173      1.0  0.31651  0.81434  0.80870  1.0000
  Fe  Fe88      1.0  0.30244  0.79637  0.91610  1.0000
  S   S174      1.0  0.30879  0.77405  0.92329  1.0000
  S   S175      1.0  0.29223  0.80740  0.95188  1.0000
  Fe  Fe89      1.0  0.33100  0.78721  0.89670  1.0000
  S   S176      1.0  0.35454  0.79127  0.91596  1.0000
  Fe  Fe90      1.0  0.29765  0.76657  0.88183  1.0000
  S   S177      1.0  0.28243  0.74006  0.88190  1.0000
  S   S178      1.0  0.32530  0.81017  0.89170  1.0000
  S   S179      1.0  0.28980  0.78839  0.87605  1.0000
  C   C662      1.0  0.37880  0.88786  0.49696  1.0000
  Fe  Fe91      1.0  0.37066  0.88862  0.69574  1.0000
  S   S180      1.0  0.37328  0.87276  0.66077  1.0000
  S   S181      1.0  0.36020  0.87968  0.74164  1.0000
  Fe  Fe92      1.0  0.39323  0.91964  0.66191  1.0000
  S   S182      1.0  0.39773  0.90516  0.62622  1.0000
  S   S183      1.0  0.40635  0.94594  0.64830  1.0000
  Fe  Fe93      1.0  0.37161  0.89242  0.62947  1.0000
  S   S184      1.0  0.35888  0.89189  0.58796  1.0000
  Fe  Fe94      1.0  0.39913  0.88724  0.66006  1.0000
  S   S185      1.0  0.41880  0.87638  0.66177  1.0000
  S   S186      1.0  0.36668  0.90733  0.66457  1.0000
  S   S187      1.0  0.39694  0.90254  0.69556  1.0000
  N   N37       1.0  0.36304  0.94678  0.59675  1.0000
  H   H1178     1.0  0.40547  0.95551  0.70748  1.0000
  C   C663      1.0  0.36703  0.89060  0.55313  1.0000
  C   C664      1.0  0.38010  0.88507  0.54883  1.0000
  C   C665      1.0  0.38579  0.88354  0.52098  1.0000
  H   H1179     1.0  0.28467  0.54206  0.90383  1.0000
  H   H1180     1.0  0.25240  0.65475  0.88305  1.0000
  C   C666      1.0  0.35997  0.89488  0.52913  1.0000
  H   H1181     1.0  0.38555  0.88160  0.56701  1.0000
  H   H1182     1.0  0.39561  0.87882  0.51801  1.0000
  C   C667      1.0  0.25535  0.50793  0.85950  1.0000
  H   H1183     1.0  0.34978  0.89906  0.53210  1.0000
  C   C668      1.0  0.46351  0.91679  0.67844  1.0000
  C   C669      1.0  0.45027  0.92031  0.66853  1.0000
  C   C670      1.0  0.43651  0.90787  0.66332  1.0000
  C   C671      1.0  0.43604  0.89192  0.66771  1.0000
  C   C672      1.0  0.44931  0.88841  0.67734  1.0000
  C   C673      1.0  0.46299  0.90085  0.68291  1.0000
  H   H1184     1.0  0.45064  0.93261  0.66472  1.0000
  H   H1185     1.0  0.42634  0.91072  0.65574  1.0000
  H   H1186     1.0  0.44895  0.87609  0.68082  1.0000
  H   H1187     1.0  0.46278  0.96656  0.74606  1.0000
  C   C674      1.0  0.32955  0.83224  0.79045  1.0000
  C   C675      1.0  0.32880  0.83444  0.76083  1.0000
  C   C676      1.0  0.33838  0.84858  0.74546  1.0000
  C   C677      1.0  0.34881  0.86092  0.75950  1.0000
  C   C678      1.0  0.34964  0.85869  0.78915  1.0000
  C   C679      1.0  0.34019  0.84445  0.80448  1.0000
  H   H1188     1.0  0.32060  0.82517  0.74964  1.0000
  H   H1189     1.0  0.33742  0.85007  0.72279  1.0000
  H   H1190     1.0  0.35749  0.86818  0.80040  1.0000
  H   H1191     1.0  0.34080  0.84315  0.82722  1.0000
  H   H1192     1.0  0.39238  0.76348  0.96169  1.0000
  H   H1193     1.0  0.39253  0.55296  0.50125  1.0000
  C   C680      1.0  0.41772  0.98110  0.70522  1.0000
  H   H1194     1.0  0.48243  0.76525  0.96096  1.0000
  C   C681      1.0  0.41653  0.52578  0.57744  1.0000
  C   C682      1.0  0.26069  0.52449  0.85330  1.0000
  C   C683      1.0  0.24397  0.66186  0.84372  1.0000
  H   H1195     1.0  0.42906  0.61978  0.80858  1.0000
  H   H1196     1.0  0.46377  0.59819  0.57444  1.0000
  H   H1197     1.0  0.45951  0.58949  0.82666  1.0000
  C   C684      1.0  0.48295  0.83848  0.79596  1.0000
  H   H1198     1.0  0.24524  0.79219  0.88259  1.0000
  H   H1199     1.0  0.38973  0.50723  0.73622  1.0000
  C   C685      1.0  0.43105  0.54087  0.57468  1.0000
  H   H1200     1.0  0.45296  0.99062  0.73000  1.0000
  C   C686      1.0  0.39725  0.78298  0.86980  1.0000
  C   C687      1.0  0.38214  0.77695  0.85896  1.0000
  C   C688      1.0  0.36883  0.77959  0.87264  1.0000
  C   C689      1.0  0.37072  0.78827  0.89708  1.0000
  C   C690      1.0  0.38584  0.79448  0.90751  1.0000
  C   C691      1.0  0.39903  0.79168  0.89414  1.0000
  H   H1201     1.0  0.38076  0.77018  0.84012  1.0000
  H   H1202     1.0  0.35712  0.77471  0.86463  1.0000
  H   H1203     1.0  0.38740  0.80146  0.92607  1.0000
  H   H1204     1.0  0.41058  0.79630  0.90268  1.0000
  C   C692      1.0  0.39746  0.59948  0.89435  1.0000
  C   C693      1.0  0.39822  0.60486  0.86588  1.0000
  C   C694      1.0  0.38611  0.59712  0.84823  1.0000
  C   C695      1.0  0.37332  0.58388  0.85889  1.0000
  C   C696      1.0  0.37245  0.57868  0.88750  1.0000
  C   C697      1.0  0.38443  0.58656  0.90521  1.0000
  H   H1205     1.0  0.40815  0.61489  0.85740  1.0000
  H   H1206     1.0  0.38667  0.60129  0.82619  1.0000
  H   H1207     1.0  0.36254  0.56858  0.89597  1.0000
  H   H1208     1.0  0.38376  0.58244  0.92729  1.0000
  C   C698      1.0  0.45130  0.70729  0.88185  1.0000
  C   C699      1.0  0.44288  0.71827  0.88548  1.0000
  C   C700      1.0  0.45096  0.73476  0.88673  1.0000
  C   C701      1.0  0.46761  0.74051  0.88417  1.0000
  C   C702      1.0  0.47607  0.72955  0.88033  1.0000
  C   C703      1.0  0.46797  0.71302  0.87909  1.0000
  H   H1209     1.0  0.42999  0.71401  0.88743  1.0000
  H   H1210     1.0  0.44427  0.74302  0.88955  1.0000
  H   H1211     1.0  0.42112  0.50983  0.50248  1.0000
  H   H1212     1.0  0.47461  0.70475  0.87576  1.0000
  C   C704      1.0  0.30015  0.84890  0.83992  1.0000
  C   C705      1.0  0.29343  0.50447  0.78431  1.0000
  H   H1213     1.0  0.44009  0.85508  0.59153  1.0000
  H   H1214     1.0  0.37056  0.52904  0.66594  1.0000
  H   H1215     1.0  0.31035  0.84398  0.83941  1.0000
  H   H1216     1.0  0.44057  0.52862  0.83737  1.0000
  C   C706      1.0  0.45058  0.54646  0.66597  1.0000
  C   C707      1.0  0.45982  0.53774  0.67758  1.0000
  C   C708      1.0  0.45357  0.52109  0.68189  1.0000
  H   H1217     1.0  0.45647  0.71070  0.93899  1.0000
  H   H1218     1.0  0.28887  0.83248  0.90788  1.0000
  C   C709      1.0  0.43526  0.53851  0.65798  1.0000
  H   H1219     1.0  0.47167  0.54378  0.68386  1.0000
  H   H1220     1.0  0.45206  0.71428  0.97438  1.0000
  H   H1221     1.0  0.32774  0.85715  0.93127  1.0000
  H   H1222     1.0  0.42813  0.54525  0.64887  1.0000
  N   N38       1.0  0.37593  0.81894  0.80193  1.0000
  C   C710      1.0  0.37129  0.82880  0.77898  1.0000
  C   C711      1.0  0.36803  0.82100  0.82996  1.0000
  C   C712      1.0  0.39384  0.82448  0.80268  1.0000
  C   C713      1.0  0.37040  0.80141  0.79615  1.0000
  C   C714      1.0  0.35261  0.79431  0.78961  1.0000
  C   C715      1.0  0.37806  0.82789  0.74837  1.0000
  C   C716      1.0  0.40066  0.81605  0.82609  1.0000
  C   C717      1.0  0.37507  0.83739  0.84320  1.0000
  C   C718      1.0  0.36616  0.83791  0.87145  1.0000
  C   C719      1.0  0.34774  0.77612  0.78853  1.0000
  C   C720      1.0  0.37077  0.83630  0.72637  1.0000
  C   C721      1.0  0.41840  0.82461  0.82876  1.0000
  H   H1223     1.0  0.37527  0.84165  0.78364  1.0000
  H   H1224     1.0  0.35811  0.82554  0.77875  1.0000
  H   H1225     1.0  0.35515  0.81934  0.82766  1.0000
  H   H1226     1.0  0.36816  0.81147  0.84619  1.0000
  H   H1227     1.0  0.39847  0.83767  0.80437  1.0000
  H   H1228     1.0  0.39940  0.82225  0.78233  1.0000
  H   H1229     1.0  0.37775  0.79885  0.77836  1.0000
  H   H1230     1.0  0.37233  0.79420  0.81477  1.0000
  H   H1231     1.0  0.35039  0.79922  0.76868  1.0000
  H   H1232     1.0  0.34468  0.79707  0.80605  1.0000
  H   H1233     1.0  0.39113  0.83393  0.74646  1.0000
  H   H1234     1.0  0.37561  0.81535  0.74250  1.0000
  H   H1235     1.0  0.39934  0.80362  0.82043  1.0000
  H   H1236     1.0  0.39452  0.81554  0.84725  1.0000
  H   H1237     1.0  0.38774  0.83962  0.84778  1.0000
  H   H1238     1.0  0.37424  0.84734  0.82878  1.0000
  H   H1239     1.0  0.36662  0.82809  0.88666  1.0000
  H   H1240     1.0  0.37173  0.84951  0.88097  1.0000
  H   H1241     1.0  0.35353  0.83675  0.86813  1.0000
  H   H1242     1.0  0.33502  0.77140  0.78352  1.0000
  H   H1243     1.0  0.35510  0.77269  0.77184  1.0000
  H   H1244     1.0  0.34912  0.77054  0.80944  1.0000
  H   H1245     1.0  0.37631  0.83603  0.70488  1.0000
  H   H1246     1.0  0.35776  0.83012  0.72602  1.0000
  H   H1247     1.0  0.37287  0.84901  0.73107  1.0000
  H   H1248     1.0  0.42029  0.83689  0.83579  1.0000
  H   H1249     1.0  0.42304  0.81792  0.84491  1.0000
  H   H1250     1.0  0.42523  0.82516  0.80820  1.0000
  N   N39       1.0  0.46236  0.55002  0.57225  1.0000
  H   H1251     1.0  0.34272  0.51154  0.72320  1.0000
  H   H1252     1.0  0.48342  0.60556  0.58742  1.0000
  H   H1253     1.0  0.30545  0.86184  0.84372  1.0000
  H   H1254     1.0  0.44575  0.93868  0.75365  1.0000
  C   C722      1.0  0.43370  0.56562  0.83292  1.0000
  H   H1255     1.0  0.46931  0.89063  0.76219  1.0000
  H   H1256     1.0  0.28708  0.86304  0.87933  1.0000
  C   C723      1.0  0.36589  0.89367  0.50123  1.0000
  H   H1257     1.0  0.26263  0.67516  0.87029  1.0000
  H   H1258     1.0  0.44725  0.54845  0.51783  1.0000
  N   N40       1.0  0.28811  0.84056  0.86394  1.0000
  H   H1259     1.0  0.39094  0.54145  0.65836  1.0000
  H   H1260     1.0  0.40182  0.70139  0.91419  1.0000
  H   H1261     1.0  0.36718  0.61926  0.91453  1.0000
  H   H1262     1.0  0.33997  0.93267  0.58381  1.0000
  H   H1263     1.0  0.40254  0.54886  0.76526  1.0000
  H   H1264     1.0  0.40370  0.86638  0.57946  1.0000
  H   H1265     1.0  0.37460  0.95732  0.68079  1.0000
  H   H1266     1.0  0.26384  0.50139  0.85950  1.0000
  H   H1267     1.0  0.45164  0.55966  0.76252  1.0000
  H   H1268     1.0  0.38696  0.92702  0.53735  1.0000
  H   H1269     1.0  0.40540  0.53243  0.78439  1.0000
  C   C724      1.0  0.38126  0.53701  0.67538  1.0000
  C   C725      1.0  0.43014  0.57627  0.88037  1.0000
  H   H1270     1.0  0.46706  0.79012  0.75705  1.0000
  C   C726      1.0  0.43516  0.53752  0.82873  1.0000
  H   H1271     1.0  0.40046  0.51462  0.52171  1.0000
  H   H1272     1.0  0.45612  0.87769  0.85280  1.0000
  H   H1273     1.0  0.46069  0.51442  0.69127  1.0000
  C   C727      1.0  0.41288  0.86157  0.58804  1.0000
  H   H1274     1.0  0.48157  0.98919  0.73588  1.0000
  H   H1275     1.0  0.44490  0.60121  0.80070  1.0000
  H   H1276     1.0  0.43137  0.58753  0.89139  1.0000
  H   H1277     1.0  0.34572  0.95074  0.54752  1.0000
  H   H1278     1.0  0.48278  0.86078  0.66510  1.0000
  H   H1279     1.0  0.37245  0.94224  0.63683  1.0000
  H   H1280     1.0  0.46716  0.59353  0.61099  1.0000
  H   H1281     1.0  0.37550  0.53407  0.75491  1.0000
  H   H1282     1.0  0.41568  0.98227  0.72769  1.0000
  H   H1283     1.0  0.32122  0.83622  0.92447  1.0000
  H   H1284     1.0  0.38477  0.50358  0.50220  1.0000
  N   N41       1.0  0.44359  0.87957  0.76903  1.0000
  C   C728      1.0  0.28452  0.68737  0.77141  1.0000
  C   C729      1.0  0.44297  0.86603  0.74980  1.0000
  C   C730      1.0  0.42914  0.88477  0.76396  1.0000
  C   C731      1.0  0.44275  0.87393  0.79987  1.0000
  C   C732      1.0  0.45659  0.86236  0.53910  1.0000
  C   C733      1.0  0.41271  0.87167  0.77016  1.0000
  C   C734      1.0  0.45905  0.86422  0.73883  1.0000
  C   C735      1.0  0.45648  0.84892  0.72300  1.0000
  H   H1285     1.0  0.43897  0.56902  0.81080  1.0000
  C   C736      1.0  0.39934  0.87702  0.75809  1.0000
  H   H1286     1.0  0.36858  0.80388  0.96603  1.0000
  H   H1287     1.0  0.42937  0.89345  0.49769  1.0000
  H   H1288     1.0  0.43575  0.85433  0.76048  1.0000
  H   H1289     1.0  0.43675  0.86729  0.73018  1.0000
  H   H1290     1.0  0.42978  0.88967  0.74151  1.0000
  H   H1291     1.0  0.42879  0.89467  0.77751  1.0000
  H   H1292     1.0  0.43225  0.86308  0.80471  1.0000
  C   C737      1.0  0.29150  0.51556  0.75914  1.0000
  H   H1293     1.0  0.41010  0.86935  0.79348  1.0000
  H   H1294     1.0  0.41227  0.86023  0.76078  1.0000
  C   C738      1.0  0.47434  0.54587  0.59038  1.0000
  C   C739      1.0  0.27656  0.53923  0.94905  1.0000
  H   H1295     1.0  0.37472  0.78006  0.96362  1.0000
  H   H1296     1.0  0.44869  0.84871  0.70508  1.0000
  H   H1297     1.0  0.46813  0.84841  0.71416  1.0000
  C   C740      1.0  0.34168  0.92381  0.62613  1.0000
  H   H1298     1.0  0.36359  0.97359  0.63022  1.0000
  H   H1299     1.0  0.37126  0.52563  0.51150  1.0000
  H   H1300     1.0  0.38758  0.86855  0.76575  1.0000
  H   H1301     1.0  0.39987  0.88911  0.76479  1.0000
  H   H1302     1.0  0.40019  0.87719  0.73452  1.0000
  N   N42       1.0  0.38913  0.64836  0.88564  1.0000
  C   C741      1.0  0.40186  0.65259  0.86162  1.0000
  C   C742      1.0  0.39635  0.64241  0.91065  1.0000
  C   C743      1.0  0.37522  0.63511  0.87593  1.0000
  C   C744      1.0  0.38396  0.66264  0.89216  1.0000
  C   C745      1.0  0.39777  0.67804  0.89732  1.0000
  C   C746      1.0  0.39739  0.65874  0.83290  1.0000
  H   H1303     1.0  0.46352  0.57427  0.87371  1.0000
  C   C747      1.0  0.38970  0.64402  0.94105  1.0000
  C   C748      1.0  0.36139  0.97280  0.52814  1.0000
  H   H1304     1.0  0.39460  0.79104  0.97261  1.0000
  C   C749      1.0  0.41177  0.66368  0.81144  1.0000
  H   H1305     1.0  0.38722  0.53368  0.53483  1.0000
  H   H1306     1.0  0.40565  0.64194  0.85728  1.0000
  H   H1307     1.0  0.41287  0.66169  0.86789  1.0000
  S   S188      1.0  0.48375  0.83904  0.85536  1.0000
  H   H1308     1.0  0.40941  0.64876  0.91065  1.0000
  H   H1309     1.0  0.37950  0.62590  0.86572  1.0000
  H   H1310     1.0  0.36909  0.63989  0.85929  1.0000
  H   H1311     1.0  0.27427  0.51590  0.91093  1.0000
  H   H1312     1.0  0.39144  0.63641  0.98490  1.0000
  H   H1313     1.0  0.40409  0.68363  0.87676  1.0000
  C   C750      1.0  0.38355  0.78141  0.98012  1.0000
  H   H1314     1.0  0.38781  0.64923  0.82361  1.0000
  H   H1315     1.0  0.39334  0.66934  0.83542  1.0000
  H   H1316     1.0  0.27256  0.54657  0.96455  1.0000
  H   H1317     1.0  0.25219  0.65733  0.83071  1.0000
  C   C751      1.0  0.48441  0.91922  0.49201  1.0000
  C   C752      1.0  0.42835  0.68897  0.96130  1.0000
  H   H1318     1.0  0.48639  0.55481  0.58625  1.0000
  C   C753      1.0  0.48201  0.59661  0.86362  1.0000
  C   C754      1.0  0.25343  0.79982  0.86538  1.0000
  H   H1319     1.0  0.45861  0.86083  0.64092  1.0000
  H   H1320     1.0  0.43763  0.54965  0.86741  1.0000
  H   H1321     1.0  0.48840  0.90008  0.60384  1.0000
  H   H1322     1.0  0.42162  0.67353  0.81939  1.0000
  H   H1323     1.0  0.41611  0.65335  0.80755  1.0000
  H   H1324     1.0  0.40837  0.66797  0.79095  1.0000
  H   H1325     1.0  0.38299  0.69373  0.89822  1.0000
  H   H1326     1.0  0.46620  0.98724  0.59445  1.0000
  C   C755      1.0  0.40775  0.50424  0.76277  1.0000
  C   C756      1.0  0.29092  0.56526  0.92061  1.0000
  H   H1327     1.0  0.40828  0.51018  0.71758  1.0000
  H   H1328     1.0  0.42900  0.53447  0.75927  1.0000
  C   C757      1.0  0.43469  0.91431  0.52149  1.0000
  C   C758      1.0  0.36223  0.62598  0.89898  1.0000
  C   C759      1.0  0.42112  0.90801  0.54430  1.0000
  H   H1329     1.0  0.38954  0.95355  0.55591  1.0000
  H   H1330     1.0  0.30441  0.87237  0.79367  1.0000
  C   C760      1.0  0.46860  0.55157  0.54162  1.0000
  C   C761      1.0  0.47034  0.86918  0.59836  1.0000
  H   H1331     1.0  0.44519  0.91153  0.52951  1.0000
  H   H1332     1.0  0.27201  0.84620  0.89463  1.0000
  C   C762      1.0  0.39166  0.69042  0.91153  1.0000
  C   C763      1.0  0.46054  0.90855  0.77965  1.0000
  H   H1333     1.0  0.41784  0.89484  0.54778  1.0000
  H   H1334     1.0  0.42468  0.91358  0.56469  1.0000
  H   H1335     1.0  0.41048  0.91096  0.53757  1.0000
  C   C764      1.0  0.39149  0.51603  0.50702  1.0000
  C   C765      1.0  0.34850  0.61361  0.88588  1.0000
  C   C766      1.0  0.45818  0.89385  0.76130  1.0000
  H   H1336     1.0  0.35450  0.55134  0.96484  1.0000
  C   C767      1.0  0.31128  0.85110  0.89755  1.0000
  C   C768      1.0  0.48267  0.92187  0.60100  1.0000
  H   H1337     1.0  0.46049  0.95996  0.68243  1.0000
  C   C769      1.0  0.48440  0.72613  0.95950  1.0000
  H   H1338     1.0  0.34270  0.61953  0.87043  1.0000
  C   C770      1.0  0.34501  0.50366  0.73950  1.0000
  C   C771      1.0  0.47181  0.99222  0.66692  1.0000
  H   H1339     1.0  0.44632  0.52676  0.56287  1.0000
  H   H1340     1.0  0.41708  0.51591  0.65680  1.0000
  H   H1341     1.0  0.34025  0.82751  0.96840  1.0000
  C   C772      1.0  0.48808  0.61265  0.75216  1.0000
  H   H1342     1.0  0.43881  0.53997  0.80576  1.0000
  H   H1343     1.0  0.35287  0.60473  0.87490  1.0000
  C   C773      1.0  0.47638  0.73937  0.96317  1.0000
  H   H1344     1.0  0.41724  0.51753  0.56067  1.0000
  H   H1345     1.0  0.48433  0.60715  0.73249  1.0000
  H   H1346     1.0  0.24567  0.73139  0.78299  1.0000
  C   C774      1.0  0.30538  0.86049  0.78865  1.0000
  H   H1347     1.0  0.42085  0.50841  0.76434  1.0000
  H   H1348     1.0  0.38864  0.51717  0.68939  1.0000
  H   H1349     1.0  0.33943  0.60707  0.90288  1.0000
  H   H1350     1.0  0.37726  0.51557  0.77042  1.0000
  H   H1351     1.0  0.28553  0.51416  0.94006  1.0000
  H   H1352     1.0  0.38589  0.68568  0.93287  1.0000
  C   C775      1.0  0.44552  0.94544  0.73336  1.0000
  C   C776      1.0  0.44092  0.55289  0.84451  1.0000
  H   H1353     1.0  0.32130  0.90578  0.64739  1.0000
  H   H1354     1.0  0.48080  0.90894  0.50805  1.0000
  H   H1355     1.0  0.46518  0.51937  0.58938  1.0000
  N   N43       1.0  0.26533  0.52228  0.95061  1.0000
  C   C777      1.0  0.27049  0.68556  0.79278  1.0000
  H   H1356     1.0  0.46060  0.99517  0.67090  1.0000
  H   H1357     1.0  0.43061  0.53277  0.72203  1.0000
  H   H1358     1.0  0.42757  0.69400  0.93960  1.0000
  H   H1359     1.0  0.47471  0.49833  0.72883  1.0000
  C   C778      1.0  0.46451  0.58707  0.87094  1.0000
  C   C779      1.0  0.46965  0.98316  0.63909  1.0000
  C   C780      1.0  0.48814  0.84746  0.81947  1.0000
  C   C781      1.0  0.27307  0.51215  0.93396  1.0000
  C   C782      1.0  0.41194  0.96590  0.69383  1.0000
  C   C783      1.0  0.40274  0.51307  0.73750  1.0000
  H   H1360     1.0  0.40548  0.52906  0.57541  1.0000
  H   H1361     1.0  0.45648  0.88682  0.54359  1.0000
  C   C784      1.0  0.39598  0.63476  0.96331  1.0000
  H   H1362     1.0  0.25342  0.54558  0.84812  1.0000
  H   H1363     1.0  0.32137  0.85395  0.88126  1.0000
  H   H1364     1.0  0.47390  0.68527  0.95532  1.0000
  S   S189      1.0  0.46783  0.63133  0.81553  1.0000
  H   H1365     1.0  0.46871  0.87882  0.80403  1.0000
  H   H1366     1.0  0.45000  0.97149  0.69913  1.0000
  C   C785      1.0  0.25341  0.73827  0.85878  1.0000
  C   C786      1.0  0.25698  0.86386  0.86817  1.0000
  C   C787      1.0  0.36443  0.96113  0.57694  1.0000
  C   C788      1.0  0.47827  0.99468  0.71650  1.0000
  H   H1367     1.0  0.44066  0.88304  0.81380  1.0000
  C   C789      1.0  0.40805  0.56169  0.91734  1.0000
  H   H1368     1.0  0.46108  0.90523  0.80244  1.0000
  H   H1369     1.0  0.37819  0.54728  0.68398  1.0000
  H   H1370     1.0  0.38593  0.97577  0.66118  1.0000
  C   C790      1.0  0.45726  0.86936  0.81003  1.0000
  C   C791      1.0  0.47730  0.61747  0.76973  1.0000
  H   H1371     1.0  0.28222  0.84798  0.80751  1.0000
  H   H1372     1.0  0.29017  0.53948  0.75026  1.0000
  H   H1373     1.0  0.42435  0.97695  0.62473  1.0000
  H   H1374     1.0  0.43725  0.92743  0.51915  1.0000
  H   H1375     1.0  0.48895  0.73387  0.87815  1.0000
  H   H1376     1.0  0.30792  0.84479  0.94319  1.0000
  H   H1377     1.0  0.24878  0.70883  0.81122  1.0000
  H   H1378     1.0  0.43039  0.99228  0.52010  1.0000
  H   H1379     1.0  0.46677  0.86349  0.84916  1.0000
  H   H1380     1.0  0.37539  0.56048  0.96984  1.0000
  H   H1381     1.0  0.33628  0.80655  0.96303  1.0000
  H   H1382     1.0  0.35350  0.82117  0.94500  1.0000
  C   C792      1.0  0.26198  0.51634  0.98145  1.0000
  H   H1383     1.0  0.45737  0.56908  0.52501  1.0000
  H   H1384     1.0  0.27071  0.82635  0.83631  1.0000
  H   H1385     1.0  0.42611  0.56270  0.74914  1.0000
  C   C793      1.0  0.26239  0.73032  0.87346  1.0000
  C   C794      1.0  0.38019  0.52278  0.52467  1.0000
  H   H1386     1.0  0.38037  0.54624  0.80197  1.0000
  H   H1387     1.0  0.36325  0.51595  0.56134  1.0000
  H   H1388     1.0  0.44374  0.85599  0.54396  1.0000
  H   H1389     1.0  0.45589  0.56380  0.60448  1.0000
  H   H1390     1.0  0.25440  0.68072  0.75826  1.0000
  C   C795      1.0  0.26730  0.85512  0.85345  1.0000
  H   H1391     1.0  0.26219  0.70765  0.89286  1.0000
  H   H1392     1.0  0.42072  0.55981  0.83056  1.0000
  H   H1393     1.0  0.41098  0.54045  0.69479  1.0000
  S   S190      1.0  0.48076  0.93233  0.68460  1.0000
  H   H1394     1.0  0.36795  0.97468  0.68172  1.0000
  C   C796      1.0  0.48018  0.69811  0.94892  1.0000
  C   C797      1.0  0.38634  0.52760  0.69902  1.0000
  H   H1395     1.0  0.43085  0.54740  0.55425  1.0000
  H   H1396     1.0  0.48856  0.72752  0.93658  1.0000
  H   H1397     1.0  0.48488  0.90634  0.56858  1.0000
  N   N44       1.0  0.45945  0.87748  0.58567  1.0000
  H   H1398     1.0  0.47503  0.88387  0.54740  1.0000
  N   N45       1.0  0.47545  0.98342  0.69262  1.0000
  H   H1399     1.0  0.37522  0.65978  0.91076  1.0000
  H   H1400     1.0  0.45901  0.89407  0.61822  1.0000
  H   H1401     1.0  0.48361  0.60965  0.86175  1.0000
  C   C798      1.0  0.45622  0.86665  0.84238  1.0000
  H   H1402     1.0  0.46714  0.77883  0.78979  1.0000
  H   H1403     1.0  0.42829  0.61306  0.77304  1.0000
  H   H1404     1.0  0.24619  0.80360  0.84953  1.0000
  H   H1405     1.0  0.40921  0.63913  0.96247  1.0000
  H   H1406     1.0  0.29584  0.69383  0.78095  1.0000
  C   C799      1.0  0.40160  0.53803  0.71237  1.0000
  C   C800      1.0  0.42479  0.53791  0.73889  1.0000
  H   H1407     1.0  0.48289  0.52574  0.62978  1.0000
  H   H1408     1.0  0.43127  0.87563  0.55833  1.0000
  C   C801      1.0  0.39979  0.53567  0.76538  1.0000
  C   C802      1.0  0.38823  0.94332  0.57133  1.0000
  H   H1409     1.0  0.42037  0.67638  0.96347  1.0000
  C   C803      1.0  0.44973  0.56207  0.73990  1.0000
  C   C804      1.0  0.42595  0.99481  0.68770  1.0000
  H   H1410     1.0  0.43072  0.56052  0.71242  1.0000
  H   H1411     1.0  0.45626  0.55593  0.72629  1.0000
  H   H1412     1.0  0.45482  0.57517  0.73464  1.0000
  C   C805      1.0  0.41422  0.96433  0.66469  1.0000
  H   H1413     1.0  0.31795  0.86084  0.78994  1.0000
  C   C806      1.0  0.47226  0.59526  0.58868  1.0000
  H   H1414     1.0  0.46677  0.86390  0.75641  1.0000
  Fe  Fe95      1.0  0.33037  0.51540  0.84887  1.0000
  N   N46       1.0  0.40684  0.53102  0.73865  1.0000
  C   C807      1.0  0.43197  0.55646  0.73456  1.0000
  H   H1415     1.0  0.36215  0.57257  0.96870  1.0000
  C   C808      1.0  0.45915  0.86503  0.50678  1.0000
  H   H1416     1.0  0.37717  0.66566  0.87467  1.0000
  H   H1417     1.0  0.40017  0.54987  0.71649  1.0000
  H   H1418     1.0  0.45498  0.60321  0.84922  1.0000
  H   H1419     1.0  0.29315  0.57128  0.89896  1.0000
  S   S191      1.0  0.31867  0.53272  0.95312  1.0000
  H   H1420     1.0  0.42964  0.54850  0.59214  1.0000
  H   H1421     1.0  0.35164  0.95565  0.65016  1.0000
  H   H1422     1.0  0.41772  0.90567  0.48912  1.0000
  H   H1423     1.0  0.37931  0.50753  0.56289  1.0000
  C   C809      1.0  0.27739  0.82475  0.85489  1.0000
  H   H1424     1.0  0.39330  0.92073  0.57051  1.0000
  C   C810      1.0  0.47661  0.52928  0.58628  1.0000
  H   H1425     1.0  0.46550  0.92830  0.50419  1.0000
  H   H1426     1.0  0.41807  0.56790  0.52200  1.0000
  H   H1427     1.0  0.33425  0.51011  0.97646  1.0000
  H   H1428     1.0  0.46906  0.53982  0.53466  1.0000
  H   H1429     1.0  0.27258  0.67917  0.81226  1.0000
  H   H1430     1.0  0.39622  0.94762  0.58877  1.0000
  H   H1431     1.0  0.24836  0.54507  0.94999  1.0000
  C   C811      1.0  0.37100  0.51072  0.54855  1.0000
  C   C812      1.0  0.45378  0.59031  0.84780  1.0000
  H   H1432     1.0  0.30791  0.86205  0.90024  1.0000
  C   C813      1.0  0.44545  0.68939  0.96605  1.0000
  H   H1433     1.0  0.37619  0.52295  0.71486  1.0000
  C   C814      1.0  0.24944  0.53278  0.85306  1.0000
  S   S192      1.0  0.30838  0.51084  0.87911  1.0000
  H   H1434     1.0  0.48738  0.96760  0.67454  1.0000
  C   C815      1.0  0.44248  0.86801  0.59514  1.0000
  H   H1435     1.0  0.47628  0.92552  0.74771  1.0000
  H   H1436     1.0  0.34641  0.92790  0.64681  1.0000
  C   C816      1.0  0.38151  0.52879  0.77090  1.0000
  H   H1437     1.0  0.41021  0.85900  0.61128  1.0000
  H   H1438     1.0  0.36333  0.49964  0.53964  1.0000
  H   H1439     1.0  0.47993  0.97896  0.63366  1.0000
  C   C817      1.0  0.48864  0.75608  0.96005  1.0000
  C   C818      1.0  0.37633  0.53307  0.80008  1.0000
  H   H1440     1.0  0.37656  0.63960  0.94340  1.0000
  N   N47       1.0  0.43632  0.58032  0.84969  1.0000
  C   C819      1.0  0.46059  0.56552  0.58196  1.0000
  H   H1441     1.0  0.47094  0.54632  0.61332  1.0000
  C   C820      1.0  0.31738  0.84702  0.92580  1.0000
  H   H1442     1.0  0.40678  0.93688  0.54821  1.0000
  C   C821      1.0  0.46797  0.99398  0.61403  1.0000
  C   C822      1.0  0.37142  0.95252  0.62331  1.0000
  H   H1443     1.0  0.27916  0.52946  0.78235  1.0000
  C   C823      1.0  0.47591  0.58025  0.57972  1.0000
  H   H1444     1.0  0.44558  0.53103  0.59928  1.0000
  C   C824      1.0  0.39414  0.93122  0.55589  1.0000
  H   H1445     1.0  0.41207  0.85023  0.57787  1.0000
  H   H1446     1.0  0.37107  0.92598  0.59931  1.0000
  C   C825      1.0  0.46292  0.89426  0.59543  1.0000
  H   H1447     1.0  0.35728  0.96981  0.50654  1.0000
  H   H1448     1.0  0.45084  0.91388  0.77728  1.0000
  C   C826      1.0  0.37076  0.93557  0.58340  1.0000
  H   H1449     1.0  0.45155  0.56905  0.57014  1.0000
  H   H1450     1.0  0.47735  0.69983  0.92650  1.0000
  C   C827      1.0  0.42257  0.97801  0.64729  1.0000
  C   C828      1.0  0.42901  0.52185  0.66231  1.0000
  H   H1451     1.0  0.39554  0.62971  0.90829  1.0000
  H   H1452     1.0  0.27084  0.81004  0.89526  1.0000
  H   H1453     1.0  0.43540  0.95036  0.73504  1.0000
  H   H1454     1.0  0.36506  0.95013  0.53561  1.0000
  H   H1455     1.0  0.28179  0.50622  0.98671  1.0000
  H   H1456     1.0  0.25588  0.70877  0.77471  1.0000
  H   H1457     1.0  0.31841  0.91099  0.61116  1.0000
  C   C829      1.0  0.27939  0.54830  0.91939  1.0000
  H   H1458     1.0  0.26454  0.87516  0.87654  1.0000
  H   H1459     1.0  0.39529  0.55439  0.92052  1.0000
  H   H1460     1.0  0.35733  0.96839  0.58600  1.0000
  H   H1461     1.0  0.44047  0.86840  0.61851  1.0000
  C   C830      1.0  0.35866  0.95739  0.54661  1.0000
  H   H1462     1.0  0.30197  0.85813  0.76649  1.0000
  H   H1463     1.0  0.30250  0.56493  0.92839  1.0000
  H   H1464     1.0  0.38115  0.52727  0.81731  1.0000
  H   H1465     1.0  0.46534  0.61567  0.76322  1.0000
  H   H1466     1.0  0.45867  0.97264  0.64119  1.0000
  Fe  Fe96      1.0  0.48406  0.57427  0.66864  1.0000
  C   C831      1.0  0.34558  0.93790  0.60332  1.0000
  H   H1467     1.0  0.34677  0.91449  0.61920  1.0000
  H   H1468     1.0  0.48119  0.55959  0.53927  1.0000
  H   H1469     1.0  0.48280  0.87480  0.58954  1.0000
  H   H1470     1.0  0.46706  0.85658  0.59212  1.0000
  C   C832      1.0  0.42840  0.99312  0.65868  1.0000
  C   C833      1.0  0.48283  0.86099  0.64151  1.0000
  H   H1471     1.0  0.37692  0.96936  0.57500  1.0000
  H   H1472     1.0  0.42933  0.88524  0.59067  1.0000
  H   H1473     1.0  0.36313  0.52875  0.80307  1.0000
  H   H1474     1.0  0.27083  0.69768  0.79862  1.0000
  C   C834      1.0  0.42941  0.87379  0.58173  1.0000
  H   H1475     1.0  0.38396  0.96003  0.61775  1.0000
  C   C835      1.0  0.25085  0.66568  0.87268  1.0000
  N   N48       1.0  0.47432  0.70896  0.96744  1.0000
  C   C836      1.0  0.46213  0.87848  0.55369  1.0000
  H   H1476     1.0  0.45748  0.85801  0.80095  1.0000
  H   H1477     1.0  0.33908  0.94625  0.60993  1.0000
  C   C837      1.0  0.25538  0.71393  0.88147  1.0000
  C   C838      1.0  0.48057  0.90506  0.59126  1.0000
  H   H1478     1.0  0.46983  0.73813  0.98406  1.0000
  H   H1479     1.0  0.33637  0.51482  0.77403  1.0000
  H   H1480     1.0  0.28580  0.57234  0.93487  1.0000
  C   C839      1.0  0.45714  0.70665  0.96144  1.0000
  H   H1481     1.0  0.24909  0.86686  0.85269  1.0000
  H   H1482     1.0  0.28504  0.67545  0.76563  1.0000
  H   H1483     1.0  0.36351  0.92905  0.56635  1.0000
  H   H1484     1.0  0.41080  0.55361  0.87589  1.0000
  C   C840      1.0  0.44668  0.53658  0.57723  1.0000
  H   H1485     1.0  0.25862  0.75085  0.85238  1.0000
  C   C841      1.0  0.36394  0.96261  0.64218  1.0000
  C   C842      1.0  0.48197  0.62496  0.79514  1.0000
  H   H1486     1.0  0.40415  0.57088  0.87665  1.0000
  H   H1487     1.0  0.44538  0.85666  0.84974  1.0000
  H   H1488     1.0  0.39352  0.65675  0.94643  1.0000
  H   H1489     1.0  0.30194  0.82705  0.88374  1.0000
  H   H1490     1.0  0.24264  0.66972  0.88664  1.0000
  C   C843      1.0  0.43185  0.59620  0.80487  1.0000
  H   H1491     1.0  0.47313  0.88039  0.63966  1.0000
  H   H1492     1.0  0.41420  0.58395  0.83743  1.0000
  H   H1493     1.0  0.26004  0.79254  0.85493  1.0000
  C   C844      1.0  0.42466  0.60917  0.79571  1.0000
  H   H1494     1.0  0.25220  0.50471  0.98383  1.0000
  H   H1495     1.0  0.41576  0.51939  0.59856  1.0000
  H   H1496     1.0  0.46453  0.79838  0.79045  1.0000
  H   H1497     1.0  0.27419  0.86325  0.83551  1.0000
  C   C845      1.0  0.32370  0.91586  0.63109  1.0000
  C   C846      1.0  0.29442  0.84736  0.80915  1.0000
  H   H1498     1.0  0.41145  0.60452  0.79810  1.0000
  C   C847      1.0  0.34135  0.50553  0.76837  1.0000
  H   H1499     1.0  0.47911  0.92134  0.62394  1.0000
  H   H1500     1.0  0.35727  0.63436  0.91012  1.0000
  H   H1501     1.0  0.28478  0.81737  0.84726  1.0000
  H   H1502     1.0  0.47087  0.95333  0.72652  1.0000
  C   C848      1.0  0.46136  0.96854  0.69939  1.0000
  H   H1503     1.0  0.46110  0.59096  0.89172  1.0000
  H   H1504     1.0  0.45106  0.83820  0.73770  1.0000
  H   H1505     1.0  0.47542  0.92774  0.58865  1.0000
  C   C849      1.0  0.42717  0.59047  0.83659  1.0000
  H   H1506     1.0  0.47290  0.89809  0.69167  1.0000
  H   H1507     1.0  0.28667  0.50649  0.80338  1.0000
  H   H1508     1.0  0.47555  0.82616  0.79932  1.0000
  H   H1509     1.0  0.43737  0.57020  0.89220  1.0000
  H   H1510     1.0  0.48017  0.84852  0.63488  1.0000
  C   C850      1.0  0.27884  0.85125  0.87417  1.0000
  C   C851      1.0  0.29708  0.83695  0.88861  1.0000
  H   H1511     1.0  0.25761  0.82135  0.88733  1.0000
  H   H1512     1.0  0.26817  0.54936  0.91126  1.0000
  H   H1513     1.0  0.48493  0.57847  0.59396  1.0000
  H   H1514     1.0  0.29443  0.83558  0.80155  1.0000
  H   H1515     1.0  0.48117  0.58265  0.55758  1.0000
  H   H1516     1.0  0.40980  0.57298  0.92829  1.0000
  H   H1517     1.0  0.45570  0.90061  0.58400  1.0000
  H   H1518     1.0  0.43700  0.99324  0.57225  1.0000
  C   C852      1.0  0.46129  0.95895  0.72765  1.0000
  C   C853      1.0  0.41261  0.56526  0.88555  1.0000
  H   H1519     1.0  0.46557  0.87443  0.72377  1.0000
  S   S193      1.0  0.43992  0.79702  0.98018  1.0000
  H   H1520     1.0  0.40000  0.98936  0.49544  1.0000
  H   H1521     1.0  0.42854  0.60125  0.84910  1.0000
  H   H1522     1.0  0.28343  0.69439  0.75189  1.0000
  C   C854      1.0  0.26490  0.81444  0.87794  1.0000
  H   H1523     1.0  0.42736  0.58606  0.79103  1.0000
  H   H1524     1.0  0.42199  0.53225  0.83151  1.0000
  H   H1525     1.0  0.40667  0.67537  0.91081  1.0000
  C   C855      1.0  0.43811  0.51312  0.67442  1.0000
  H   H1526     1.0  0.44849  0.68153  0.95062  1.0000
  H   H1527     1.0  0.45155  0.87190  0.49845  1.0000
  H   H1528     1.0  0.45344  0.65870  0.98230  1.0000
  H   H1529     1.0  0.45790  0.89809  0.73888  1.0000
  H   H1530     1.0  0.46349  0.85444  0.54606  1.0000
  H   H1531     1.0  0.45409  0.55744  0.84114  1.0000
  H   H1532     1.0  0.41536  0.55491  0.92715  1.0000
  H   H1533     1.0  0.48625  0.59301  0.84323  1.0000
  H   H1534     1.0  0.39193  0.62176  0.95961  1.0000
  H   H1535     1.0  0.44355  0.93700  0.71606  1.0000
  C   C856      1.0  0.48783  0.52589  0.60764  1.0000
  C   C857      1.0  0.37372  0.96788  0.66801  1.0000
  C   C858      1.0  0.47037  0.86835  0.63129  1.0000
  H   H1536     1.0  0.35458  0.98024  0.53745  1.0000
  C   C859      1.0  0.45902  0.55757  0.51953  1.0000
  H   H1537     1.0  0.25494  0.66365  0.77871  1.0000
  H   H1538     1.0  0.25911  0.84418  0.84517  1.0000
  H   H1539     1.0  0.25152  0.52408  0.91451  1.0000
  C   C860      1.0  0.24976  0.52145  0.93792  1.0000
  C   C861      1.0  0.47081  0.79106  0.77924  1.0000
  S   S194      1.0  0.33842  0.49626  0.82646  1.0000
  H   H1540     1.0  0.47735  0.93228  0.78329  1.0000
  H   H1541     1.0  0.47184  0.87156  0.50048  1.0000
  H   H1542     1.0  0.46772  0.73871  0.94652  1.0000
  H   H1543     1.0  0.41636  0.54086  0.50706  1.0000
  C   C862      1.0  0.34589  0.81804  0.96509  1.0000
  C   C863      1.0  0.36323  0.56080  0.97592  1.0000
  C   C864      1.0  0.41569  0.57062  0.49973  1.0000
  H   H1544     1.0  0.42421  0.69595  0.97723  1.0000
  H   H1545     1.0  0.48366  0.83817  0.75014  1.0000
  H   H1546     1.0  0.39329  0.81551  0.97990  1.0000
  H   H1547     1.0  0.24936  0.85614  0.88595  1.0000
  H   H1548     1.0  0.25369  0.74661  0.92542  1.0000
  H   H1549     1.0  0.45587  0.85330  0.49692  1.0000
  H   H1550     1.0  0.48190  0.52890  0.56467  1.0000
  H   H1551     1.0  0.41070  0.58073  0.49951  1.0000
  C   C865      1.0  0.43015  0.90617  0.49328  1.0000
  C   C866      1.0  0.47612  0.92170  0.77051  1.0000
  H   H1552     1.0  0.28073  0.50979  0.74760  1.0000
  C   C867      1.0  0.48746  0.84542  0.76801  1.0000
  H   H1553     1.0  0.30613  0.50900  0.78978  1.0000
  H   H1554     1.0  0.24131  0.50906  0.94060  1.0000
  C   C868      1.0  0.29033  0.53146  0.76898  1.0000
  C   C869      1.0  0.48887  0.79881  0.77911  1.0000
  C   C870      1.0  0.24513  0.70667  0.78922  1.0000
  H   H1555     1.0  0.48978  0.80898  0.81964  1.0000
  H   H1556     1.0  0.48858  0.78863  0.82209  1.0000
  C   C871      1.0  0.25443  0.67606  0.78059  1.0000
  H   H1557     1.0  0.25077  0.68752  0.83369  1.0000
  H   H1558     1.0  0.30204  0.51825  0.74380  1.0000
  C   C872      1.0  0.49042  0.97916  0.68511  1.0000
  H   H1559     1.0  0.48927  0.51400  0.60433  1.0000
  H   H1560     1.0  0.26070  0.49839  0.78312  1.0000
  H   H1561     1.0  0.47945  0.56968  0.49015  1.0000
  C   C873      1.0  0.46759  0.56037  0.48999  1.0000
  H   H1562     1.0  0.48647  0.91740  0.77393  1.0000
  H   H1563     1.0  0.24241  0.69270  0.93913  1.0000
  H   H1564     1.0  0.24196  0.66545  0.95369  1.0000
  H   H1565     1.0  0.24316  0.76067  0.93265  1.0000
  C   C874      1.0  0.24110  0.67667  0.82866  1.0000
  C   C875      1.0  0.40379  0.55600  0.48796  1.0000
  H   H1566     1.0  0.48944  0.59439  0.88070  1.0000
  C   C876      1.0  0.24173  0.74827  0.92661  1.0000
  H   H1567     1.0  0.24144  0.71783  0.94422  1.0000
  C   C877      1.0  0.38772  0.76587  0.98273  1.0000
  C   C878      1.0  0.51078  0.16040  0.99273  1.0000
  S   S195      1.0  0.55016  0.47654  0.34292  1.0000
  S   S196      1.0  0.58555  0.47625  0.38918  1.0000
  C   C879      1.0  0.51851  0.31981  0.99797  1.0000
  S   S197      1.0  0.51899  0.40900  0.40653  1.0000
  Fe  Fe97      1.0  0.51746  0.32114  0.19173  1.0000
  S   S198      1.0  0.54264  0.32225  0.19991  1.0000
  H   H1568     1.0  0.49860  0.15504  0.06372  1.0000
  Fe  Fe98      1.0  0.52341  0.31936  0.12630  1.0000
  S   S199      1.0  0.54892  0.32061  0.13051  1.0000
  S   S200      1.0  0.51105  0.31729  0.08437  1.0000
  Fe  Fe99      1.0  0.53949  0.30298  0.16831  1.0000
  S   S201      1.0  0.54876  0.28168  0.17562  1.0000
  Fe  Fe100     1.0  0.54963  0.33957  0.16149  1.0000
  S   S202      1.0  0.56708  0.36482  0.15771  1.0000
  S   S203      1.0  0.51391  0.30069  0.16248  1.0000
  S   S204      1.0  0.52452  0.33945  0.15490  1.0000
  Fe  Fe101     1.0  0.52271  0.16633  0.12890  1.0000
  S   S205      1.0  0.53879  0.18564  0.15378  1.0000
  S   S206      1.0  0.53124  0.17071  0.08141  1.0000
  Fe  Fe102     1.0  0.50426  0.14816  0.18567  1.0000
  S   S207      1.0  0.51882  0.16707  0.21259  1.0000
  H   H1569     1.0  0.52093  0.29287  0.25196  1.0000
  Fe  Fe103     1.0  0.51647  0.18513  0.17881  1.0000
  S   S208      1.0  0.50859  0.20727  0.18485  1.0000
  Fe  Fe104     1.0  0.53979  0.16598  0.18490  1.0000
  S   S209      1.0  0.55972  0.15853  0.20387  1.0000
  S   S210      1.0  0.50016  0.16623  0.15331  1.0000
  S   S211      1.0  0.52538  0.14675  0.15851  1.0000
  Fe  Fe105     1.0  0.66455  0.17240  0.14186  1.0000
  S   S212      1.0  0.67171  0.19661  0.16014  1.0000
  S   S213      1.0  0.66038  0.17502  0.09443  1.0000
  Fe  Fe106     1.0  0.65905  0.15509  0.20301  1.0000
  S   S214      1.0  0.66602  0.17859  0.22424  1.0000
  S   S215      1.0  0.64702  0.12971  0.22449  1.0000
  Fe  Fe107     1.0  0.65113  0.18608  0.19212  1.0000
  S   S216      1.0  0.63306  0.19925  0.19845  1.0000
  Fe  Fe108     1.0  0.68610  0.18713  0.18995  1.0000
  S   S217      1.0  0.71264  0.20007  0.19595  1.0000
  S   S218      1.0  0.64323  0.16247  0.17268  1.0000
  S   S219      1.0  0.68003  0.16304  0.17014  1.0000
  Fe  Fe109     1.0  0.65024  0.45155  0.19926  1.0000
  S   S220      1.0  0.65861  0.43521  0.22772  1.0000
  S   S221      1.0  0.63671  0.46776  0.21726  1.0000
  Fe  Fe110     1.0  0.66416  0.44083  0.14442  1.0000
  S   S222      1.0  0.67311  0.42377  0.17040  1.0000
  S   S223      1.0  0.67295  0.44008  0.09837  1.0000
  Fe  Fe111     1.0  0.64940  0.41726  0.19492  1.0000
  S   S224      1.0  0.63563  0.39123  0.20617  1.0000
  Fe  Fe112     1.0  0.68156  0.44341  0.20007  1.0000
  S   S225      1.0  0.70672  0.45467  0.21473  1.0000
  S   S226      1.0  0.63985  0.43309  0.16734  1.0000
  S   S227      1.0  0.67368  0.46093  0.17327  1.0000
  Fe  Fe113     1.0  0.61897  0.07331  0.37250  1.0000
  S   S228      1.0  0.61036  0.07985  0.41472  1.0000
  S   S229      1.0  0.63906  0.09337  0.34762  1.0000
  Fe  Fe114     1.0  0.59246  0.04011  0.37661  1.0000
  S   S230      1.0  0.58191  0.04519  0.41770  1.0000
  Fe  Fe115     1.0  0.58621  0.06975  0.39811  1.0000
  S   S231      1.0  0.56769  0.08193  0.40287  1.0000
  Fe  Fe116     1.0  0.60701  0.05459  0.43102  1.0000
  C   C880      1.0  0.71324  0.46771  0.06744  1.0000
  S   S232      1.0  0.59478  0.06436  0.35566  1.0000
  S   S233      1.0  0.61779  0.04842  0.39021  1.0000
  S   S234      1.0  0.50527  0.04059  0.34866  1.0000
  C   C881      1.0  0.55053  0.07083  0.38693  1.0000
  C   C882      1.0  0.55111  0.05918  0.36801  1.0000
  C   C883      1.0  0.53729  0.05036  0.35541  1.0000
  C   C884      1.0  0.52271  0.05262  0.36273  1.0000
  C   C885      1.0  0.52212  0.06399  0.38215  1.0000
  C   C886      1.0  0.53604  0.07333  0.39376  1.0000
  H   H1570     1.0  0.56216  0.05693  0.36298  1.0000
  H   H1571     1.0  0.53785  0.04154  0.34047  1.0000
  H   H1572     1.0  0.51094  0.06530  0.38910  1.0000
  H   H1573     1.0  0.53545  0.08210  0.40880  1.0000
  C   C887      1.0  0.64383  0.39789  0.01660  1.0000
  H   H1574     1.0  0.50657  0.28566  0.29213  1.0000
  C   C888      1.0  0.66521  0.44304  0.06528  1.0000
  C   C889      1.0  0.65274  0.44951  0.06303  1.0000
  C   C890      1.0  0.64724  0.45192  0.03613  1.0000
  H   H1575     1.0  0.58991  0.07936  0.30236  1.0000
  C   C891      1.0  0.67206  0.43897  0.04043  1.0000
  H   H1576     1.0  0.64753  0.45290  0.08191  1.0000
  H   H1577     1.0  0.63771  0.45712  0.03451  1.0000
  H   H1578     1.0  0.68172  0.43396  0.04194  1.0000
  H   H1579     1.0  0.53363  0.05678  0.44922  1.0000
  H   H1580     1.0  0.68198  0.47823  0.23552  1.0000
  C   C892      1.0  0.72340  0.44792  0.20812  1.0000
  C   C893      1.0  0.72163  0.43187  0.20372  1.0000
  C   C894      1.0  0.66404  0.07999  0.29624  1.0000
  H   H1581     1.0  0.71891  0.36113  0.24034  1.0000
  H   H1582     1.0  0.70982  0.42326  0.20399  1.0000
  C   C895      1.0  0.64361  0.12084  0.26003  1.0000
  C   C896      1.0  0.65236  0.12803  0.28262  1.0000
  C   C897      1.0  0.65021  0.11979  0.30967  1.0000
  C   C898      1.0  0.63914  0.10436  0.31477  1.0000
  C   C899      1.0  0.62998  0.09740  0.29243  1.0000
  C   C900      1.0  0.63227  0.10555  0.26531  1.0000
  H   H1583     1.0  0.66120  0.13972  0.27900  1.0000
  H   H1584     1.0  0.65749  0.12528  0.32662  1.0000
  H   H1585     1.0  0.62160  0.08545  0.29572  1.0000
  H   H1586     1.0  0.62546  0.09978  0.24806  1.0000
  C   C901      1.0  0.66441  0.16781  0.06127  1.0000
  C   C902      1.0  0.65925  0.17373  0.03657  1.0000
  C   C903      1.0  0.72191  0.38588  0.24698  1.0000
  C   C904      1.0  0.67533  0.15131  0.03174  1.0000
  C   C905      1.0  0.67245  0.15652  0.05874  1.0000
  H   H1587     1.0  0.65296  0.18242  0.03830  1.0000
  C   C906      1.0  0.49431  0.19499  0.02546  1.0000
  H   H1588     1.0  0.52597  0.28673  0.21831  1.0000
  H   H1589     1.0  0.67647  0.15184  0.07753  1.0000
  N   N49       1.0  0.49693  0.26271  0.24697  1.0000
  H   H1590     1.0  0.56636  0.42911  0.39556  1.0000
  H   H1591     1.0  0.70480  0.45567  0.06458  1.0000
  C   C907      1.0  0.62486  0.48256  0.25928  1.0000
  H   H1592     1.0  0.66923  0.09187  0.19024  1.0000
  C   C908      1.0  0.57995  0.17025  0.20163  1.0000
  C   C909      1.0  0.58493  0.18664  0.19393  1.0000
  C   C910      1.0  0.60125  0.19551  0.19309  1.0000
  C   C911      1.0  0.61266  0.18796  0.19928  1.0000
  C   C912      1.0  0.60761  0.17154  0.20656  1.0000
  C   C913      1.0  0.59133  0.16277  0.20806  1.0000
  H   H1593     1.0  0.57618  0.19249  0.18926  1.0000
  H   H1594     1.0  0.60507  0.20825  0.18764  1.0000
  H   H1595     1.0  0.61626  0.16562  0.21130  1.0000
  H   H1596     1.0  0.58756  0.15011  0.21394  1.0000
  H   H1597     1.0  0.60599  0.41441  0.00439  1.0000
  H   H1598     1.0  0.52379  0.38161  0.48218  1.0000
  C   C914      1.0  0.50661  0.15862  0.04491  1.0000
  C   C915      1.0  0.52288  0.16616  0.04773  1.0000
  C   C916      1.0  0.53304  0.17067  0.02285  1.0000
  C   C917      1.0  0.72042  0.08151  0.28022  1.0000
  C   C918      1.0  0.69160  0.08105  0.28496  1.0000
  H   H1599     1.0  0.62849  0.15065  0.02325  1.0000
  H   H1600     1.0  0.54567  0.17626  0.02470  1.0000
  H   H1601     1.0  0.65223  0.05907  0.27186  1.0000
  C   C919      1.0  0.58553  0.37153  0.17348  1.0000
  C   C920      1.0  0.59286  0.38808  0.17451  1.0000
  C   C921      1.0  0.60801  0.39416  0.18515  1.0000
  C   C922      1.0  0.61610  0.38376  0.19452  1.0000
  C   C923      1.0  0.60865  0.36715  0.19402  1.0000
  C   C924      1.0  0.59338  0.36103  0.18352  1.0000
  H   H1602     1.0  0.58677  0.39624  0.16705  1.0000
  H   H1603     1.0  0.61334  0.40689  0.18628  1.0000
  H   H1604     1.0  0.61479  0.35901  0.20142  1.0000
  H   H1605     1.0  0.58781  0.34824  0.18278  1.0000
  C   C925      1.0  0.52058  0.31954  0.04975  1.0000
  H   H1606     1.0  0.56118  0.06020  0.47420  1.0000
  C   C926      1.0  0.67022  0.15728  0.00704  1.0000
  H   H1607     1.0  0.50250  0.20009  0.12523  1.0000
  C   C927      1.0  0.54420  0.32473  0.01776  1.0000
  C   C928      1.0  0.53707  0.32290  0.04553  1.0000
  C   C929      1.0  0.71859  0.49030  0.28990  1.0000
  Fe  Fe117     1.0  0.57147  0.48957  0.36639  1.0000
  H   H1608     1.0  0.55693  0.32715  0.01491  1.0000
  H   H1609     1.0  0.54430  0.32405  0.06370  1.0000
  C   C930      1.0  0.53733  0.26106  0.17811  1.0000
  C   C931      1.0  0.54463  0.24967  0.18660  1.0000
  C   C932      1.0  0.53607  0.23316  0.18847  1.0000
  C   C933      1.0  0.52014  0.22784  0.18160  1.0000
  C   C934      1.0  0.51281  0.23924  0.17325  1.0000
  C   C935      1.0  0.52133  0.25575  0.17153  1.0000
  H   H1610     1.0  0.55696  0.25365  0.19199  1.0000
  H   H1611     1.0  0.54171  0.22458  0.19581  1.0000
  H   H1612     1.0  0.49883  0.40708  0.45678  1.0000
  H   H1613     1.0  0.51561  0.26435  0.16468  1.0000
  H   H1614     1.0  0.63585  0.39954  0.00003  1.0000
  H   H1615     1.0  0.59716  0.11211  0.40442  1.0000
  H   H1616     1.0  0.69932  0.41140  0.99215  1.0000
  H   H1617     1.0  0.49816  0.20557  0.03847  1.0000
  C   C936      1.0  0.62734  0.47901  0.31026  1.0000
  H   H1618     1.0  0.51649  0.01723  0.39266  1.0000
  H   H1619     1.0  0.51219  0.45844  0.46537  1.0000
  C   C937      1.0  0.63300  0.47153  0.25338  1.0000
  C   C938      1.0  0.63807  0.46406  0.27621  1.0000
  C   C939      1.0  0.63533  0.46785  0.30439  1.0000
  H   H1620     1.0  0.64424  0.45547  0.27212  1.0000
  H   H1621     1.0  0.63953  0.46217  0.32180  1.0000
  C   C940      1.0  0.54149  0.45766  0.36012  1.0000
  C   C941      1.0  0.54508  0.45486  0.38799  1.0000
  C   C942      1.0  0.53857  0.43967  0.40169  1.0000
  C   C943      1.0  0.52777  0.42748  0.38808  1.0000
  C   C944      1.0  0.52397  0.43027  0.36028  1.0000
  C   C945      1.0  0.53110  0.44531  0.34607  1.0000
  H   H1622     1.0  0.55274  0.46444  0.39920  1.0000
  H   H1623     1.0  0.54174  0.43747  0.42300  1.0000
  H   H1624     1.0  0.51575  0.42080  0.34961  1.0000
  H   H1625     1.0  0.52842  0.44742  0.32437  1.0000
  C   C946      1.0  0.73149  0.24082  0.12546  1.0000
  N   N50       1.0  0.69000  0.48790  0.27573  1.0000
  H   H1626     1.0  0.51861  0.22001  0.07081  1.0000
  N   N51       1.0  0.54868  0.22941  0.09442  1.0000
  H   H1627     1.0  0.53698  0.02200  0.38170  1.0000
  S   S235      1.0  0.57756  0.01835  0.35428  1.0000
  H   H1628     1.0  0.70402  0.46175  0.12431  1.0000
  H   H1629     1.0  0.54723  0.22170  0.00658  1.0000
  C   C947      1.0  0.57181  0.99768  0.36550  1.0000
  H   H1630     1.0  0.53841  0.20505  0.05244  1.0000
  C   C948      1.0  0.51764  0.10118  0.22246  1.0000
  C   C949      1.0  0.53502  0.32334  0.99379  1.0000
  H   H1631     1.0  0.59147  0.99931  0.39173  1.0000
  H   H1632     1.0  0.70736  0.22690  0.14042  1.0000
  H   H1633     1.0  0.57032  0.45765  0.31262  1.0000
  H   H1634     1.0  0.70593  0.47710  0.02901  1.0000
  H   H1635     1.0  0.68160  0.14260  0.02997  1.0000
  N   N52       1.0  0.61585  0.39539  0.08448  1.0000
  C   C950      1.0  0.62159  0.39244  0.05528  1.0000
  C   C951      1.0  0.59947  0.38359  0.09157  1.0000
  C   C952      1.0  0.61556  0.41244  0.08437  1.0000
  C   C953      1.0  0.62680  0.39318  0.10688  1.0000
  C   C954      1.0  0.63112  0.37740  0.10677  1.0000
  C   C955      1.0  0.63881  0.40278  0.04534  1.0000
  C   C956      1.0  0.60689  0.41672  0.11066  1.0000
  C   C957      1.0  0.58644  0.38449  0.07113  1.0000
  C   C958      1.0  0.56988  0.37429  0.08305  1.0000
  C   C959      1.0  0.64266  0.37689  0.12968  1.0000
  H   H1636     1.0  0.68010  0.44242  0.31980  1.0000
  C   C960      1.0  0.60884  0.43459  0.10968  1.0000
  H   H1637     1.0  0.61387  0.39499  0.03898  1.0000
  H   H1638     1.0  0.62042  0.37956  0.05364  1.0000
  H   H1639     1.0  0.59984  0.37110  0.09142  1.0000
  H   H1640     1.0  0.59525  0.38469  0.11374  1.0000
  H   H1641     1.0  0.61019  0.41563  0.06501  1.0000
  H   H1642     1.0  0.62796  0.42088  0.08302  1.0000
  H   H1643     1.0  0.63815  0.40337  0.10547  1.0000
  H   H1644     1.0  0.62139  0.39348  0.12850  1.0000
  H   H1645     1.0  0.63700  0.37619  0.08616  1.0000
  H   H1646     1.0  0.62032  0.36684  0.11110  1.0000
  C   C961      1.0  0.71504  0.42936  0.13421  1.0000
  H   H1647     1.0  0.64760  0.40170  0.06070  1.0000
  H   H1648     1.0  0.61177  0.41375  0.13062  1.0000
  H   H1649     1.0  0.59393  0.41013  0.11153  1.0000
  H   H1650     1.0  0.58616  0.39690  0.06737  1.0000
  H   H1651     1.0  0.58864  0.37986  0.05037  1.0000
  H   H1652     1.0  0.56640  0.37952  0.10231  1.0000
  H   H1653     1.0  0.56094  0.37396  0.06714  1.0000
  H   H1654     1.0  0.56957  0.36180  0.08861  1.0000
  H   H1655     1.0  0.64584  0.36568  0.12883  1.0000
  H   H1656     1.0  0.65375  0.38726  0.12651  1.0000
  H   H1657     1.0  0.63703  0.37707  0.15108  1.0000
  H   H1658     1.0  0.50644  0.10694  0.16957  1.0000
  H   H1659     1.0  0.61330  0.15954  0.01420  1.0000
  C   C962      1.0  0.72340  0.48310  0.13354  1.0000
  H   H1660     1.0  0.62160  0.44173  0.11042  1.0000
  H   H1661     1.0  0.60406  0.43825  0.09005  1.0000
  H   H1662     1.0  0.60222  0.43723  0.12839  1.0000
  N   N53       1.0  0.57976  0.43945  0.29678  1.0000
  C   C963      1.0  0.58323  0.43390  0.32578  1.0000
  C   C964      1.0  0.59292  0.43904  0.27558  1.0000
  C   C965      1.0  0.58030  0.45675  0.29826  1.0000
  C   C966      1.0  0.56358  0.42980  0.28752  1.0000
  C   C967      1.0  0.55715  0.41180  0.29791  1.0000
  C   C968      1.0  0.57925  0.46559  0.26958  1.0000
  C   C969      1.0  0.59482  0.42247  0.27045  1.0000
  C   C970      1.0  0.60971  0.42416  0.25119  1.0000
  C   C971      1.0  0.54195  0.40315  0.28351  1.0000
  H   H1663     1.0  0.69458  0.19178  0.02795  1.0000
  H   H1664     1.0  0.59576  0.44046  0.33056  1.0000
  H   H1665     1.0  0.58257  0.42112  0.32651  1.0000
  H   H1666     1.0  0.59117  0.44375  0.25417  1.0000
  H   H1667     1.0  0.60456  0.44708  0.28196  1.0000
  H   H1668     1.0  0.59143  0.46386  0.30787  1.0000
  H   H1669     1.0  0.55426  0.43505  0.29495  1.0000
  H   H1670     1.0  0.56353  0.43052  0.26389  1.0000
  H   H1671     1.0  0.55411  0.41047  0.32114  1.0000
  H   H1672     1.0  0.56590  0.40543  0.29374  1.0000
  H   H1673     1.0  0.56943  0.45827  0.25733  1.0000
  H   H1674     1.0  0.59062  0.46832  0.25651  1.0000
  H   H1675     1.0  0.59596  0.41602  0.29050  1.0000
  H   H1676     1.0  0.58448  0.41509  0.25938  1.0000
  H   H1677     1.0  0.62063  0.43079  0.26163  1.0000
  H   H1678     1.0  0.61044  0.41211  0.24676  1.0000
  H   H1679     1.0  0.60931  0.43059  0.23057  1.0000
  H   H1680     1.0  0.53734  0.39046  0.29190  1.0000
  H   H1681     1.0  0.53262  0.40888  0.28794  1.0000
  H   H1682     1.0  0.54438  0.40333  0.26017  1.0000
  C   C972      1.0  0.52136  0.00233  0.34449  1.0000
  S   S236      1.0  0.62527  0.48423  0.34607  1.0000
  N   N54       1.0  0.52483  0.10766  0.24965  1.0000
  C   C973      1.0  0.52570  0.12504  0.25047  1.0000
  C   C974      1.0  0.51360  0.09859  0.27420  1.0000
  C   C975      1.0  0.54080  0.10508  0.25254  1.0000
  C   C976      1.0  0.55573  0.11849  0.23932  1.0000
  C   C977      1.0  0.52958  0.13255  0.27951  1.0000
  C   C978      1.0  0.57015  0.11252  0.23687  1.0000
  C   C979      1.0  0.53313  0.15068  0.27699  1.0000
  H   H1683     1.0  0.53443  0.13268  0.23409  1.0000
  H   H1684     1.0  0.51894  0.10205  0.29484  1.0000
  H   H1685     1.0  0.54313  0.10355  0.27535  1.0000
  H   H1686     1.0  0.54063  0.09357  0.24340  1.0000
  H   H1687     1.0  0.55871  0.12888  0.25289  1.0000
  H   H1688     1.0  0.55403  0.12300  0.21789  1.0000
  H   H1689     1.0  0.51917  0.12772  0.29504  1.0000
  H   H1690     1.0  0.53993  0.12983  0.28826  1.0000
  H   H1691     1.0  0.51907  0.07589  0.27087  1.0000
  H   H1692     1.0  0.53799  0.10511  0.19188  1.0000
  H   H1693     1.0  0.58101  0.12262  0.23011  1.0000
  H   H1694     1.0  0.57196  0.10727  0.25765  1.0000
  H   H1695     1.0  0.56837  0.10333  0.22086  1.0000
  H   H1696     1.0  0.54348  0.15640  0.26175  1.0000
  H   H1697     1.0  0.52255  0.15365  0.26978  1.0000
  H   H1698     1.0  0.53591  0.15567  0.29805  1.0000
  N   N55       1.0  0.60881  0.15971  0.10261  1.0000
  C   C980      1.0  0.61904  0.17384  0.11743  1.0000
  C   C981      1.0  0.60908  0.14446  0.11824  1.0000
  C   C982      1.0  0.61644  0.16013  0.07312  1.0000
  C   C983      1.0  0.59194  0.16001  0.09998  1.0000
  C   C984      1.0  0.58476  0.16753  0.12419  1.0000
  C   C985      1.0  0.62289  0.19036  0.10100  1.0000
  C   C986      1.0  0.60865  0.14570  0.05504  1.0000
  C   C987      1.0  0.60224  0.14151  0.14946  1.0000
  C   C988      1.0  0.60539  0.12700  0.16385  1.0000
  C   C989      1.0  0.56692  0.16436  0.12163  1.0000
  C   C990      1.0  0.62936  0.20406  0.12046  1.0000
  C   C991      1.0  0.61548  0.14884  0.02422  1.0000
  H   H1699     1.0  0.63068  0.17217  0.12168  1.0000
  H   H1700     1.0  0.61376  0.17473  0.13880  1.0000
  H   H1701     1.0  0.60202  0.13379  0.10747  1.0000
  H   H1702     1.0  0.62156  0.14401  0.11785  1.0000
  H   H1703     1.0  0.62921  0.16099  0.07437  1.0000
  H   H1704     1.0  0.61634  0.17101  0.06037  1.0000
  H   H1705     1.0  0.59098  0.16681  0.08004  1.0000
  H   H1706     1.0  0.58377  0.14764  0.09789  1.0000
  H   H1707     1.0  0.59049  0.18071  0.12333  1.0000
  H   H1708     1.0  0.58643  0.16281  0.14544  1.0000
  H   H1709     1.0  0.63223  0.19154  0.08376  1.0000
  H   H1710     1.0  0.61220  0.19182  0.09127  1.0000
  H   H1711     1.0  0.59557  0.14321  0.05493  1.0000
  H   H1712     1.0  0.61111  0.13480  0.06344  1.0000
  H   H1713     1.0  0.60770  0.15184  0.16217  1.0000
  H   H1714     1.0  0.58913  0.13898  0.15027  1.0000
  H   H1715     1.0  0.61841  0.12892  0.16416  1.0000
  H   H1716     1.0  0.60037  0.12519  0.18618  1.0000
  H   H1717     1.0  0.59971  0.11602  0.15258  1.0000
  H   H1718     1.0  0.56043  0.15131  0.12346  1.0000
  H   H1719     1.0  0.56228  0.16997  0.13914  1.0000
  H   H1720     1.0  0.56456  0.16956  0.10105  1.0000
  H   H1721     1.0  0.62018  0.20402  0.13730  1.0000
  H   H1722     1.0  0.64008  0.20291  0.13062  1.0000
  H   H1723     1.0  0.63276  0.21570  0.10791  1.0000
  H   H1724     1.0  0.69873  0.21797  0.00471  1.0000
  H   H1725     1.0  0.51241  0.00866  0.34185  1.0000
  H   H1726     1.0  0.52688  0.35418  0.00095  1.0000
  H   H1727     1.0  0.50863  0.07563  0.32060  1.0000
  H   H1728     1.0  0.60261  0.35190  0.00715  1.0000
  H   H1729     1.0  0.57668  0.43269  0.48493  1.0000
  H   H1730     1.0  0.72670  0.42946  0.14197  1.0000
  H   H1731     1.0  0.72177  0.19025  0.06517  1.0000
  H   H1732     1.0  0.67354  0.11033  0.27539  1.0000
  C   C992      1.0  0.55428  0.00675  0.45200  1.0000
  H   H1733     1.0  0.54066  0.46271  0.44949  1.0000
  H   H1734     1.0  0.69789  0.37112  0.26190  1.0000
  S   S237      1.0  0.49785  0.31881  0.22691  1.0000
  H   H1735     1.0  0.52425  0.04364  0.47995  1.0000
  H   H1736     1.0  0.51934  0.25946  0.23310  1.0000
  C   C993      1.0  0.68298  0.47222  0.29301  1.0000
  H   H1737     1.0  0.71788  0.38882  0.22612  1.0000
  H   H1738     1.0  0.50851  0.02349  0.44856  1.0000
  C   C994      1.0  0.52541  0.28398  0.24160  1.0000
  H   H1739     1.0  0.70990  0.48261  0.17358  1.0000
  H   H1740     1.0  0.49859  0.31533  0.02883  1.0000
  C   C995      1.0  0.64119  0.05546  0.31398  1.0000
  H   H1741     1.0  0.53138  0.26734  0.11605  1.0000
  C   C996      1.0  0.50860  0.08006  0.27470  1.0000
  C   C997      1.0  0.52713  0.10879  0.19434  1.0000
  H   H1742     1.0  0.51418  0.12656  0.24473  1.0000
  H   H1743     1.0  0.51616  0.08822  0.22170  1.0000
  H   H1744     1.0  0.53060  0.12199  0.19351  1.0000
  H   H1745     1.0  0.65799  0.17309  0.99084  1.0000
  C   C998      1.0  0.57195  0.15601  0.30418  1.0000
  C   C999      1.0  0.50404  0.20261  0.10185  1.0000
  H   H1746     1.0  0.50620  0.19224  0.09172  1.0000
  H   H1747     1.0  0.63949  0.41554  0.04272  1.0000
  C   C1000     1.0  0.74005  0.22575  0.19886  1.0000
  C   C1001     1.0  0.50028  0.07250  0.30327  1.0000
  H   H1748     1.0  0.54391  0.03575  0.42539  1.0000
  H   H1749     1.0  0.66356  0.44011  0.29721  1.0000
  H   H1750     1.0  0.55564  0.01547  0.40818  1.0000
  C   C1002     1.0  0.57163  0.06911  0.48261  1.0000
  C   C1003     1.0  0.73885  0.45891  0.20810  1.0000
  H   H1751     1.0  0.50246  0.10191  0.27473  1.0000
  H   H1752     1.0  0.49349  0.29113  0.26812  1.0000
  C   C1004     1.0  0.73701  0.37430  0.19455  1.0000
  H   H1753     1.0  0.72757  0.34071  0.23272  1.0000
  H   H1754     1.0  0.50485  0.45610  0.37845  1.0000
  N   N56       1.0  0.53106  0.01041  0.42368  1.0000
  H   H1755     1.0  0.58977  0.23007  0.13833  1.0000
  H   H1756     1.0  0.72525  0.49000  0.11279  1.0000
  H   H1757     1.0  0.73072  0.19918  0.01398  1.0000
  H   H1758     1.0  0.55898  0.20825  0.05934  1.0000
  H   H1759     1.0  0.70820  0.43306  0.15130  1.0000
  H   H1760     1.0  0.49997  0.07555  0.25822  1.0000
  H   H1761     1.0  0.58729  0.33478  0.99519  1.0000
  H   H1762     1.0  0.55968  0.43276  0.34571  1.0000
  C   C1005     1.0  0.65603  0.06177  0.29367  1.0000
  H   H1763     1.0  0.55441  0.36067  0.01809  1.0000
  H   H1764     1.0  0.62089  0.48844  0.24185  1.0000
  C   C1006     1.0  0.57840  0.22238  0.14920  1.0000
  H   H1765     1.0  0.51373  0.08992  0.16810  1.0000
  H   H1766     1.0  0.57671  0.20967  0.14484  1.0000
  C   C1007     1.0  0.51730  0.10315  0.16871  1.0000
  H   H1767     1.0  0.50546  0.10222  0.22162  1.0000
  H   H1768     1.0  0.67362  0.07199  0.24209  1.0000
  H   H1769     1.0  0.70705  0.47429  0.08076  1.0000
  Fe  Fe118     1.0  0.58686  0.49349  0.42362  1.0000
  H   H1770     1.0  0.56176  0.21279  0.10355  1.0000
  H   H1771     1.0  0.55358  0.21993  0.15167  1.0000
  H   H1772     1.0  0.57922  0.22359  0.17248  1.0000
  H   H1773     1.0  0.55671  0.42867  0.47350  1.0000
  C   C1008     1.0  0.51612  0.40267  0.48417  1.0000
  H   H1774     1.0  0.58738  0.15387  0.33690  1.0000
  H   H1775     1.0  0.63565  0.04239  0.31209  1.0000
  H   H1776     1.0  0.53738  0.02547  0.45927  1.0000
  C   C1009     1.0  0.56438  0.22745  0.13924  1.0000
  H   H1777     1.0  0.53435  0.20449  0.10081  1.0000
  H   H1778     1.0  0.55005  0.29882  0.24351  1.0000
  C   C1010     1.0  0.56257  0.22544  0.10688  1.0000
  C   C1011     1.0  0.55064  0.21374  0.04957  1.0000
  H   H1779     1.0  0.51221  0.34916  0.25654  1.0000
  H   H1780     1.0  0.57403  0.23299  0.09586  1.0000
  C   C1012     1.0  0.66209  0.16849  0.00962  1.0000
  H   H1781     1.0  0.57602  0.44903  0.35573  1.0000
  C   C1013     1.0  0.57237  0.43624  0.35086  1.0000
  H   H1782     1.0  0.61121  0.13221  0.40192  1.0000
  H   H1783     1.0  0.59696  0.15967  0.30194  1.0000
  H   H1784     1.0  0.54529  0.46093  0.48620  1.0000
  H   H1785     1.0  0.60021  0.13893  0.35802  1.0000
  Fe  Fe119     1.0  0.60681  0.49454  0.36663  1.0000
  H   H1786     1.0  0.61671  0.15056  0.31697  1.0000
  H   H1787     1.0  0.65594  0.07209  0.20168  1.0000
  H   H1788     1.0  0.53206  0.21636  0.12882  1.0000
  H   H1789     1.0  0.56655  0.24005  0.14464  1.0000
  H   H1790     1.0  0.67904  0.43164  0.28789  1.0000
  H   H1791     1.0  0.66429  0.05504  0.29921  1.0000
  C   C1014     1.0  0.65409  0.44786  0.01126  1.0000
  H   H1792     1.0  0.64435  0.05755  0.33634  1.0000
  H   H1793     1.0  0.50278  0.48559  0.33951  1.0000
  H   H1794     1.0  0.58171  0.06415  0.48270  1.0000
  H   H1795     1.0  0.71097  0.37910  0.28994  1.0000
  H   H1796     1.0  0.52909  0.36384  0.03401  1.0000
  C   C1015     1.0  0.50062  0.15583  0.01761  1.0000
  H   H1797     1.0  0.73338  0.47910  0.26575  1.0000
  C   C1016     1.0  0.63047  0.15668  0.26492  1.0000
  C   C1017     1.0  0.50125  0.34212  0.26807  1.0000
  H   H1798     1.0  0.56932  0.41358  0.37455  1.0000
  C   C1018     1.0  0.53358  0.21655  0.10529  1.0000
  H   H1799     1.0  0.65616  0.40552  0.00998  1.0000
  H   H1800     1.0  0.73080  0.39682  0.25397  1.0000
  C   C1019     1.0  0.72892  0.37179  0.24528  1.0000
  C   C1020     1.0  0.60901  0.11979  0.39530  1.0000
  H   H1801     1.0  0.61830  0.11520  0.40404  1.0000
  H   H1802     1.0  0.70425  0.40442  0.14853  1.0000
  C   C1021     1.0  0.51136  0.31795  0.02581  1.0000
  H   H1803     1.0  0.58575  0.48914  0.28705  1.0000
  H   H1804     1.0  0.64101  0.15477  0.27449  1.0000
  H   H1805     1.0  0.72122  0.21399  0.01591  1.0000
  C   C1022     1.0  0.51263  0.38476  0.48078  1.0000
  C   C1023     1.0  0.53383  0.02629  0.43710  1.0000
  C   C1024     1.0  0.57372  0.42661  0.37780  1.0000
  H   H1806     1.0  0.58628  0.43002  0.38384  1.0000
  C   C1025     1.0  0.54241  0.28649  0.25036  1.0000
  H   H1807     1.0  0.68641  0.13516  0.30186  1.0000
  H   H1808     1.0  0.57618  0.08446  0.27964  1.0000
  C   C1026     1.0  0.51986  0.45403  0.47945  1.0000
  H   H1809     1.0  0.71385  0.47967  0.30493  1.0000
  H   H1810     1.0  0.70491  0.43915  0.10050  1.0000
  C   C1027     1.0  0.71714  0.44051  0.10706  1.0000
  H   H1811     1.0  0.71234  0.40746  0.11219  1.0000
  H   H1812     1.0  0.54753  0.27792  0.24012  1.0000
  H   H1813     1.0  0.57062  0.15427  0.28110  1.0000
  H   H1814     1.0  0.58195  0.13165  0.28652  1.0000
  C   C1028     1.0  0.69533  0.12963  0.30930  1.0000
  C   C1029     1.0  0.49452  0.20036  0.99416  1.0000
  H   H1815     1.0  0.71125  0.20492  0.06647  1.0000
  H   H1816     1.0  0.69378  0.41124  0.12139  1.0000
  C   C1030     1.0  0.68866  0.11137  0.30981  1.0000
  C   C1031     1.0  0.73475  0.49012  0.27738  1.0000
  N   N57       1.0  0.72616  0.45795  0.11000  1.0000
  H   H1817     1.0  0.71294  0.10234  0.27682  1.0000
  S   S238      1.0  0.60999  0.04469  0.47537  1.0000
  H   H1818     1.0  0.60745  0.10677  0.35765  1.0000
  H   H1819     1.0  0.56274  0.23896  0.05543  1.0000
  H   H1820     1.0  0.56125  0.25345  0.10639  1.0000
  H   H1821     1.0  0.70933  0.23346  0.10341  1.0000
  C   C1032     1.0  0.65848  0.08513  0.20394  1.0000
  C   C1033     1.0  0.70631  0.18994  0.03020  1.0000
  H   H1822     1.0  0.64964  0.08254  0.24737  1.0000
  C   C1034     1.0  0.61368  0.13910  0.30612  1.0000
  H   H1823     1.0  0.61599  0.49496  0.29153  1.0000
  C   C1035     1.0  0.52271  0.04716  0.45765  1.0000
  C   C1036     1.0  0.55113  0.22981  0.06246  1.0000
  H   H1824     1.0  0.72514  0.48898  0.03974  1.0000
  N   N58       1.0  0.67863  0.08787  0.27683  1.0000
  H   H1825     1.0  0.53683  0.27864  0.08254  1.0000
  C   C1037     1.0  0.58065  0.09792  0.31796  1.0000
  C   C1038     1.0  0.70579  0.41206  0.12859  1.0000
  C   C1039     1.0  0.54051  0.27083  0.09809  1.0000
  C   C1040     1.0  0.73961  0.34403  0.22191  1.0000
  C   C1041     1.0  0.73519  0.42691  0.19935  1.0000
  C   C1042     1.0  0.72331  0.22085  0.19800  1.0000
  C   C1043     1.0  0.54880  0.24568  0.10390  1.0000
  H   H1826     1.0  0.54256  0.24442  0.12533  1.0000
  C   C1044     1.0  0.55525  0.21629  0.01771  1.0000
  H   H1827     1.0  0.73612  0.38321  0.13734  1.0000
  S   S239      1.0  0.57797  0.48540  0.46989  1.0000
  H   H1828     1.0  0.52575  0.40902  0.46794  1.0000
  H   H1829     1.0  0.66985  0.46939  0.29622  1.0000
  H   H1830     1.0  0.51752  0.26245  0.26997  1.0000
  H   H1831     1.0  0.73253  0.36176  0.14074  1.0000
  H   H1832     1.0  0.64357  0.38519  0.01802  1.0000
  H   H1833     1.0  0.72657  0.36348  0.19230  1.0000
  H   H1834     1.0  0.57513  0.08003  0.46798  1.0000
  H   H1835     1.0  0.50046  0.23525  0.16798  1.0000
  H   H1836     1.0  0.55428  0.20461  0.00868  1.0000
  H   H1837     1.0  0.49372  0.23435  0.28196  1.0000
  C   C1045     1.0  0.55081  0.37016  0.00673  1.0000
  C   C1046     1.0  0.51736  0.43603  0.47527  1.0000
  H   H1838     1.0  0.56775  0.22421  0.01381  1.0000
  C   C1047     1.0  0.57641  0.48157  0.27416  1.0000
  C   C1048     1.0  0.68598  0.45741  0.28030  1.0000
  H   H1839     1.0  0.70283  0.22903  0.19805  1.0000
  H   H1840     1.0  0.54203  0.23375  0.05162  1.0000
  C   C1049     1.0  0.49543  0.23304  0.25890  1.0000
  H   H1841     1.0  0.50074  0.37736  0.25700  1.0000
  C   C1050     1.0  0.71210  0.48898  0.15223  1.0000
  C   C1051     1.0  0.61536  0.14282  0.27342  1.0000
  H   H1842     1.0  0.73237  0.08795  0.26989  1.0000
  C   C1052     1.0  0.49795  0.45437  0.35907  1.0000
  H   H1843     1.0  0.73589  0.24759  0.08101  1.0000
  C   C1053     1.0  0.70845  0.08974  0.27085  1.0000
  C   C1054     1.0  0.71567  0.23256  0.19852  1.0000
  H   H1844     1.0  0.66276  0.10217  0.23586  1.0000
  H   H1845     1.0  0.51676  0.03682  0.41801  1.0000
  H   H1846     1.0  0.69322  0.11215  0.26378  1.0000
  C   C1055     1.0  0.52684  0.01270  0.39346  1.0000
  C   C1056     1.0  0.72463  0.24887  0.19987  1.0000
  H   H1847     1.0  0.73974  0.31937  0.22489  1.0000
  H   H1848     1.0  0.69798  0.10656  0.31755  1.0000
  C   C1057     1.0  0.67657  0.44199  0.29747  1.0000
  H   H1849     1.0  0.73411  0.46025  0.06555  1.0000
  H   H1850     1.0  0.73367  0.41449  0.19594  1.0000
  C   C1058     1.0  0.52707  0.16783  0.99558  1.0000
  C   C1059     1.0  0.51937  0.03275  0.43920  1.0000
  H   H1851     1.0  0.62226  0.12623  0.35531  1.0000
  C   C1060     1.0  0.51787  0.21793  0.09419  1.0000
  H   H1852     1.0  0.67103  0.20343  0.99749  1.0000
  C   C1061     1.0  0.54184  0.25598  0.08390  1.0000
  H   H1853     1.0  0.70631  0.13410  0.29503  1.0000
  H   H1854     1.0  0.50409  0.48400  0.37668  1.0000
  H   H1855     1.0  0.50780  0.38148  0.45973  1.0000
  H   H1856     1.0  0.58563  0.11981  0.35932  1.0000
  C   C1062     1.0  0.66650  0.44130  0.01355  1.0000
  H   H1857     1.0  0.54989  0.26025  0.06445  1.0000
  H   H1858     1.0  0.56959  0.10111  0.31565  1.0000
  C   C1063     1.0  0.49423  0.28235  0.28503  1.0000
  H   H1859     1.0  0.55210  0.27785  0.10612  1.0000
  H   H1860     1.0  0.59519  0.11247  0.28266  1.0000
  H   H1861     1.0  0.51253  0.05202  0.45746  1.0000
  C   C1064     1.0  0.70752  0.38168  0.26833  1.0000
  C   C1065     1.0  0.60986  0.11944  0.36292  1.0000
  C   C1066     1.0  0.59770  0.12678  0.34986  1.0000
  C   C1067     1.0  0.58628  0.15151  0.31406  1.0000
  H   H1862     1.0  0.67254  0.49202  0.19448  1.0000
  H   H1863     1.0  0.71585  0.45912  0.15199  1.0000
  H   H1864     1.0  0.52989  0.24922  0.07729  1.0000
  H   H1865     1.0  0.56887  0.07270  0.31241  1.0000
  C   C1068     1.0  0.72856  0.46647  0.08089  1.0000
  C   C1069     1.0  0.52221  0.99771  0.37584  1.0000
  H   H1866     1.0  0.69253  0.08067  0.30844  1.0000
  H   H1867     1.0  0.58154  0.09499  0.34082  1.0000
  C   C1070     1.0  0.57883  0.08273  0.30208  1.0000
  H   H1868     1.0  0.51489  0.22788  0.10430  1.0000
  H   H1869     1.0  0.55971  0.01924  0.45810  1.0000
  H   H1870     1.0  0.54258  0.28488  0.27381  1.0000
  H   H1871     1.0  0.63266  0.15755  0.24149  1.0000
  H   H1872     1.0  0.62920  0.16816  0.27167  1.0000
  H   H1873     1.0  0.66688  0.08161  0.31890  1.0000
  H   H1874     1.0  0.71640  0.21714  0.11528  1.0000
  H   H1875     1.0  0.50238  0.18772  0.02845  1.0000
  H   H1876     1.0  0.73653  0.23543  0.14277  1.0000
  H   H1877     1.0  0.51793  0.43453  0.45193  1.0000
  N   N59       1.0  0.59782  0.12781  0.31783  1.0000
  C   C1071     1.0  0.59564  0.11166  0.30615  1.0000
  H   H1878     1.0  0.60618  0.10775  0.30991  1.0000
  H   H1879     1.0  0.62344  0.13408  0.31082  1.0000
  H   H1880     1.0  0.71852  0.25774  0.20051  1.0000
  H   H1881     1.0  0.73964  0.30077  0.08711  1.0000
  C   C1072     1.0  0.71518  0.22887  0.12065  1.0000
  H   H1882     1.0  0.49276  0.24351  0.21804  1.0000
  H   H1883     1.0  0.57298  0.12656  0.32124  1.0000
  H   H1884     1.0  0.56088  0.14868  0.31642  1.0000
  H   H1885     1.0  0.72132  0.08167  0.30364  1.0000
  H   H1886     1.0  0.63226  0.06150  0.30883  1.0000
  H   H1887     1.0  0.60522  0.14616  0.26522  1.0000
  H   H1888     1.0  0.68849  0.06833  0.27939  1.0000
  H   H1889     1.0  0.68237  0.45626  0.25820  1.0000
  H   H1890     1.0  0.70078  0.18411  0.07540  1.0000
  H   H1891     1.0  0.70835  0.08968  0.24735  1.0000
  C   C1073     1.0  0.58427  0.13366  0.30926  1.0000
  H   H1892     1.0  0.64822  0.08862  0.19651  1.0000
  H   H1893     1.0  0.61614  0.13220  0.26234  1.0000
  C   C1074     1.0  0.66087  0.08916  0.23495  1.0000
  H   H1894     1.0  0.60968  0.13837  0.01180  1.0000
  H   H1895     1.0  0.57370  0.16882  0.30766  1.0000
  H   H1896     1.0  0.49891  0.27016  0.20246  1.0000
  H   H1897     1.0  0.67825  0.10752  0.32549  1.0000
  C   C1075     1.0  0.67531  0.08476  0.24613  1.0000
  H   H1898     1.0  0.65492  0.08596  0.29298  1.0000
  C   C1076     1.0  0.71713  0.47655  0.03812  1.0000
  C   C1077     1.0  0.51475  0.26642  0.24862  1.0000
  H   H1899     1.0  0.51897  0.21548  0.99750  1.0000
  H   H1900     1.0  0.69833  0.13343  0.33105  1.0000
  H   H1901     1.0  0.68580  0.09171  0.23199  1.0000
  H   H1902     1.0  0.70791  0.48161  0.25043  1.0000
  H   H1903     1.0  0.56453  0.47956  0.28511  1.0000
  C   C1078     1.0  0.71663  0.46478  0.13024  1.0000
  C   C1079     1.0  0.68355  0.10571  0.27997  1.0000
  C   C1080     1.0  0.53709  0.46424  0.47177  1.0000
  C   C1081     1.0  0.54661  0.00667  0.42296  1.0000
  H   H1904     1.0  0.72279  0.43557  0.08974  1.0000
  C   C1082     1.0  0.68053  0.48750  0.24973  1.0000
  H   H1905     1.0  0.69877  0.45832  0.28019  1.0000
  C   C1083     1.0  0.71037  0.19253  0.06115  1.0000
  H   H1906     1.0  0.73202  0.36893  0.26705  1.0000
  H   H1907     1.0  0.52448  0.10859  0.14881  1.0000
  H   H1908     1.0  0.70509  0.17732  0.02616  1.0000
  H   H1909     1.0  0.71682  0.06893  0.27394  1.0000
  H   H1910     1.0  0.57678  0.48805  0.25331  1.0000
  H   H1911     1.0  0.50823  0.23458  0.25391  1.0000
  H   H1912     1.0  0.49885  0.28557  0.22497  1.0000
  H   H1913     1.0  0.72956  0.25194  0.13261  1.0000
  H   H1914     1.0  0.49599  0.05928  0.30239  1.0000
  H   H1915     1.0  0.53318  0.01025  0.33560  1.0000
  C   C1084     1.0  0.49607  0.38706  0.26374  1.0000
  H   H1916     1.0  0.53844  0.47710  0.47392  1.0000
  H   H1917     1.0  0.49281  0.20399  0.09432  1.0000
  C   C1085     1.0  0.71938  0.20154  0.00955  1.0000
  H   H1918     1.0  0.49125  0.44142  0.35834  1.0000
  C   C1086     1.0  0.50112  0.40789  0.47980  1.0000
  H   H1919     1.0  0.50601  0.99818  0.43342  1.0000
  C   C1087     1.0  0.70713  0.49052  0.26603  1.0000
  H   H1920     1.0  0.73600  0.27211  0.08649  1.0000
  H   H1921     1.0  0.70278  0.39196  0.26916  1.0000
  H   H1922     1.0  0.73255  0.38464  0.19069  1.0000
  H   H1923     1.0  0.57732  0.00623  0.43501  1.0000
  H   H1924     1.0  0.68733  0.47306  0.31486  1.0000
  H   H1925     1.0  0.66534  0.49039  0.31540  1.0000
  C   C1088     1.0  0.53269  0.36558  0.01093  1.0000
  H   H1926     1.0  0.52796  0.43346  0.48342  1.0000
  C   C1089     1.0  0.49334  0.27256  0.22270  1.0000
  H   H1927     1.0  0.66757  0.48370  0.25572  1.0000
  H   H1928     1.0  0.72286  0.47015  0.02346  1.0000
  H   H1929     1.0  0.50629  0.45808  0.33994  1.0000
  C   C1090     1.0  0.62199  0.48623  0.28747  1.0000
  H   H1930     1.0  0.50275  0.35909  0.30097  1.0000
  H   H1931     1.0  0.49200  0.25765  0.29234  1.0000
  H   H1932     1.0  0.56720  0.44812  0.48543  1.0000
  H   H1933     1.0  0.52839  0.37513  0.00149  1.0000
  H   H1934     1.0  0.70059  0.48707  0.14215  1.0000
  H   H1935     1.0  0.55594  0.38155  0.01711  1.0000
  H   H1936     1.0  0.51770  0.00043  0.46342  1.0000
  H   H1937     1.0  0.50409  0.39409  0.27925  1.0000
  C   C1091     1.0  0.49585  0.34778  0.29322  1.0000
  H   H1938     1.0  0.57272  0.99929  0.47171  1.0000
  H   H1939     1.0  0.49614  0.39511  0.24493  1.0000
  H   H1940     1.0  0.73831  0.34341  0.19865  1.0000
  C   C1092     1.0  0.51771  0.99778  0.44053  1.0000
  C   C1093     1.0  0.49243  0.32729  0.25806  1.0000
  H   H1941     1.0  0.58177  0.36508  0.00482  1.0000
  H   H1942     1.0  0.58118  0.39106  0.00156  1.0000
  H   H1943     1.0  0.73721  0.47874  0.08113  1.0000
  H   H1944     1.0  0.73493  0.48608  0.14380  1.0000
  Fe  Fe120     1.0  0.49488  0.39597  0.39183  1.0000
  C   C1094     1.0  0.56762  0.99920  0.45059  1.0000
  H   H1945     1.0  0.67191  0.43820  0.99458  1.0000
  C   C1095     1.0  0.49534  0.48229  0.35989  1.0000
  H   H1946     1.0  0.54534  0.00028  0.46916  1.0000
  H   H1947     1.0  0.61216  0.49441  0.47907  1.0000
  H   H1948     1.0  0.74037  0.47133  0.21171  1.0000
  C   C1096     1.0  0.59746  0.34559  0.98822  1.0000
  H   H1949     1.0  0.74060  0.29278  0.12261  1.0000
  Fe  Fe121     1.0  0.58027  0.46860  0.67015  1.0000
  S   S240      1.0  0.60560  0.47040  0.65896  1.0000
  S   S241      1.0  0.56395  0.44334  0.67412  1.0000
  C   C1097     1.0  0.51274  0.24439  0.93161  1.0000
  H   H1950     1.0  0.53774  0.38951  0.60758  1.0000
  H   H1951     1.0  0.54671  0.43129  0.52190  1.0000
  Fe  Fe122     1.0  0.55519  0.33265  0.85662  1.0000
  S   S242      1.0  0.54170  0.34511  0.88320  1.0000
  S   S243      1.0  0.57803  0.34869  0.83382  1.0000
  Fe  Fe123     1.0  0.52880  0.30002  0.86605  1.0000
  S   S244      1.0  0.51397  0.31076  0.89406  1.0000
  S   S245      1.0  0.51589  0.27439  0.85411  1.0000
  Fe  Fe124     1.0  0.52033  0.33120  0.86029  1.0000
  H   H1952     1.0  0.57711  0.04878  0.59616  1.0000
  Fe  Fe125     1.0  0.53685  0.32355  0.91395  1.0000
  S   S246      1.0  0.54498  0.32701  0.95938  1.0000
  S   S247      1.0  0.53416  0.32004  0.83197  1.0000
  S   S248      1.0  0.55140  0.31158  0.88785  1.0000
  Fe  Fe126     1.0  0.51450  0.15955  0.91384  1.0000
  S   S249      1.0  0.53924  0.17585  0.90261  1.0000
  H   H1953     1.0  0.70437  0.42509  0.96119  1.0000
  Fe  Fe127     1.0  0.50912  0.15041  0.85028  1.0000
  S   S250      1.0  0.53338  0.16733  0.83559  1.0000
  C   C1098     1.0  0.60519  0.01276  0.62174  1.0000
  Fe  Fe128     1.0  0.54184  0.15716  0.87397  1.0000
  S   S251      1.0  0.56216  0.14687  0.87022  1.0000
  Fe  Fe129     1.0  0.52855  0.18499  0.86556  1.0000
  S   S252      1.0  0.53897  0.21237  0.85987  1.0000
  S   S253      1.0  0.51788  0.13973  0.88799  1.0000
  S   S254      1.0  0.50351  0.16904  0.87745  1.0000
  Fe  Fe130     1.0  0.65961  0.14644  0.86885  1.0000
  S   S255      1.0  0.66439  0.17174  0.85078  1.0000
  S   S256      1.0  0.64802  0.12301  0.84673  1.0000
  Fe  Fe131     1.0  0.66839  0.15824  0.92963  1.0000
  S   S257      1.0  0.67295  0.18399  0.91545  1.0000
  C   C1099     1.0  0.70000  0.20069  0.97235  1.0000
  Fe  Fe132     1.0  0.65106  0.17488  0.89061  1.0000
  S   S258      1.0  0.63342  0.18866  0.88827  1.0000
  Fe  Fe133     1.0  0.68596  0.17871  0.87730  1.0000
  S   S259      1.0  0.71105  0.19460  0.86202  1.0000
  S   S260      1.0  0.64532  0.14947  0.90799  1.0000
  S   S261      1.0  0.68237  0.15309  0.89216  1.0000
  Fe  Fe134     1.0  0.64287  0.44374  0.87261  1.0000
  S   S262      1.0  0.65460  0.42537  0.86114  1.0000
  S   S263      1.0  0.62522  0.45078  0.84464  1.0000
  Fe  Fe135     1.0  0.65266  0.44302  0.93489  1.0000
  S   S264      1.0  0.66525  0.42489  0.92747  1.0000
  H   H1954     1.0  0.72405  0.26622  0.78381  1.0000
  Fe  Fe136     1.0  0.67503  0.43927  0.88643  1.0000
  S   S265      1.0  0.69948  0.44175  0.86507  1.0000
  Fe  Fe137     1.0  0.64421  0.41243  0.90278  1.0000
  S   S266      1.0  0.63321  0.38566  0.91099  1.0000
  S   S267      1.0  0.66391  0.45868  0.89528  1.0000
  S   S268      1.0  0.63093  0.42948  0.91283  1.0000
  Fe  Fe138     1.0  0.62102  0.07688  0.70036  1.0000
  S   S269      1.0  0.60568  0.08510  0.67076  1.0000
  S   S270      1.0  0.63996  0.09652  0.72163  1.0000
  Fe  Fe139     1.0  0.60430  0.04180  0.68750  1.0000
  S   S271      1.0  0.58762  0.04770  0.65757  1.0000
  Fe  Fe140     1.0  0.60905  0.06761  0.63974  1.0000
  S   S272      1.0  0.61212  0.07778  0.59373  1.0000
  Fe  Fe141     1.0  0.58562  0.06478  0.69054  1.0000
  S   S273      1.0  0.56419  0.07144  0.70474  1.0000
  S   S274      1.0  0.62627  0.06085  0.66763  1.0000
  S   S275      1.0  0.60054  0.05738  0.72207  1.0000
  H   H1955     1.0  0.55409  0.43149  0.73490  1.0000
  S   S276      1.0  0.50382  0.03358  0.64166  1.0000
  C   C1100     1.0  0.62897  0.47760  0.75677  1.0000
  C   C1101     1.0  0.54726  0.06050  0.68803  1.0000
  C   C1102     1.0  0.54669  0.04620  0.67563  1.0000
  C   C1103     1.0  0.53333  0.03791  0.66127  1.0000
  C   C1104     1.0  0.52043  0.04380  0.65979  1.0000
  C   C1105     1.0  0.52083  0.05786  0.67283  1.0000
  C   C1106     1.0  0.53426  0.06625  0.68683  1.0000
  H   H1956     1.0  0.55637  0.04135  0.67761  1.0000
  H   H1957     1.0  0.53288  0.02686  0.65171  1.0000
  H   H1958     1.0  0.51085  0.06241  0.67203  1.0000
  H   H1959     1.0  0.53462  0.07728  0.69645  1.0000
  C   C1107     1.0  0.61086  0.06810  0.56123  1.0000
  C   C1108     1.0  0.60937  0.05186  0.56024  1.0000
  C   C1109     1.0  0.60894  0.04485  0.53381  1.0000
  C   C1110     1.0  0.61102  0.07011  0.50919  1.0000
  C   C1111     1.0  0.61153  0.07713  0.53560  1.0000
  H   H1960     1.0  0.60891  0.04483  0.57977  1.0000
  C   C1112     1.0  0.50030  0.34763  0.80539  1.0000
  H   H1961     1.0  0.61273  0.08971  0.53612  1.0000
  C   C1113     1.0  0.57328  0.09339  0.86289  1.0000
  C   C1114     1.0  0.72000  0.44762  0.90933  1.0000
  C   C1115     1.0  0.71819  0.44529  0.88038  1.0000
  H   H1962     1.0  0.70212  0.22620  0.96857  1.0000
  S   S277      1.0  0.58555  0.48531  0.70584  1.0000
  H   H1963     1.0  0.70988  0.44775  0.92290  1.0000
  H   H1964     1.0  0.50432  0.08669  0.82895  1.0000
  C   C1116     1.0  0.67772  0.44630  0.79381  1.0000
  C   C1117     1.0  0.59200  0.35668  0.96824  1.0000
  C   C1118     1.0  0.64548  0.11636  0.81142  1.0000
  C   C1119     1.0  0.65407  0.12549  0.78752  1.0000
  C   C1120     1.0  0.65206  0.11930  0.76025  1.0000
  C   C1121     1.0  0.64121  0.10408  0.75632  1.0000
  C   C1122     1.0  0.63235  0.09512  0.78011  1.0000
  C   C1123     1.0  0.63456  0.10118  0.80741  1.0000
  H   H1965     1.0  0.66255  0.13714  0.79016  1.0000
  H   H1966     1.0  0.65909  0.12633  0.74211  1.0000
  H   H1967     1.0  0.62404  0.08339  0.77765  1.0000
  H   H1968     1.0  0.62783  0.09400  0.82569  1.0000
  C   C1124     1.0  0.71792  0.18207  0.93701  1.0000
  C   C1125     1.0  0.57796  0.43608  0.59050  1.0000
  H   H1969     1.0  0.59790  0.01682  0.63768  1.0000
  H   H1970     1.0  0.50394  0.37773  0.49784  1.0000
  H   H1971     1.0  0.51296  0.13664  0.77160  1.0000
  C   C1126     1.0  0.57011  0.43780  0.54161  1.0000
  C   C1127     1.0  0.58169  0.15878  0.87622  1.0000
  C   C1128     1.0  0.59363  0.15147  0.87725  1.0000
  C   C1129     1.0  0.60948  0.16057  0.88095  1.0000
  C   C1130     1.0  0.61350  0.17705  0.88387  1.0000
  C   C1131     1.0  0.60153  0.18439  0.88303  1.0000
  C   C1132     1.0  0.58563  0.17528  0.87922  1.0000
  H   H1972     1.0  0.59063  0.13871  0.87516  1.0000
  H   H1973     1.0  0.61858  0.15480  0.88136  1.0000
  H   H1974     1.0  0.60455  0.19714  0.88529  1.0000
  H   H1975     1.0  0.57647  0.18101  0.87842  1.0000
  C   C1133     1.0  0.59338  0.35879  0.85539  1.0000
  C   C1134     1.0  0.60378  0.37392  0.84594  1.0000
  C   C1135     1.0  0.61592  0.38241  0.86295  1.0000
  C   C1136     1.0  0.61813  0.37547  0.88901  1.0000
  C   C1137     1.0  0.60819  0.36004  0.89783  1.0000
  C   C1138     1.0  0.59555  0.35191  0.88153  1.0000
  H   H1976     1.0  0.60216  0.37916  0.82568  1.0000
  H   H1977     1.0  0.62362  0.39423  0.85588  1.0000
  H   H1978     1.0  0.61026  0.35436  0.91738  1.0000
  H   H1979     1.0  0.58775  0.34013  0.88878  1.0000
  C   C1139     1.0  0.52233  0.25718  0.85690  1.0000
  C   C1140     1.0  0.51156  0.24207  0.85197  1.0000
  C   C1141     1.0  0.51624  0.22813  0.85354  1.0000
  C   C1142     1.0  0.53189  0.22921  0.85950  1.0000
  C   C1143     1.0  0.54261  0.24431  0.86448  1.0000
  C   C1144     1.0  0.53785  0.25818  0.86350  1.0000
  C   C1145     1.0  0.58285  0.39123  0.97805  1.0000
  H   H1980     1.0  0.50790  0.21665  0.84942  1.0000
  H   H1981     1.0  0.55477  0.24532  0.86892  1.0000
  H   H1982     1.0  0.54629  0.26969  0.86726  1.0000
  C   C1146     1.0  0.55101  0.14395  0.77880  1.0000
  H   H1983     1.0  0.64963  0.45312  0.68148  1.0000
  H   H1984     1.0  0.58315  0.44435  0.73191  1.0000
  C   C1147     1.0  0.63288  0.40467  0.75424  1.0000
  H   H1985     1.0  0.51695  0.45608  0.50177  1.0000
  H   H1986     1.0  0.64684  0.39206  0.77754  1.0000
  C   C1148     1.0  0.64193  0.47074  0.79826  1.0000
  C   C1149     1.0  0.62716  0.46151  0.81103  1.0000
  C   C1150     1.0  0.61332  0.46043  0.79648  1.0000
  C   C1151     1.0  0.50271  0.11620  0.74646  1.0000
  C   C1152     1.0  0.52204  0.38519  0.84306  1.0000
  H   H1987     1.0  0.55686  0.04787  0.52397  1.0000
  C   C1153     1.0  0.54389  0.44142  0.67085  1.0000
  C   C1154     1.0  0.53263  0.42636  0.67653  1.0000
  C   C1155     1.0  0.51653  0.42417  0.67309  1.0000
  C   C1156     1.0  0.51167  0.43686  0.66270  1.0000
  C   C1157     1.0  0.52285  0.45211  0.65767  1.0000
  C   C1158     1.0  0.53901  0.45443  0.66195  1.0000
  H   H1988     1.0  0.53638  0.41630  0.68316  1.0000
  H   H1989     1.0  0.50791  0.41259  0.67838  1.0000
  H   H1990     1.0  0.51907  0.46202  0.65007  1.0000
  H   H1991     1.0  0.54767  0.46615  0.65793  1.0000
  H   H1992     1.0  0.69105  0.09250  0.73728  1.0000
  H   H1993     1.0  0.50982  0.37778  0.83847  1.0000
  C   C1159     1.0  0.51064  0.34594  0.78335  1.0000
  N   N60       1.0  0.59763  0.12046  0.74202  1.0000
  C   C1160     1.0  0.60922  0.12868  0.76333  1.0000
  C   C1161     1.0  0.60690  0.11696  0.71694  1.0000
  C   C1162     1.0  0.58822  0.13129  0.73304  1.0000
  C   C1163     1.0  0.58610  0.10487  0.75461  1.0000
  C   C1164     1.0  0.59358  0.09308  0.76929  1.0000
  C   C1165     1.0  0.60170  0.13181  0.79191  1.0000
  C   C1166     1.0  0.57786  0.12611  0.70722  1.0000
  C   C1167     1.0  0.61891  0.13177  0.70043  1.0000
  C   C1168     1.0  0.62579  0.12711  0.67311  1.0000
  C   C1169     1.0  0.58071  0.07800  0.78173  1.0000
  C   C1170     1.0  0.61461  0.13919  0.81222  1.0000
  H   H1994     1.0  0.61694  0.14060  0.75431  1.0000
  H   H1995     1.0  0.61765  0.12190  0.76786  1.0000
  H   H1996     1.0  0.61401  0.10926  0.72388  1.0000
  H   H1997     1.0  0.59864  0.10981  0.70180  1.0000
  H   H1998     1.0  0.58008  0.13226  0.75097  1.0000
  H   H1999     1.0  0.57732  0.10710  0.77014  1.0000
  H   H2000     1.0  0.57884  0.09818  0.73784  1.0000
  H   H2001     1.0  0.60079  0.09854  0.78703  1.0000
  H   H2002     1.0  0.60126  0.08925  0.75384  1.0000
  H   H2003     1.0  0.59485  0.14028  0.78847  1.0000
  H   H2004     1.0  0.59362  0.12061  0.80270  1.0000
  H   H2005     1.0  0.56985  0.11359  0.71046  1.0000
  H   H2006     1.0  0.58633  0.08766  0.62059  1.0000
  H   H2007     1.0  0.61331  0.14096  0.69437  1.0000
  H   H2008     1.0  0.62908  0.13729  0.71362  1.0000
  H   H2009     1.0  0.63200  0.11820  0.67794  1.0000
  H   H2010     1.0  0.61620  0.12201  0.65852  1.0000
  H   H2011     1.0  0.63457  0.13785  0.66209  1.0000
  H   H2012     1.0  0.58639  0.06990  0.79243  1.0000
  H   H2013     1.0  0.57266  0.08107  0.79759  1.0000
  H   H2014     1.0  0.57358  0.07150  0.76464  1.0000
  H   H2015     1.0  0.60905  0.14171  0.83219  1.0000
  H   H2016     1.0  0.62125  0.13078  0.81763  1.0000
  H   H2017     1.0  0.62309  0.15061  0.80278  1.0000
  C   C1171     1.0  0.64308  0.23742  0.80459  1.0000
  H   H2018     1.0  0.65705  0.24389  0.84059  1.0000
  H   H2019     1.0  0.68199  0.45844  0.80206  1.0000
  H   H2020     1.0  0.65429  0.48590  0.76174  1.0000
  H   H2021     1.0  0.53480  0.07953  0.75149  1.0000
  C   C1172     1.0  0.63416  0.39050  0.77371  1.0000
  S   S278      1.0  0.49166  0.38836  0.64626  1.0000
  H   H2022     1.0  0.49696  0.08171  0.88073  1.0000
  H   H2023     1.0  0.50758  0.10784  0.83231  1.0000
  H   H2024     1.0  0.50680  0.31162  0.79259  1.0000
  H   H2025     1.0  0.49542  0.22808  0.96156  1.0000
  H   H2026     1.0  0.65340  0.44378  0.80590  1.0000
  H   H2027     1.0  0.60256  0.36693  0.96098  1.0000
  H   H2028     1.0  0.54911  0.36111  0.96450  1.0000
  H   H2029     1.0  0.62873  0.36471  0.77415  1.0000
  H   H2030     1.0  0.51472  0.09592  0.78628  1.0000
  H   H2031     1.0  0.51173  0.12043  0.72920  1.0000
  H   H2032     1.0  0.63375  0.37467  0.73918  1.0000
  H   H2033     1.0  0.53742  0.30537  0.77731  1.0000
  H   H2034     1.0  0.53838  0.30990  0.73960  1.0000
  H   H2035     1.0  0.64452  0.23611  0.78140  1.0000
  C   C1173     1.0  0.64212  0.45071  0.70166  1.0000
  C   C1174     1.0  0.63381  0.43272  0.74680  1.0000
  C   C1175     1.0  0.64908  0.02930  0.67917  1.0000
  H   H2036     1.0  0.65796  0.05410  0.68776  1.0000
  H   H2037     1.0  0.64652  0.01723  0.68997  1.0000
  H   H2038     1.0  0.63794  0.03045  0.67080  1.0000
  H   H2039     1.0  0.65779  0.03048  0.66088  1.0000
  H   H2040     1.0  0.54645  0.45312  0.54219  1.0000
  H   H2041     1.0  0.58540  0.43066  0.75965  1.0000
  H   H2042     1.0  0.53209  0.32244  0.76354  1.0000
  H   H2043     1.0  0.53314  0.43855  0.56782  1.0000
  H   H2044     1.0  0.53325  0.46045  0.59928  1.0000
  H   H2045     1.0  0.57509  0.39893  0.92441  1.0000
  C   C1176     1.0  0.57587  0.38703  0.88618  1.0000
  H   H2046     1.0  0.68382  0.41326  0.97014  1.0000
  H   H2047     1.0  0.60348  0.46755  0.75875  1.0000
  N   N61       1.0  0.53682  0.40197  0.76511  1.0000
  C   C1177     1.0  0.52548  0.41143  0.76022  1.0000
  C   C1178     1.0  0.55305  0.41355  0.76972  1.0000
  C   C1179     1.0  0.53730  0.39248  0.73943  1.0000
  C   C1180     1.0  0.53145  0.39049  0.79092  1.0000
  H   H2048     1.0  0.57780  0.08330  0.51885  1.0000
  C   C1181     1.0  0.50757  0.40155  0.76002  1.0000
  C   C1182     1.0  0.54913  0.38269  0.73957  1.0000
  H   H2049     1.0  0.59908  0.03344  0.79840  1.0000
  H   H2050     1.0  0.66471  0.23689  0.90903  1.0000
  C   C1183     1.0  0.62736  0.37456  0.76002  1.0000
  H   H2051     1.0  0.60410  0.42271  0.96941  1.0000
  C   C1184     1.0  0.54994  0.37538  0.71095  1.0000
  H   H2052     1.0  0.52855  0.41838  0.73936  1.0000
  H   H2053     1.0  0.52672  0.42060  0.77622  1.0000
  H   H2054     1.0  0.55210  0.42158  0.78682  1.0000
  H   H2055     1.0  0.56116  0.40711  0.77768  1.0000
  H   H2056     1.0  0.53988  0.40040  0.71969  1.0000
  H   H2057     1.0  0.52539  0.38372  0.73682  1.0000
  H   H2058     1.0  0.52029  0.38081  0.78713  1.0000
  H   H2059     1.0  0.54031  0.38418  0.79496  1.0000
  C   C1185     1.0  0.52337  0.08087  0.75980  1.0000
  H   H2060     1.0  0.55235  0.38206  0.96556  1.0000
  H   H2061     1.0  0.50547  0.39319  0.74265  1.0000
  H   H2062     1.0  0.50314  0.39454  0.78047  1.0000
  H   H2063     1.0  0.54519  0.37268  0.75611  1.0000
  H   H2064     1.0  0.56136  0.39021  0.74362  1.0000
  H   H2065     1.0  0.65510  0.41718  0.79335  1.0000
  H   H2066     1.0  0.73020  0.16410  0.93870  1.0000
  H   H2067     1.0  0.62174  0.41771  0.97712  1.0000
  C   C1186     1.0  0.51183  0.20787  0.98145  1.0000
  N   N62       1.0  0.50219  0.42437  0.48908  1.0000
  H   H2068     1.0  0.60496  0.44417  0.62065  1.0000
  H   H2069     1.0  0.51474  0.28693  0.75505  1.0000
  H   H2070     1.0  0.52013  0.34113  0.78818  1.0000
  H   H2071     1.0  0.51365  0.23804  0.97600  1.0000
  C   C1187     1.0  0.50425  0.29906  0.78638  1.0000
  H   H2072     1.0  0.67475  0.10048  0.73221  1.0000
  H   H2073     1.0  0.55472  0.38495  0.69378  1.0000
  H   H2074     1.0  0.55792  0.36785  0.71188  1.0000
  H   H2075     1.0  0.53791  0.36773  0.70573  1.0000
  N   N63       1.0  0.69810  0.39068  0.90051  1.0000
  C   C1188     1.0  0.71506  0.39035  0.90089  1.0000
  C   C1189     1.0  0.68643  0.37397  0.90654  1.0000
  C   C1190     1.0  0.69572  0.39640  0.87085  1.0000
  C   C1191     1.0  0.69477  0.40212  0.92095  1.0000
  C   C1192     1.0  0.69859  0.39985  0.95224  1.0000
  C   C1193     1.0  0.55623  0.37211  0.97460  1.0000
  C   C1194     1.0  0.67849  0.39613  0.86493  1.0000
  C   C1195     1.0  0.69139  0.36234  0.92704  1.0000
  H   H2076     1.0  0.69077  0.18953  0.98116  1.0000
  S   S279      1.0  0.57935  0.48712  0.63681  1.0000
  H   H2077     1.0  0.68461  0.04257  0.80178  1.0000
  C   C1196     1.0  0.67723  0.40039  0.83356  1.0000
  H   H2078     1.0  0.62943  0.44768  0.69647  1.0000
  H   H2079     1.0  0.71746  0.38558  0.92174  1.0000
  H   H2080     1.0  0.67463  0.37461  0.91471  1.0000
  H   H2081     1.0  0.68402  0.36758  0.88649  1.0000
  H   H2082     1.0  0.69952  0.38917  0.85483  1.0000
  H   H2083     1.0  0.70335  0.40901  0.86591  1.0000
  H   H2084     1.0  0.70115  0.41473  0.91330  1.0000
  H   H2085     1.0  0.68195  0.40120  0.92150  1.0000
  H   H2086     1.0  0.71105  0.39995  0.95405  1.0000
  H   H2087     1.0  0.69028  0.38847  0.96200  1.0000
  H   H2088     1.0  0.67076  0.03025  0.74544  1.0000
  H   H2089     1.0  0.64273  0.42659  0.70599  1.0000
  H   H2090     1.0  0.67510  0.40502  0.87754  1.0000
  H   H2091     1.0  0.66959  0.38421  0.87029  1.0000
  H   H2092     1.0  0.70105  0.35862  0.91651  1.0000
  H   H2093     1.0  0.68509  0.10360  0.76452  1.0000
  H   H2094     1.0  0.56441  0.22705  0.94602  1.0000
  H   H2095     1.0  0.65819  0.21575  0.91884  1.0000
  C   C1197     1.0  0.56750  0.07336  0.51247  1.0000
  H   H2096     1.0  0.53508  0.17134  0.97677  1.0000
  H   H2097     1.0  0.54432  0.48780  0.61727  1.0000
  H   H2098     1.0  0.62081  0.40134  0.74571  1.0000
  H   H2099     1.0  0.60674  0.34166  0.97690  1.0000
  C   C1198     1.0  0.71422  0.22234  0.89049  1.0000
  H   H2100     1.0  0.51633  0.19747  0.97976  1.0000
  H   H2101     1.0  0.66481  0.39999  0.82987  1.0000
  H   H2102     1.0  0.68532  0.41266  0.82743  1.0000
  H   H2103     1.0  0.68034  0.39171  0.81992  1.0000
  H   H2104     1.0  0.50949  0.30342  0.73968  1.0000
  H   H2105     1.0  0.60181  0.45349  0.80622  1.0000
  C   C1199     1.0  0.61421  0.46836  0.76952  1.0000
  H   H2106     1.0  0.71701  0.38192  0.88521  1.0000
  H   H2107     1.0  0.50947  0.29310  0.80292  1.0000
  H   H2108     1.0  0.56829  0.35077  0.98531  1.0000
  C   C1200     1.0  0.73496  0.44978  0.92074  1.0000
  H   H2109     1.0  0.64962  0.03089  0.77855  1.0000
  H   H2110     1.0  0.59618  0.14378  0.72818  1.0000
  H   H2111     1.0  0.52553  0.25163  0.93127  1.0000
  C   C1201     1.0  0.49699  0.09301  0.86931  1.0000
  H   H2112     1.0  0.51673  0.08305  0.74143  1.0000
  H   H2113     1.0  0.65772  0.44097  0.72419  1.0000
  H   H2114     1.0  0.50692  0.26527  0.91596  1.0000
  H   H2115     1.0  0.61189  0.07730  0.48964  1.0000
  H   H2116     1.0  0.58208  0.42555  0.58670  1.0000
  S   S280      1.0  0.50241  0.15708  0.95880  1.0000
  H   H2117     1.0  0.66759  0.35016  0.94648  1.0000
  C   C1202     1.0  0.49347  0.41022  0.53988  1.0000
  C   C1203     1.0  0.55767  0.21830  0.93120  1.0000
  C   C1204     1.0  0.64498  0.43703  0.71938  1.0000
  C   C1205     1.0  0.51438  0.29922  0.75852  1.0000
  H   H2118     1.0  0.64538  0.46182  0.71344  1.0000
  C   C1206     1.0  0.50848  0.23170  0.95701  1.0000
  H   H2119     1.0  0.57367  0.03660  0.56586  1.0000
  H   H2120     1.0  0.52959  0.37729  0.84565  1.0000
  C   C1207     1.0  0.64432  0.04091  0.72606  1.0000
  H   H2121     1.0  0.56967  0.36237  0.92912  1.0000
  H   H2122     1.0  0.59012  0.46134  0.59752  1.0000
  H   H2123     1.0  0.57469  0.45082  0.53489  1.0000
  H   H2124     1.0  0.72752  0.22571  0.96926  1.0000
  Fe  Fe142     1.0  0.60520  0.49044  0.62810  1.0000
  N   N64       1.0  0.53863  0.10454  0.82733  1.0000
  C   C1208     1.0  0.65368  0.42544  0.77589  1.0000
  N   N65       1.0  0.55627  0.06011  0.56261  1.0000
  C   C1209     1.0  0.55322  0.04439  0.57958  1.0000
  C   C1210     1.0  0.54067  0.06321  0.55723  1.0000
  H   H2125     1.0  0.52079  0.40525  0.81717  1.0000
  C   C1211     1.0  0.56735  0.07390  0.57692  1.0000
  C   C1212     1.0  0.56223  0.07629  0.60780  1.0000
  H   H2126     1.0  0.49442  0.10986  0.65076  1.0000
  C   C1213     1.0  0.52662  0.05636  0.57994  1.0000
  C   C1214     1.0  0.51272  0.06260  0.57391  1.0000
  C   C1215     1.0  0.57476  0.09007  0.62038  1.0000
  C   C1216     1.0  0.62593  0.41934  0.79410  1.0000
  N   N66       1.0  0.57381  0.37513  0.96762  1.0000
  H   H2127     1.0  0.54700  0.04442  0.60050  1.0000
  H   H2128     1.0  0.54264  0.07630  0.55391  1.0000
  H   H2129     1.0  0.53585  0.05799  0.53709  1.0000
  H   H2130     1.0  0.62734  0.43145  0.80132  1.0000
  H   H2131     1.0  0.58133  0.09586  0.84334  1.0000
  H   H2132     1.0  0.57955  0.07288  0.57678  1.0000
  H   H2133     1.0  0.56885  0.08538  0.56456  1.0000
  H   H2134     1.0  0.56064  0.06545  0.62191  1.0000
  H   H2135     1.0  0.55105  0.07942  0.60829  1.0000
  C   C1217     1.0  0.55603  0.09088  0.85553  1.0000
  H   H2136     1.0  0.50269  0.05704  0.58990  1.0000
  H   H2137     1.0  0.52209  0.04309  0.57974  1.0000
  H   H2138     1.0  0.53014  0.05945  0.60168  1.0000
  C   C1218     1.0  0.67354  0.03966  0.76104  1.0000
  H   H2139     1.0  0.49952  0.24114  0.84687  1.0000
  H   H2140     1.0  0.68536  0.44602  0.77465  1.0000
  H   H2141     1.0  0.57641  0.10150  0.60786  1.0000
  H   H2142     1.0  0.57088  0.09134  0.64263  1.0000
  C   C1219     1.0  0.65593  0.04239  0.69963  1.0000
  C   C1220     1.0  0.53160  0.30992  0.75996  1.0000
  H   H2143     1.0  0.58549  0.12707  0.68749  1.0000
  N   N67       1.0  0.51409  0.21733  0.95325  1.0000
  H   H2144     1.0  0.71979  0.27723  0.81313  1.0000
  H   H2145     1.0  0.66766  0.04167  0.70535  1.0000
  H   H2146     1.0  0.51232  0.21095  0.90923  1.0000
  H   H2147     1.0  0.63398  0.04383  0.71741  1.0000
  H   H2148     1.0  0.56210  0.15075  0.76608  1.0000
  H   H2149     1.0  0.55714  0.38290  0.91857  1.0000
  H   H2150     1.0  0.57155  0.00386  0.68569  1.0000
  H   H2151     1.0  0.63524  0.22589  0.81491  1.0000
  H   H2152     1.0  0.65599  0.07309  0.72391  1.0000
  H   H2153     1.0  0.67233  0.06592  0.72680  1.0000
  H   H2154     1.0  0.63950  0.02807  0.73375  1.0000
  H   H2155     1.0  0.61792  0.01785  0.62651  1.0000
  C   C1221     1.0  0.58896  0.48892  0.55270  1.0000
  H   H2156     1.0  0.56456  0.41760  0.72633  1.0000
  H   H2157     1.0  0.54135  0.13940  0.76413  1.0000
  C   C1222     1.0  0.65926  0.24240  0.81773  1.0000
  C   C1223     1.0  0.66199  0.06730  0.73929  1.0000
  H   H2158     1.0  0.70683  0.18294  0.92811  1.0000
  N   N68       1.0  0.65058  0.05130  0.75045  1.0000
  C   C1224     1.0  0.52639  0.09489  0.77912  1.0000
  H   H2159     1.0  0.59877  0.42495  0.82105  1.0000
  H   H2160     1.0  0.54781  0.15226  0.79314  1.0000
  H   H2161     1.0  0.58253  0.48761  0.57309  1.0000
  C   C1225     1.0  0.58901  0.48872  0.50078  1.0000
  H   H2162     1.0  0.63224  0.06278  0.75245  1.0000
  H   H2163     1.0  0.61590  0.03421  0.75565  1.0000
  C   C1226     1.0  0.72832  0.40663  0.89440  1.0000
  H   H2164     1.0  0.55678  0.11556  0.85614  1.0000
  H   H2165     1.0  0.52132  0.39087  0.86342  1.0000
  C   C1227     1.0  0.66764  0.22560  0.90685  1.0000
  H   H2166     1.0  0.64118  0.40558  0.73539  1.0000
  H   H2167     1.0  0.63716  0.24668  0.80782  1.0000
  H   H2168     1.0  0.53407  0.23036  0.92429  1.0000
  C   C1228     1.0  0.52903  0.39808  0.81915  1.0000
  H   H2169     1.0  0.51669  0.34890  0.73818  1.0000
  N   N69       1.0  0.63660  0.42053  0.76771  1.0000
  C   C1229     1.0  0.54408  0.41547  0.60955  1.0000
  H   H2170     1.0  0.57166  0.37489  0.87793  1.0000
  H   H2171     1.0  0.62962  0.41309  0.81224  1.0000
  H   H2172     1.0  0.65957  0.21773  0.82041  1.0000
  C   C1230     1.0  0.63662  0.05448  0.76585  1.0000
  C   C1231     1.0  0.65805  0.04284  0.77148  1.0000
  H   H2173     1.0  0.57736  0.10358  0.87684  1.0000
  C   C1232     1.0  0.68069  0.09492  0.74801  1.0000
  H   H2174     1.0  0.57436  0.02063  0.60911  1.0000
  H   H2175     1.0  0.55672  0.12194  0.78114  1.0000
  H   H2176     1.0  0.72825  0.41111  0.87209  1.0000
  H   H2177     1.0  0.52665  0.46370  0.56464  1.0000
  H   H2178     1.0  0.54655  0.47483  0.57339  1.0000
  H   H2179     1.0  0.60668  0.38920  0.98273  1.0000
  S   S281      1.0  0.49138  0.13221  0.82316  1.0000
  C   C1233     1.0  0.66896  0.07948  0.76189  1.0000
  C   C1234     1.0  0.62196  0.03957  0.77465  1.0000
  H   H2180     1.0  0.60419  0.39754  0.94817  1.0000
  H   H2181     1.0  0.65946  0.08288  0.77349  1.0000
  H   H2182     1.0  0.55715  0.07783  0.51101  1.0000
  H   H2183     1.0  0.66040  0.04947  0.79124  1.0000
  S   S282      1.0  0.50198  0.34180  0.84156  1.0000
  C   C1235     1.0  0.49665  0.35710  0.74818  1.0000
  C   C1236     1.0  0.50849  0.09679  0.84295  1.0000
  H   H2184     1.0  0.65988  0.45179  0.77009  1.0000
  H   H2185     1.0  0.54495  0.03456  0.56836  1.0000
  C   C1237     1.0  0.53179  0.22356  0.94532  1.0000
  C   C1238     1.0  0.57857  0.36196  0.98278  1.0000
  C   C1239     1.0  0.53705  0.46306  0.57638  1.0000
  H   H2186     1.0  0.52071  0.40551  0.50547  1.0000
  H   H2187     1.0  0.69852  0.20077  0.94912  1.0000
  H   H2188     1.0  0.57443  0.43520  0.61358  1.0000
  H   H2189     1.0  0.71914  0.16422  0.90753  1.0000
  H   H2190     1.0  0.55309  0.41596  0.62536  1.0000
  H   H2191     1.0  0.69185  0.25845  0.81851  1.0000
  H   H2192     1.0  0.66642  0.25419  0.80754  1.0000
  C   C1240     1.0  0.56519  0.43507  0.48901  1.0000
  H   H2193     1.0  0.62534  0.03019  0.78669  1.0000
  C   C1241     1.0  0.57611  0.37462  0.93576  1.0000
  C   C1242     1.0  0.55375  0.13009  0.79608  1.0000
  H   H2194     1.0  0.51609  0.06955  0.77150  1.0000
  C   C1243     1.0  0.50584  0.20682  0.93034  1.0000
  H   H2195     1.0  0.66174  0.42423  0.75795  1.0000
  S   S283      1.0  0.60587  0.01700  0.69862  1.0000
  H   H2196     1.0  0.55831  0.22443  0.90990  1.0000
  H   H2197     1.0  0.69546  0.24771  0.78968  1.0000
  C   C1244     1.0  0.60782  0.41122  0.79114  1.0000
  C   C1245     1.0  0.60976  0.04409  0.79363  1.0000
  H   H2198     1.0  0.64035  0.06068  0.78566  1.0000
  C   C1246     1.0  0.59811  0.41233  0.81814  1.0000
  H   H2199     1.0  0.55472  0.01411  0.59565  1.0000
  H   H2200     1.0  0.60597  0.05363  0.78289  1.0000
  C   C1247     1.0  0.69544  0.24782  0.81326  1.0000
  H   H2201     1.0  0.56422  0.13522  0.80887  1.0000
  C   C1248     1.0  0.66792  0.22977  0.81321  1.0000
  H   H2202     1.0  0.49326  0.31765  0.74190  1.0000
  C   C1249     1.0  0.53201  0.39867  0.61293  1.0000
  H   H2203     1.0  0.55702  0.40968  0.57357  1.0000
  H   H2204     1.0  0.61445  0.37210  0.75698  1.0000
  C   C1250     1.0  0.68921  0.21846  0.82335  1.0000
  H   H2205     1.0  0.58543  0.40516  0.81654  1.0000
  C   C1251     1.0  0.60110  0.39712  0.97129  1.0000
  H   H2206     1.0  0.51508  0.42893  0.52760  1.0000
  C   C1252     1.0  0.54311  0.44994  0.56511  1.0000
  Fe  Fe143     1.0  0.61110  0.48804  0.69300  1.0000
  H   H2207     1.0  0.50059  0.41908  0.73411  1.0000
  C   C1253     1.0  0.59260  0.45150  0.58615  1.0000
  C   C1254     1.0  0.56809  0.03929  0.58573  1.0000
  H   H2208     1.0  0.62763  0.38950  0.79462  1.0000
  C   C1255     1.0  0.56739  0.13674  0.70217  1.0000
  C   C1256     1.0  0.73155  0.44537  0.86298  1.0000
  C   C1257     1.0  0.55774  0.44882  0.58078  1.0000
  H   H2209     1.0  0.55498  0.44818  0.60416  1.0000
  H   H2210     1.0  0.61489  0.04837  0.81401  1.0000
  H   H2211     1.0  0.57099  0.39507  0.87336  1.0000
  H   H2212     1.0  0.51059  0.23859  0.91118  1.0000
  C   C1258     1.0  0.50873  0.35050  0.75499  1.0000
  H   H2213     1.0  0.57601  0.05709  0.53678  1.0000
  C   C1259     1.0  0.49736  0.41245  0.75523  1.0000
  C   C1260     1.0  0.72381  0.26697  0.80726  1.0000
  H   H2214     1.0  0.53080  0.08022  0.81397  1.0000
  H   H2215     1.0  0.52718  0.39614  0.63538  1.0000
  H   H2216     1.0  0.66972  0.22935  0.78981  1.0000
  H   H2217     1.0  0.68217  0.21160  0.78036  1.0000
  H   H2218     1.0  0.53876  0.12875  0.83408  1.0000
  C   C1261     1.0  0.55436  0.10619  0.84034  1.0000
  H   H2219     1.0  0.71206  0.20496  0.80112  1.0000
  H   H2220     1.0  0.70226  0.21647  0.89952  1.0000
  H   H2221     1.0  0.55234  0.08049  0.84202  1.0000
  H   H2222     1.0  0.60814  0.03237  0.53319  1.0000
  H   H2223     1.0  0.72680  0.41571  0.90883  1.0000
  H   H2224     1.0  0.49802  0.43532  0.52768  1.0000
  H   H2225     1.0  0.53761  0.42400  0.61504  1.0000
  C   C1262     1.0  0.60987  0.05395  0.50812  1.0000
  C   C1263     1.0  0.72847  0.21420  0.96188  1.0000
  H   H2226     1.0  0.61732  0.46029  0.59688  1.0000
  C   C1264     1.0  0.58072  0.48679  0.52752  1.0000
  H   H2227     1.0  0.55861  0.13526  0.72043  1.0000
  H   H2228     1.0  0.54156  0.41750  0.56489  1.0000
  C   C1265     1.0  0.50352  0.12542  0.77063  1.0000
  C   C1266     1.0  0.66033  0.44256  0.78647  1.0000
  N   N70       1.0  0.56404  0.43549  0.57263  1.0000
  C   C1267     1.0  0.55839  0.42927  0.51934  1.0000
  C   C1268     1.0  0.56356  0.02410  0.60538  1.0000
  H   H2229     1.0  0.57487  0.44476  0.76730  1.0000
  H   H2230     1.0  0.56711  0.46054  0.57641  1.0000
  H   H2231     1.0  0.57414  0.08245  0.87439  1.0000
  H   H2232     1.0  0.60363  0.01744  0.60021  1.0000
  H   H2233     1.0  0.56435  0.11029  0.82384  1.0000
  H   H2234     1.0  0.54805  0.09275  0.79458  1.0000
  H   H2235     1.0  0.53422  0.20186  0.92750  1.0000
  C   C1269     1.0  0.54034  0.21075  0.94246  1.0000
  H   H2236     1.0  0.58736  0.34987  0.94947  1.0000
  C   C1270     1.0  0.68174  0.23504  0.85834  1.0000
  H   H2237     1.0  0.52193  0.39767  0.59911  1.0000
  H   H2238     1.0  0.63450  0.44400  0.75725  1.0000
  H   H2239     1.0  0.69293  0.23570  0.86862  1.0000
  H   H2240     1.0  0.68257  0.05061  0.75138  1.0000
  H   H2241     1.0  0.54058  0.20444  0.96316  1.0000
  H   H2242     1.0  0.60265  0.40772  0.83714  1.0000
  H   H2243     1.0  0.72583  0.21432  0.93909  1.0000
  H   H2244     1.0  0.72821  0.19107  0.92529  1.0000
  H   H2245     1.0  0.69198  0.03090  0.77754  1.0000
  H   H2246     1.0  0.62148  0.42846  0.73958  1.0000
  C   C1271     1.0  0.56417  0.05873  0.53416  1.0000
  H   H2247     1.0  0.72878  0.18245  0.97745  1.0000
  C   C1272     1.0  0.72138  0.21419  0.87219  1.0000
  H   H2248     1.0  0.57478  0.14952  0.69896  1.0000
  H   H2249     1.0  0.56070  0.13321  0.68283  1.0000
  C   C1273     1.0  0.67784  0.21284  0.98122  1.0000
  H   H2250     1.0  0.53808  0.23214  0.96090  1.0000
  H   H2251     1.0  0.67546  0.07450  0.77746  1.0000
  S   S284      1.0  0.67462  0.15071  0.97350  1.0000
  C   C1274     1.0  0.53903  0.12099  0.81613  1.0000
  H   H2252     1.0  0.65266  0.47194  0.80930  1.0000
  C   C1275     1.0  0.67742  0.34717  0.93497  1.0000
  H   H2253     1.0  0.71669  0.24449  0.91060  1.0000
  H   H2254     1.0  0.50506  0.41871  0.57882  1.0000
  H   H2255     1.0  0.70863  0.15599  0.94108  1.0000
  H   H2256     1.0  0.60521  0.39836  0.78723  1.0000
  H   H2257     1.0  0.56339  0.20880  0.92907  1.0000
  S   S285      1.0  0.49507  0.36278  0.71185  1.0000
  C   C1276     1.0  0.57036  0.38657  0.91742  1.0000
  H   H2258     1.0  0.52848  0.10709  0.86864  1.0000
  H   H2259     1.0  0.51633  0.07579  0.57539  1.0000
  H   H2260     1.0  0.55632  0.41615  0.52154  1.0000
  C   C1277     1.0  0.49286  0.41384  0.57126  1.0000
  C   C1278     1.0  0.50259  0.42551  0.52101  1.0000
  H   H2261     1.0  0.61122  0.44012  0.58551  1.0000
  C   C1279     1.0  0.57720  0.43679  0.75121  1.0000
  H   H2262     1.0  0.52817  0.12054  0.80493  1.0000
  H   H2263     1.0  0.53284  0.10590  0.76582  1.0000
  C   C1280     1.0  0.69568  0.21543  0.98252  1.0000
  C   C1281     1.0  0.55170  0.41923  0.57872  1.0000
  H   H2264     1.0  0.57790  0.40063  0.97002  1.0000
  H   H2265     1.0  0.69581  0.36782  0.94695  1.0000
  H   H2266     1.0  0.67372  0.20913  0.95996  1.0000
  C   C1282     1.0  0.69316  0.21515  0.79228  1.0000
  C   C1283     1.0  0.71291  0.25138  0.82198  1.0000
  H   H2267     1.0  0.70188  0.22576  0.78093  1.0000
  H   H2268     1.0  0.60346  0.41694  0.77333  1.0000
  H   H2269     1.0  0.54864  0.08791  0.87586  1.0000
  N   N71       1.0  0.68356  0.23277  0.82701  1.0000
  H   H2270     1.0  0.70219  0.19872  0.76905  1.0000
  H   H2271     1.0  0.68138  0.33891  0.94905  1.0000
  H   H2272     1.0  0.67921  0.22676  0.91623  1.0000
  H   H2273     1.0  0.58058  0.43343  0.53849  1.0000
  H   H2274     1.0  0.56788  0.48370  0.52870  1.0000
  H   H2275     1.0  0.67287  0.34092  0.91562  1.0000
  C   C1284     1.0  0.56162  0.42463  0.74349  1.0000
  H   H2276     1.0  0.69228  0.19050  0.80308  1.0000
  C   C1285     1.0  0.72245  0.23822  0.89675  1.0000
  H   H2277     1.0  0.49888  0.42112  0.77212  1.0000
  C   C1286     1.0  0.66833  0.22179  0.87562  1.0000
  C   C1287     1.0  0.70033  0.20148  0.79143  1.0000
  H   H2278     1.0  0.71366  0.25267  0.84519  1.0000
  S   S286      1.0  0.64691  0.45148  0.97795  1.0000
  C   C1288     1.0  0.53633  0.09263  0.80441  1.0000
  C   C1289     1.0  0.64281  0.47870  0.77131  1.0000
  H   H2279     1.0  0.71784  0.24172  0.81617  1.0000
  H   H2280     1.0  0.67991  0.24677  0.86193  1.0000
  C   C1290     1.0  0.68111  0.03346  0.78565  1.0000
  H   H2281     1.0  0.69979  0.21944  0.83578  1.0000
  H   H2282     1.0  0.68005  0.20734  0.83240  1.0000
  H   H2283     1.0  0.51128  0.31873  0.97980  1.0000
  H   H2284     1.0  0.59565  0.45567  0.56351  1.0000
  H   H2285     1.0  0.55849  0.02621  0.62625  1.0000
  H   H2286     1.0  0.58907  0.39169  0.88365  1.0000
  H   H2287     1.0  0.65647  0.22060  0.86754  1.0000
  H   H2288     1.0  0.50845  0.05952  0.55245  1.0000
  C   C1291     1.0  0.60739  0.44879  0.59809  1.0000
  C   C1292     1.0  0.52574  0.09877  0.85097  1.0000
  C   C1293     1.0  0.71788  0.18446  0.96945  1.0000
  H   H2289     1.0  0.50635  0.19440  0.93425  1.0000
  H   H2290     1.0  0.52533  0.08683  0.86022  1.0000
  C   C1294     1.0  0.60860  0.41399  0.98125  1.0000
  H   H2291     1.0  0.54061  0.40596  0.82579  1.0000
  H   H2292     1.0  0.58879  0.37668  0.92906  1.0000
  H   H2293     1.0  0.67041  0.21006  0.87475  1.0000
  C   C1295     1.0  0.69637  0.41325  0.96989  1.0000
  C   C1296     1.0  0.73696  0.22201  0.86066  1.0000
  H   H2294     1.0  0.49943  0.40091  0.53805  1.0000
  C   C1297     1.0  0.50304  0.25596  0.93373  1.0000
  H   H2295     1.0  0.49671  0.30366  0.83998  1.0000
  H   H2296     1.0  0.67269  0.02223  0.79592  1.0000
  H   H2297     1.0  0.70781  0.17436  0.97951  1.0000
  H   H2298     1.0  0.67898  0.43759  0.81051  1.0000
  C   C1298     1.0  0.73799  0.24612  0.88502  1.0000
  N   N72       1.0  0.71646  0.20025  0.97834  1.0000
  C   C1299     1.0  0.71906  0.16557  0.93085  1.0000
  H   H2299     1.0  0.50491  0.26202  0.95405  1.0000
  S   S287      1.0  0.49182  0.43327  0.65450  1.0000
  C   C1300     1.0  0.59099  0.99798  0.70431  1.0000
  H   H2300     1.0  0.67526  0.22410  0.98557  1.0000
  H   H2301     1.0  0.50034  0.10293  0.88393  1.0000
  H   H2302     1.0  0.73619  0.45150  0.94318  1.0000
  H   H2303     1.0  0.73031  0.44366  0.84053  1.0000
  S   S288      1.0  0.63080  0.48792  0.72285  1.0000
  C   C1301     1.0  0.61382  0.49471  0.52475  1.0000
  S   S289      1.0  0.61630  0.49438  0.58272  1.0000
  H   H2304     1.0  0.73613  0.26920  0.81418  1.0000
  C   C1302     1.0  0.49178  0.12044  0.79298  1.0000
  C   C1303     1.0  0.60563  0.49287  0.49949  1.0000
  C   C1304     1.0  0.60554  0.49260  0.55148  1.0000
  H   H2305     1.0  0.67680  0.51341  0.19390  1.0000
  S   S290      1.0  0.50855  0.57743  0.35735  1.0000
  H   H2306     1.0  0.58506  0.57577  0.24998  1.0000
  C   C1305     1.0  0.54352  0.57421  0.30740  1.0000
  S   S291      1.0  0.51744  0.57604  0.42529  1.0000
  H   H2307     1.0  0.55556  0.53965  0.32922  1.0000
  Fe  Fe144     1.0  0.52862  0.58954  0.38441  1.0000
  S   S292      1.0  0.55477  0.59406  0.37229  1.0000
  C   C1306     1.0  0.49825  0.62127  0.28749  1.0000
  S   S293      1.0  0.51958  0.61052  0.39151  1.0000
  C   C1307     1.0  0.58074  0.99141  0.38372  1.0000
  H   H2308     1.0  0.54217  0.51401  0.30784  1.0000
  C   C1308     1.0  0.59302  0.56091  0.20450  1.0000
  H   H2309     1.0  0.56010  0.50837  0.31035  1.0000
  H   H2310     1.0  0.49192  0.96905  0.44311  1.0000
  C   C1309     1.0  0.49679  0.87444  0.29238  1.0000
  H   H2311     1.0  0.57566  0.58046  0.29466  1.0000
  Fe  Fe145     1.0  0.59320  0.52181  0.38042  1.0000
  S   S294      1.0  0.59835  0.54875  0.37675  1.0000
  H   H2312     1.0  0.49687  0.50847  0.32667  1.0000
  Fe  Fe146     1.0  0.51022  0.90453  0.44148  1.0000
  S   S295      1.0  0.51796  0.93113  0.43215  1.0000
  C   C1310     1.0  0.55816  0.98713  0.35467  1.0000
  Fe  Fe147     1.0  0.50504  0.89708  0.37739  1.0000
  S   S296      1.0  0.51273  0.92347  0.36357  1.0000
  H   H2313     1.0  0.54533  0.99497  0.41381  1.0000
  Fe  Fe148     1.0  0.53208  0.92676  0.39445  1.0000
  S   S297      1.0  0.55766  0.94322  0.38709  1.0000
  H   H2314     1.0  0.55965  0.60622  0.42694  1.0000
  S   S298      1.0  0.52578  0.90012  0.40565  1.0000
  H   H2315     1.0  0.52481  0.87693  0.32925  1.0000
  H   H2316     1.0  0.60497  0.59629  0.45409  1.0000
  C   C1311     1.0  0.56229  0.96426  0.38018  1.0000
  C   C1312     1.0  0.57613  0.97476  0.39063  1.0000
  C   C1313     1.0  0.51002  0.51878  0.36205  1.0000
  H   H2317     1.0  0.60002  0.55187  0.29041  1.0000
  H   H2318     1.0  0.54463  0.55208  0.29224  1.0000
  C   C1314     1.0  0.55317  0.97060  0.36252  1.0000
  H   H2319     1.0  0.58341  0.96998  0.40396  1.0000
  C   C1315     1.0  0.67275  0.51548  0.32143  1.0000
  H   H2320     1.0  0.50103  0.97165  0.47705  1.0000
  H   H2321     1.0  0.54266  0.96268  0.35390  1.0000
  H   H2322     1.0  0.50880  0.61933  0.29550  1.0000
  H   H2323     1.0  0.54858  0.55178  0.44613  1.0000
  C   C1316     1.0  0.58040  0.60885  0.47069  1.0000
  H   H2324     1.0  0.56766  0.64848  0.40512  1.0000
  H   H2325     1.0  0.61091  0.60816  0.42111  1.0000
  H   H2326     1.0  0.57542  0.63561  0.44670  1.0000
  H   H2327     1.0  0.56884  0.56560  0.32245  1.0000
  H   H2328     1.0  0.57638  0.53270  0.28029  1.0000
  N   N73       1.0  0.57814  0.55754  0.28470  1.0000
  S   S299      1.0  0.60958  0.51093  0.40344  1.0000
  H   H2329     1.0  0.54953  0.55521  0.48351  1.0000
  H   H2330     1.0  0.52477  0.86134  0.29303  1.0000
  C   C1317     1.0  0.50245  0.96863  0.45468  1.0000
  S   S300      1.0  0.50502  0.60678  0.47341  1.0000
  H   H2331     1.0  0.71746  0.50199  0.15496  1.0000
  H   H2332     1.0  0.54070  0.58623  0.47977  1.0000
  H   H2333     1.0  0.52425  0.84314  0.38039  1.0000
  H   H2334     1.0  0.49900  0.68582  0.26308  1.0000
  C   C1318     1.0  0.56920  0.56746  0.29894  1.0000
  C   C1319     1.0  0.67219  0.50155  0.30289  1.0000
  C   C1320     1.0  0.59381  0.56024  0.29824  1.0000
  C   C1321     1.0  0.56308  0.63524  0.40847  1.0000
  C   C1322     1.0  0.56579  0.58048  0.37585  1.0000
  C   C1323     1.0  0.58231  0.58675  0.37090  1.0000
  C   C1324     1.0  0.59188  0.57681  0.37234  1.0000
  C   C1325     1.0  0.58516  0.56030  0.37815  1.0000
  C   C1326     1.0  0.56855  0.55382  0.38345  1.0000
  C   C1327     1.0  0.55886  0.56396  0.38253  1.0000
  H   H2335     1.0  0.58779  0.59945  0.36582  1.0000
  H   H2336     1.0  0.60465  0.58198  0.36844  1.0000
  H   H2337     1.0  0.56323  0.54107  0.38807  1.0000
  H   H2338     1.0  0.54609  0.55903  0.38660  1.0000
  H   H2339     1.0  0.72061  0.50116  0.30219  1.0000
  H   H2340     1.0  0.55847  0.53689  0.27483  1.0000
  H   H2341     1.0  0.49405  0.49977  0.40516  1.0000
  C   C1328     1.0  0.51876  0.53392  0.34355  1.0000
  C   C1329     1.0  0.62158  0.57827  0.30678  1.0000
  H   H2342     1.0  0.58341  0.60000  0.48512  1.0000
  H   H2343     1.0  0.50130  0.68223  0.20289  1.0000
  C   C1330     1.0  0.49155  0.65708  0.33752  1.0000
  H   H2344     1.0  0.58948  0.61995  0.42798  1.0000
  C   C1331     1.0  0.58060  0.56248  0.25339  1.0000
  H   H2345     1.0  0.55044  0.58717  0.30613  1.0000
  C   C1332     1.0  0.55306  0.51557  0.31975  1.0000
  H   H2346     1.0  0.67904  0.52710  0.30967  1.0000
  H   H2347     1.0  0.52184  0.86226  0.38726  1.0000
  H   H2348     1.0  0.50792  0.52270  0.38351  1.0000
  H   H2349     1.0  0.57079  0.63006  0.39541  1.0000
  H   H2350     1.0  0.58674  0.62071  0.47887  1.0000
  H   H2351     1.0  0.66038  0.51522  0.32753  1.0000
  H   H2352     1.0  0.49974  0.96378  0.32643  1.0000
  H   H2353     1.0  0.49859  0.87387  0.24653  1.0000
  H   H2354     1.0  0.69620  0.51313  0.28383  1.0000
  H   H2355     1.0  0.50718  0.73129  0.30793  1.0000
  H   H2356     1.0  0.61998  0.57371  0.32941  1.0000
  H   H2357     1.0  0.67883  0.51448  0.34121  1.0000
  H   H2358     1.0  0.52786  0.97846  0.45133  1.0000
  S   S301      1.0  0.59250  0.50709  0.34225  1.0000
  H   H2359     1.0  0.55222  0.56901  0.26708  1.0000
  H   H2360     1.0  0.53000  0.54043  0.35321  1.0000
  C   C1333     1.0  0.49415  0.70830  0.29236  1.0000
  S   S302      1.0  0.49410  0.87446  0.35214  1.0000
  H   H2361     1.0  0.59172  0.55720  0.32138  1.0000
  H   H2362     1.0  0.61282  0.61794  0.45421  1.0000
  C   C1334     1.0  0.49480  0.72289  0.30926  1.0000
  H   H2363     1.0  0.53971  0.84870  0.26093  1.0000
  Fe  Fe149     1.0  0.49846  0.59730  0.36717  1.0000
  H   H2364     1.0  0.51131  0.54198  0.34215  1.0000
  C   C1335     1.0  0.52299  0.85426  0.37027  1.0000
  C   C1336     1.0  0.56307  0.53319  0.31913  1.0000
  H   H2365     1.0  0.50186  0.67359  0.30218  1.0000
  S   S303      1.0  0.50538  0.89164  0.48578  1.0000
  N   N74       1.0  0.54962  0.88727  0.31492  1.0000
  C   C1337     1.0  0.56549  0.89161  0.32822  1.0000
  C   C1338     1.0  0.53678  0.87876  0.33743  1.0000
  C   C1339     1.0  0.55001  0.87672  0.29068  1.0000
  C   C1340     1.0  0.54609  0.90198  0.30340  1.0000
  C   C1341     1.0  0.54797  0.91561  0.32410  1.0000
  C   C1342     1.0  0.58001  0.90202  0.30894  1.0000
  C   C1343     1.0  0.53385  0.86911  0.27723  1.0000
  C   C1344     1.0  0.53749  0.86244  0.35000  1.0000
  H   H2366     1.0  0.50260  0.70267  0.30117  1.0000
  C   C1345     1.0  0.54447  0.92991  0.30967  1.0000
  C   C1346     1.0  0.59510  0.90680  0.32547  1.0000
  H   H2367     1.0  0.60126  0.55587  0.19254  1.0000
  H   H2368     1.0  0.56834  0.88059  0.33486  1.0000
  H   H2369     1.0  0.56498  0.89774  0.34827  1.0000
  S   S304      1.0  0.57082  0.50529  0.40210  1.0000
  H   H2370     1.0  0.62958  0.59086  0.30546  1.0000
  H   H2371     1.0  0.55480  0.86694  0.29732  1.0000
  H   H2372     1.0  0.55845  0.88368  0.27308  1.0000
  H   H2373     1.0  0.55361  0.90714  0.28362  1.0000
  H   H2374     1.0  0.53360  0.89871  0.29682  1.0000
  H   H2375     1.0  0.56022  0.92006  0.33147  1.0000
  H   H2376     1.0  0.53959  0.91144  0.34304  1.0000
  H   H2377     1.0  0.58222  0.89526  0.29073  1.0000
  H   H2378     1.0  0.57820  0.91321  0.30044  1.0000
  H   H2379     1.0  0.52926  0.87854  0.26829  1.0000
  C   C1347     1.0  0.49965  0.69375  0.20862  1.0000
  H   H2380     1.0  0.53767  0.85407  0.33321  1.0000
  H   H2381     1.0  0.54826  0.86419  0.36227  1.0000
  H   H2382     1.0  0.52383  0.85350  0.24385  1.0000
  H   H2383     1.0  0.51031  0.63363  0.24827  1.0000
  C   C1348     1.0  0.49907  0.62942  0.26069  1.0000
  H   H2384     1.0  0.54586  0.93946  0.32492  1.0000
  H   H2385     1.0  0.55293  0.93490  0.29100  1.0000
  H   H2386     1.0  0.53206  0.92636  0.30276  1.0000
  H   H2387     1.0  0.59369  0.91414  0.34339  1.0000
  H   H2388     1.0  0.59776  0.89601  0.33396  1.0000
  H   H2389     1.0  0.60536  0.91404  0.31119  1.0000
  H   H2390     1.0  0.59768  0.57418  0.20156  1.0000
  Fe  Fe150     1.0  0.50698  0.59588  0.43100  1.0000
  C   C1349     1.0  0.55678  0.61194  0.44596  1.0000
  H   H2391     1.0  0.56900  0.55878  0.24321  1.0000
  H   H2392     1.0  0.62737  0.57099  0.29428  1.0000
  H   H2393     1.0  0.57330  0.53404  0.33243  1.0000
  H   H2394     1.0  0.50292  0.65987  0.34832  1.0000
  C   C1350     1.0  0.56893  0.53990  0.28823  1.0000
  C   C1351     1.0  0.55373  0.58814  0.47769  1.0000
  H   H2395     1.0  0.51195  0.85096  0.35845  1.0000
  H   H2396     1.0  0.60785  0.58221  0.27259  1.0000
  C   C1352     1.0  0.55199  0.56484  0.28968  1.0000
  H   H2397     1.0  0.58180  0.59873  0.42839  1.0000
  H   H2398     1.0  0.54191  0.56962  0.32998  1.0000
  C   C1353     1.0  0.55665  0.57687  0.45531  1.0000
  C   C1354     1.0  0.51773  0.98012  0.43997  1.0000
  H   H2399     1.0  0.54350  0.60841  0.44727  1.0000
  H   H2400     1.0  0.51799  0.51126  0.36358  1.0000
  H   H2401     1.0  0.53156  0.57281  0.29944  1.0000
  H   H2402     1.0  0.68470  0.51364  0.24341  1.0000
  C   C1355     1.0  0.49124  0.86562  0.31827  1.0000
  H   H2403     1.0  0.58765  0.54228  0.23765  1.0000
  H   H2404     1.0  0.60420  0.55970  0.24345  1.0000
  H   H2405     1.0  0.54414  0.86594  0.23586  1.0000
  C   C1356     1.0  0.59195  0.55555  0.23598  1.0000
  C   C1357     1.0  0.49425  0.86685  0.26630  1.0000
  H   H2406     1.0  0.55366  0.58028  0.43395  1.0000
  H   H2407     1.0  0.58113  0.55658  0.19551  1.0000
  C   C1358     1.0  0.53559  0.85870  0.25301  1.0000
  H   H2408     1.0  0.53717  0.88635  0.35575  1.0000
  C   C1359     1.0  0.60555  0.57756  0.29509  1.0000
  H   H2409     1.0  0.55145  0.99177  0.33991  1.0000
  C   C1360     1.0  0.58851  0.60877  0.44073  1.0000
  H   H2410     1.0  0.60073  0.58571  0.30727  1.0000
  C   C1361     1.0  0.54642  0.55953  0.46279  1.0000
  H   H2411     1.0  0.59883  0.53878  0.48195  1.0000
  C   C1362     1.0  0.49162  0.67137  0.31789  1.0000
  H   H2412     1.0  0.50398  0.77500  0.12868  1.0000
  Fe  Fe151     1.0  0.49826  0.92610  0.40233  1.0000
  H   H2413     1.0  0.55082  0.63106  0.40114  1.0000
  H   H2414     1.0  0.52172  0.53087  0.32186  1.0000
  H   H2415     1.0  0.54936  0.51098  0.34212  1.0000
  H   H2416     1.0  0.66096  0.50064  0.21753  1.0000
  N   N75       1.0  0.56257  0.60579  0.47237  1.0000
  C   C1363     1.0  0.68922  0.50126  0.29414  1.0000
  H   H2417     1.0  0.50298  0.95620  0.45471  1.0000
  H   H2418     1.0  0.51054  0.70124  0.21816  1.0000
  H   H2419     1.0  0.56923  0.57701  0.45470  1.0000
  C   C1364     1.0  0.56311  0.63041  0.43995  1.0000
  H   H2420     1.0  0.50294  0.88715  0.29240  1.0000
  H   H2421     1.0  0.51874  0.97627  0.41819  1.0000
  H   H2422     1.0  0.56308  0.98662  0.44440  1.0000
  H   H2423     1.0  0.49347  0.68176  0.33130  1.0000
  C   C1365     1.0  0.60534  0.60774  0.44282  1.0000
  H   H2424     1.0  0.53356  0.55842  0.46390  1.0000
  H   H2425     1.0  0.49160  0.95821  0.29233  1.0000
  H   H2426     1.0  0.74027  0.50078  0.26258  1.0000
  H   H2427     1.0  0.51798  0.99141  0.33227  1.0000
  H   H2428     1.0  0.55539  0.63599  0.45211  1.0000
  C   C1366     1.0  0.68488  0.50334  0.23090  1.0000
  H   H2429     1.0  0.69690  0.50595  0.22014  1.0000
  H   H2430     1.0  0.53091  0.99110  0.37710  1.0000
  H   H2431     1.0  0.66551  0.50286  0.28407  1.0000
  H   H2432     1.0  0.71226  0.50235  0.25418  1.0000
  Fe  Fe152     1.0  0.49657  0.56569  0.39910  1.0000
  C   C1367     1.0  0.49401  0.50950  0.34956  1.0000
  H   H2433     1.0  0.69512  0.50049  0.31429  1.0000
  H   H2434     1.0  0.51027  0.98960  0.38355  1.0000
  H   H2435     1.0  0.49861  0.71279  0.27026  1.0000
  H   H2436     1.0  0.49790  0.70017  0.18887  1.0000
  C   C1368     1.0  0.67306  0.50223  0.20781  1.0000
  C   C1369     1.0  0.49154  0.77534  0.12909  1.0000
  H   H2437     1.0  0.49111  0.71923  0.33199  1.0000
  C   C1370     1.0  0.58867  0.54115  0.52369  1.0000
  H   H2438     1.0  0.52067  0.62522  0.79091  1.0000
  S   S305      1.0  0.52821  0.58906  0.59225  1.0000
  C   C1371     1.0  0.58251  0.96609  0.58680  1.0000
  H   H2439     1.0  0.53443  0.58902  0.75947  1.0000
  C   C1372     1.0  0.57633  0.53094  0.54705  1.0000
  Fe  Fe153     1.0  0.51050  0.56100  0.68546  1.0000
  S   S306      1.0  0.51459  0.53789  0.70034  1.0000
  H   H2440     1.0  0.60005  0.55389  0.57735  1.0000
  S   S307      1.0  0.52895  0.58496  0.67670  1.0000
  C   C1373     1.0  0.50944  0.60022  0.50724  1.0000
  H   H2441     1.0  0.59671  0.52218  0.50696  1.0000
  S   S308      1.0  0.61336  0.50853  0.66094  1.0000
  H   H2442     1.0  0.57957  0.99352  0.60023  1.0000
  H   H2443     1.0  0.62192  0.52752  0.60444  1.0000
  S   S309      1.0  0.49887  0.56216  0.64479  1.0000
  C   C1374     1.0  0.60040  0.99449  0.62305  1.0000
  H   H2444     1.0  0.50144  0.63324  0.82230  1.0000
  H   H2445     1.0  0.52255  0.97155  0.71727  1.0000
  H   H2446     1.0  0.51708  0.81893  0.75521  1.0000
  H   H2447     1.0  0.57936  0.52454  0.49066  1.0000
  Fe  Fe154     1.0  0.52569  0.91432  0.64741  1.0000
  S   S310      1.0  0.52490  0.93741  0.66484  1.0000
  S   S311      1.0  0.53548  0.91876  0.60115  1.0000
  Fe  Fe155     1.0  0.51285  0.89526  0.70588  1.0000
  C   C1375     1.0  0.57639  0.94874  0.57730  1.0000
  S   S312      1.0  0.50208  0.86964  0.72695  1.0000
  H   H2448     1.0  0.55445  0.96642  0.64026  1.0000
  Fe  Fe156     1.0  0.53535  0.93014  0.70323  1.0000
  S   S313      1.0  0.55607  0.94706  0.72449  1.0000
  H   H2449     1.0  0.56454  0.53124  0.61709  1.0000
  S   S314      1.0  0.53762  0.90755  0.68520  1.0000
  H   H2450     1.0  0.52266  0.57212  0.54074  1.0000
  C   C1376     1.0  0.56906  0.96667  0.71468  1.0000
  C   C1377     1.0  0.58471  0.97038  0.72303  1.0000
  H   H2451     1.0  0.53281  0.79748  0.80085  1.0000
  C   C1378     1.0  0.55148  0.52874  0.76857  1.0000
  C   C1379     1.0  0.53197  0.96458  0.60090  1.0000
  C   C1380     1.0  0.55812  0.61429  0.49704  1.0000
  H   H2452     1.0  0.58847  0.96127  0.73403  1.0000
  H   H2453     1.0  0.49976  0.53512  0.60488  1.0000
  H   H2454     1.0  0.50087  0.69506  0.96991  1.0000
  C   C1381     1.0  0.51539  0.80374  0.84363  1.0000
  C   C1382     1.0  0.52590  0.91155  0.56982  1.0000
  C   C1383     1.0  0.51506  0.89613  0.56931  1.0000
  C   C1384     1.0  0.50890  0.89027  0.54342  1.0000
  H   H2455     1.0  0.50973  0.95942  0.69273  1.0000
  H   H2456     1.0  0.57486  0.61287  0.69089  1.0000
  H   H2457     1.0  0.51199  0.88852  0.58865  1.0000
  H   H2458     1.0  0.57885  0.51944  0.55050  1.0000
  H   H2459     1.0  0.57993  0.97409  0.57010  1.0000
  H   H2460     1.0  0.56951  0.63227  0.54467  1.0000
  H   H2461     1.0  0.52755  0.92273  0.49889  1.0000
  H   H2462     1.0  0.50871  0.88320  0.78317  1.0000
  H   H2463     1.0  0.57475  0.92379  0.67649  1.0000
  C   C1385     1.0  0.51475  0.97180  0.69954  1.0000
  C   C1386     1.0  0.55840  0.96384  0.61872  1.0000
  H   H2464     1.0  0.56444  0.52759  0.53780  1.0000
  H   H2465     1.0  0.56197  0.94359  0.66177  1.0000
  N   N76       1.0  0.57561  0.53877  0.57472  1.0000
  C   C1387     1.0  0.56880  0.56315  0.59423  1.0000
  C   C1388     1.0  0.54721  0.50091  0.61866  1.0000
  H   H2466     1.0  0.59256  0.52029  0.60686  1.0000
  C   C1389     1.0  0.56230  0.52810  0.59474  1.0000
  H   H2467     1.0  0.55321  0.95070  0.61769  1.0000
  H   H2468     1.0  0.53330  0.76929  0.79154  1.0000
  H   H2469     1.0  0.50098  0.87812  0.54306  1.0000
  C   C1390     1.0  0.61607  0.53696  0.60310  1.0000
  H   H2470     1.0  0.51619  0.69223  0.92685  1.0000
  H   H2471     1.0  0.49964  0.77125  0.80485  1.0000
  C   C1391     1.0  0.50850  0.62286  0.78506  1.0000
  H   H2472     1.0  0.52213  0.97955  0.68158  1.0000
  C   C1392     1.0  0.50333  0.69087  0.92586  1.0000
  H   H2473     1.0  0.49730  0.81267  0.86384  1.0000
  H   H2474     1.0  0.55280  0.59697  0.53399  1.0000
  C   C1393     1.0  0.53283  0.53479  0.69044  1.0000
  C   C1394     1.0  0.53507  0.52006  0.69784  1.0000
  C   C1395     1.0  0.54979  0.51758  0.69149  1.0000
  C   C1396     1.0  0.56239  0.52993  0.67794  1.0000
  C   C1397     1.0  0.56011  0.54462  0.67049  1.0000
  C   C1398     1.0  0.54533  0.54697  0.67630  1.0000
  H   H2475     1.0  0.52543  0.51056  0.70874  1.0000
  H   H2476     1.0  0.55145  0.50622  0.69734  1.0000
  H   H2477     1.0  0.56983  0.55423  0.66008  1.0000
  H   H2478     1.0  0.54368  0.55827  0.67013  1.0000
  C   C1399     1.0  0.51891  0.59222  0.56100  1.0000
  C   C1400     1.0  0.55857  0.50975  0.59361  1.0000
  H   H2479     1.0  0.51888  0.79461  0.77439  1.0000
  S   S315      1.0  0.51160  0.91741  0.72654  1.0000
  H   H2480     1.0  0.59307  0.93498  0.65687  1.0000
  C   C1401     1.0  0.50781  0.57739  0.79011  1.0000
  C   C1402     1.0  0.52021  0.76557  0.78945  1.0000
  H   H2481     1.0  0.51774  0.76673  0.76670  1.0000
  H   H2482     1.0  0.50589  0.62042  0.52747  1.0000
  C   C1403     1.0  0.59095  0.53100  0.49937  1.0000
  H   H2483     1.0  0.55389  0.57500  0.57259  1.0000
  H   H2484     1.0  0.62376  0.54698  0.58876  1.0000
  H   H2485     1.0  0.58988  0.54691  0.61068  1.0000
  C   C1404     1.0  0.57175  0.55404  0.56809  1.0000
  H   H2486     1.0  0.58367  0.96774  0.65881  1.0000
  H   H2487     1.0  0.51507  0.75277  0.79696  1.0000
  H   H2488     1.0  0.52185  0.84792  0.76306  1.0000
  C   C1405     1.0  0.51577  0.81457  0.89268  1.0000
  S   S316      1.0  0.50045  0.59918  0.65822  1.0000
  H   H2489     1.0  0.59520  0.96130  0.63315  1.0000
  C   C1406     1.0  0.53032  0.92108  0.54424  1.0000
  H   H2490     1.0  0.55077  0.53019  0.59064  1.0000
  H   H2491     1.0  0.57085  0.60195  0.74074  1.0000
  H   H2492     1.0  0.57483  0.58664  0.57170  1.0000
  H   H2493     1.0  0.52794  0.95144  0.59857  1.0000
  H   H2494     1.0  0.56176  0.61569  0.57067  1.0000
  H   H2495     1.0  0.58597  0.94321  0.68738  1.0000
  C   C1407     1.0  0.51367  0.58629  0.51141  1.0000
  H   H2496     1.0  0.56909  0.93571  0.63159  1.0000
  H   H2497     1.0  0.51049  0.80222  0.90247  1.0000
  C   C1408     1.0  0.50136  0.97819  0.70956  1.0000
  H   H2498     1.0  0.59466  0.95227  0.54280  1.0000
  H   H2499     1.0  0.55222  0.60059  0.72484  1.0000
  H   H2500     1.0  0.54852  0.52711  0.79186  1.0000
  H   H2501     1.0  0.58158  0.56272  0.55467  1.0000
  C   C1409     1.0  0.58228  0.98697  0.61903  1.0000
  H   H2502     1.0  0.56750  0.61218  0.82541  1.0000
  H   H2503     1.0  0.56097  0.55148  0.55543  1.0000
  H   H2504     1.0  0.60765  0.98820  0.72404  1.0000
  H   H2505     1.0  0.53890  0.93292  0.54429  1.0000
  C   C1410     1.0  0.50923  0.60966  0.53042  1.0000
  C   C1411     1.0  0.52394  0.91532  0.51843  1.0000
  C   C1412     1.0  0.58280  0.96100  0.63917  1.0000
  H   H2506     1.0  0.54093  0.52194  0.75733  1.0000
  C   C1413     1.0  0.51388  0.60567  0.55716  1.0000
  C   C1414     1.0  0.59957  0.53010  0.59160  1.0000
  H   H2507     1.0  0.49889  0.57126  0.80757  1.0000
  C   C1415     1.0  0.51044  0.81562  0.86247  1.0000
  H   H2508     1.0  0.59572  0.96934  0.58573  1.0000
  C   C1416     1.0  0.58233  0.93598  0.66866  1.0000
  H   H2509     1.0  0.52897  0.81805  0.89260  1.0000
  C   C1417     1.0  0.57291  0.94356  0.64932  1.0000
  C   C1418     1.0  0.58147  0.94789  0.54617  1.0000
  C   C1419     1.0  0.51977  0.79375  0.79772  1.0000
  H   H2510     1.0  0.58153  0.94091  0.59005  1.0000
  C   C1420     1.0  0.51865  0.58246  0.53805  1.0000
  C   C1421     1.0  0.59559  0.98573  0.71747  1.0000
  S   S317      1.0  0.51815  0.61074  0.73674  1.0000
  H   H2511     1.0  0.49468  0.97035  0.72788  1.0000
  H   H2512     1.0  0.57955  0.56695  0.60672  1.0000
  H   H2513     1.0  0.56792  0.59233  0.83539  1.0000
  C   C1422     1.0  0.51965  0.56817  0.78532  1.0000
  H   H2514     1.0  0.52630  0.97020  0.58475  1.0000
  H   H2515     1.0  0.51174  0.82289  0.90587  1.0000
  H   H2516     1.0  0.57373  0.60764  0.52735  1.0000
  N   N77       1.0  0.57638  0.96910  0.61572  1.0000
  H   H2517     1.0  0.53596  0.50399  0.61890  1.0000
  Fe  Fe157     1.0  0.51621  0.58671  0.63675  1.0000
  H   H2518     1.0  0.57588  0.99010  0.63763  1.0000
  H   H2519     1.0  0.62667  0.49766  0.52356  1.0000
  C   C1423     1.0  0.56476  0.57818  0.58488  1.0000
  H   H2520     1.0  0.58096  0.60406  0.80620  1.0000
  H   H2521     1.0  0.56133  0.52377  0.76363  1.0000
  H   H2522     1.0  0.56324  0.94392  0.57920  1.0000
  H   H2523     1.0  0.60049  0.54661  0.53226  1.0000
  H   H2524     1.0  0.56451  0.62737  0.49437  1.0000
  C   C1424     1.0  0.55010  0.97142  0.59643  1.0000
  H   H2525     1.0  0.51278  0.55572  0.78061  1.0000
  H   H2526     1.0  0.56238  0.58429  0.60390  1.0000
  H   H2527     1.0  0.61507  0.54123  0.62472  1.0000
  C   C1425     1.0  0.59133  0.54318  0.58872  1.0000
  C   C1426     1.0  0.53187  0.84295  0.76049  1.0000
  H   H2528     1.0  0.51432  0.61346  0.57445  1.0000
  H   H2529     1.0  0.60134  0.52519  0.57093  1.0000
  H   H2530     1.0  0.50144  0.57805  0.77058  1.0000
  H   H2531     1.0  0.55869  0.55561  0.60850  1.0000
  N   N78       1.0  0.54728  0.57165  0.76048  1.0000
  C   C1427     1.0  0.53202  0.57588  0.76021  1.0000
  C   C1428     1.0  0.55667  0.57745  0.73246  1.0000
  C   C1429     1.0  0.54276  0.55357  0.76265  1.0000
  C   C1430     1.0  0.55723  0.57825  0.78512  1.0000
  C   C1431     1.0  0.55603  0.59420  0.79643  1.0000
  H   H2532     1.0  0.58231  0.59615  0.69593  1.0000
  C   C1432     1.0  0.55669  0.54649  0.75887  1.0000
  C   C1433     1.0  0.51268  0.77570  0.80728  1.0000
  H   H2533     1.0  0.51569  0.82823  0.85412  1.0000
  C   C1434     1.0  0.56892  0.60105  0.81712  1.0000
  H   H2534     1.0  0.51409  0.58975  0.79606  1.0000
  H   H2535     1.0  0.49173  0.81093  0.76848  1.0000
  H   H2536     1.0  0.55272  0.50565  0.57370  1.0000
  C   C1435     1.0  0.56236  0.59573  0.72520  1.0000
  H   H2537     1.0  0.56771  0.57397  0.73152  1.0000
  H   H2538     1.0  0.54955  0.57154  0.71480  1.0000
  H   H2539     1.0  0.53409  0.54832  0.74655  1.0000
  H   H2540     1.0  0.53649  0.54869  0.78362  1.0000
  H   H2541     1.0  0.55409  0.56949  0.80388  1.0000
  H   H2542     1.0  0.57003  0.57988  0.77954  1.0000
  H   H2543     1.0  0.54433  0.59217  0.80805  1.0000
  H   H2544     1.0  0.55715  0.60349  0.77925  1.0000
  H   H2545     1.0  0.55293  0.50406  0.63899  1.0000
  H   H2546     1.0  0.52552  0.56757  0.80545  1.0000
  H   H2547     1.0  0.56694  0.55287  0.77117  1.0000
  H   H2548     1.0  0.56077  0.54742  0.73605  1.0000
  C   C1436     1.0  0.51332  0.89979  0.51783  1.0000
  H   H2549     1.0  0.50709  0.99033  0.71710  1.0000
  H   H2550     1.0  0.57625  0.95513  0.53210  1.0000
  H   H2551     1.0  0.57709  0.93526  0.54013  1.0000
  C   C1437     1.0  0.49824  0.70000  0.94933  1.0000
  H   H2552     1.0  0.51346  0.57871  0.49392  1.0000
  H   H2553     1.0  0.52591  0.57212  0.74029  1.0000
  Fe  Fe158     1.0  0.50150  0.92284  0.68603  1.0000
  H   H2554     1.0  0.56944  0.50620  0.59408  1.0000
  H   H2555     1.0  0.50133  0.69557  0.90460  1.0000
  H   H2556     1.0  0.52795  0.96706  0.62236  1.0000
  C   C1438     1.0  0.57135  0.59976  0.69600  1.0000
  H   H2557     1.0  0.51244  0.82944  0.80540  1.0000
  C   C1439     1.0  0.50154  0.87075  0.78648  1.0000
  H   H2558     1.0  0.50152  0.87081  0.83235  1.0000
  C   C1440     1.0  0.56159  0.60873  0.52705  1.0000
  H   H2559     1.0  0.52827  0.80548  0.84634  1.0000
  H   H2560     1.0  0.49542  0.92923  0.59781  1.0000
  C   C1441     1.0  0.52638  0.82508  0.76942  1.0000
  H   H2561     1.0  0.58450  0.55085  0.51449  1.0000
  Fe  Fe159     1.0  0.51124  0.59486  0.69927  1.0000
  H   H2562     1.0  0.49368  0.92924  0.50083  1.0000
  H   H2563     1.0  0.53676  0.82071  0.76575  1.0000
  S   S318      1.0  0.49370  0.57061  0.71049  1.0000
  C   C1442     1.0  0.56434  0.97875  0.70069  1.0000
  H   H2564     1.0  0.56377  0.59357  0.67917  1.0000
  S   S319      1.0  0.58118  0.52769  0.66952  1.0000
  H   H2565     1.0  0.53128  0.82768  0.81302  1.0000
  H   H2566     1.0  0.54171  0.84963  0.77343  1.0000
  C   C1443     1.0  0.56021  0.62047  0.54919  1.0000
  S   S320      1.0  0.50140  0.90023  0.66591  1.0000
  H   H2567     1.0  0.50875  0.79162  0.85342  1.0000
  C   C1444     1.0  0.52044  0.82209  0.80126  1.0000
  H   H2568     1.0  0.55221  0.97610  0.69450  1.0000
  Fe  Fe160     1.0  0.58724  0.50440  0.67108  1.0000
  H   H2569     1.0  0.54827  0.62213  0.54938  1.0000
  N   N79       1.0  0.51243  0.80489  0.81240  1.0000
  H   H2570     1.0  0.60350  0.99057  0.64409  1.0000
  H   H2571     1.0  0.53621  0.84480  0.73775  1.0000
  C   C1445     1.0  0.49742  0.86366  0.81444  1.0000
  C   C1446     1.0  0.50385  0.61557  0.75944  1.0000
  C   C1447     1.0  0.49675  0.86163  0.76295  1.0000
  H   H2572     1.0  0.51494  0.77348  0.82978  1.0000
  H   H2573     1.0  0.49428  0.79142  0.76624  1.0000
  H   H2574     1.0  0.49834  0.98825  0.66921  1.0000
  C   C1448     1.0  0.49761  0.62741  0.80295  1.0000
  H   H2575     1.0  0.55338  0.96893  0.57455  1.0000
  C   C1449     1.0  0.49466  0.80014  0.80969  1.0000
  H   H2576     1.0  0.55336  0.98455  0.59813  1.0000
  H   H2577     1.0  0.49543  0.72936  0.97148  1.0000
  H   H2578     1.0  0.60777  0.99114  0.60639  1.0000
  H   H2579     1.0  0.50586  0.71266  0.94611  1.0000
  H   H2580     1.0  0.49494  0.86821  0.63283  1.0000
  H   H2581     1.0  0.54516  0.61309  0.49747  1.0000
  H   H2582     1.0  0.49653  0.67793  0.92865  1.0000
  H   H2583     1.0  0.55690  0.58350  0.49808  1.0000
  H   H2584     1.0  0.49554  0.75790  0.93925  1.0000
  H   H2585     1.0  0.49694  0.75782  0.97748  1.0000
  C   C1450     1.0  0.57526  0.99449  0.69587  1.0000
  C   C1451     1.0  0.85342  0.39579  0.34740  1.0000
  S   S321      1.0  0.92927  0.46835  0.42578  1.0000
  C   C1452     1.0  0.91713  0.46352  0.34093  1.0000
  Fe  Fe161     1.0  0.88220  0.38626  0.41428  1.0000
  S   S322      1.0  0.88967  0.38233  0.37009  1.0000
  S   S323      1.0  0.87118  0.40557  0.42189  1.0000
  Fe  Fe162     1.0  0.89364  0.36031  0.44156  1.0000
  S   S324      1.0  0.90191  0.35402  0.39871  1.0000
  H   H2586     1.0  0.75523  0.36601  0.17198  1.0000
  Fe  Fe163     1.0  0.91213  0.38084  0.38964  1.0000
  S   S325      1.0  0.93540  0.39749  0.36809  1.0000
  Fe  Fe164     1.0  0.87875  0.35612  0.38247  1.0000
  S   S326      1.0  0.85831  0.33891  0.35935  1.0000
  S   S327      1.0  0.90511  0.38664  0.43311  1.0000
  S   S328      1.0  0.86996  0.36035  0.42628  1.0000
  Fe  Fe165     1.0  0.81190  0.31095  0.21035  1.0000
  S   S329      1.0  0.78754  0.31315  0.22083  1.0000
  S   S330      1.0  0.83466  0.31809  0.23568  1.0000
  Fe  Fe166     1.0  0.80406  0.30430  0.14765  1.0000
  S   S331      1.0  0.77973  0.30662  0.15391  1.0000
  S   S332      1.0  0.81402  0.29852  0.10551  1.0000
  Fe  Fe167     1.0  0.79132  0.32763  0.17931  1.0000
  S   S333      1.0  0.78363  0.34981  0.17637  1.0000
  Fe  Fe168     1.0  0.77755  0.29159  0.19457  1.0000
  S   S334      1.0  0.75189  0.27461  0.20256  1.0000
  S   S335      1.0  0.81595  0.32664  0.16982  1.0000
  S   S336      1.0  0.80168  0.28815  0.18718  1.0000
  Fe  Fe169     1.0  0.82603  0.46540  0.21230  1.0000
  S   S337      1.0  0.81167  0.43915  0.21546  1.0000
  S   S338      1.0  0.83569  0.47563  0.25505  1.0000
  Fe  Fe170     1.0  0.81972  0.46755  0.14777  1.0000
  S   S339      1.0  0.80569  0.44166  0.14752  1.0000
  S   S340      1.0  0.82287  0.48363  0.10706  1.0000
  Fe  Fe171     1.0  0.79373  0.44533  0.18859  1.0000
  S   S341      1.0  0.76721  0.43080  0.19401  1.0000
  Fe  Fe172     1.0  0.82458  0.43777  0.17428  1.0000
  S   S342      1.0  0.83548  0.41832  0.16554  1.0000
  S   S343      1.0  0.80687  0.47175  0.18793  1.0000
  S   S344      1.0  0.83985  0.46355  0.17191  1.0000
  H   H2587     1.0  0.83546  0.43313  0.10692  1.0000
  C   C1453     1.0  0.95720  0.45681  0.37186  1.0000
  C   C1454     1.0  0.82562  0.48087  0.07015  1.0000
  C   C1455     1.0  0.81775  0.46682  0.05671  1.0000
  C   C1456     1.0  0.81998  0.46610  0.02675  1.0000
  C   C1457     1.0  0.98434  0.36566  0.45652  1.0000
  H   H2588     1.0  0.80972  0.45673  0.06924  1.0000
  H   H2589     1.0  0.89435  0.49283  0.26650  1.0000
  C   C1458     1.0  0.85323  0.43971  0.26257  1.0000
  H   H2590     1.0  0.92083  0.45497  0.32783  1.0000
  H   H2591     1.0  0.82345  0.43643  0.08021  1.0000
  C   C1459     1.0  0.79841  0.36864  0.17285  1.0000
  C   C1460     1.0  0.81425  0.37041  0.16441  1.0000
  C   C1461     1.0  0.82563  0.38574  0.16174  1.0000
  C   C1462     1.0  0.82121  0.39925  0.16792  1.0000
  C   C1463     1.0  0.80537  0.39747  0.17601  1.0000
  C   C1464     1.0  0.79404  0.38222  0.17834  1.0000
  H   H2592     1.0  0.81766  0.36003  0.15954  1.0000
  H   H2593     1.0  0.83782  0.38714  0.15482  1.0000
  H   H2594     1.0  0.80183  0.40785  0.18057  1.0000
  H   H2595     1.0  0.78189  0.38094  0.18463  1.0000
  C   C1465     1.0  0.80645  0.30084  0.07198  1.0000
  C   C1466     1.0  0.79325  0.30618  0.06934  1.0000
  C   C1467     1.0  0.78744  0.30766  0.04241  1.0000
  C   C1468     1.0  0.79495  0.30419  0.01773  1.0000
  C   C1469     1.0  0.80812  0.29881  0.02033  1.0000
  C   C1470     1.0  0.81379  0.29708  0.04738  1.0000
  H   H2596     1.0  0.78755  0.30916  0.08806  1.0000
  H   H2597     1.0  0.77708  0.31158  0.04064  1.0000
  N   N80       1.0  0.84713  0.43791  0.06422  1.0000
  H   H2598     1.0  0.82400  0.29290  0.04924  1.0000
  C   C1471     1.0  0.77363  0.40965  0.25886  1.0000
  H   H2599     1.0  0.75126  0.26271  0.04220  1.0000
  H   H2600     1.0  0.76713  0.23784  0.11848  1.0000
  H   H2601     1.0  0.82083  0.35572  0.02191  1.0000
  C   C1472     1.0  0.75002  0.36099  0.22923  1.0000
  H   H2602     1.0  0.87679  0.43722  0.29447  1.0000
  H   H2603     1.0  0.76183  0.24561  0.20094  1.0000
  C   C1473     1.0  0.87002  0.44413  0.30569  1.0000
  C   C1474     1.0  0.79296  0.25217  0.14656  1.0000
  H   H2604     1.0  0.86070  0.45158  0.25305  1.0000
  C   C1475     1.0  0.85197  0.33394  0.32448  1.0000
  C   C1476     1.0  0.86257  0.33724  0.30043  1.0000
  C   C1477     1.0  0.85706  0.33210  0.27366  1.0000
  C   C1478     1.0  0.84084  0.32392  0.27028  1.0000
  C   C1479     1.0  0.83025  0.32061  0.29431  1.0000
  C   C1480     1.0  0.83581  0.32549  0.32119  1.0000
  H   H2605     1.0  0.87506  0.34356  0.30248  1.0000
  H   H2606     1.0  0.86542  0.33459  0.25533  1.0000
  H   H2607     1.0  0.81781  0.31408  0.29226  1.0000
  H   H2608     1.0  0.82750  0.32262  0.33963  1.0000
  H   H2609     1.0  0.85656  0.38580  0.33777  1.0000
  C   C1481     1.0  0.97228  0.47104  0.37354  1.0000
  H   H2610     1.0  0.76372  0.25675  0.99804  1.0000
  C   C1482     1.0  0.85372  0.48320  0.27358  1.0000
  C   C1483     1.0  0.75065  0.43789  0.19925  1.0000
  C   C1484     1.0  0.86155  0.42604  0.34972  1.0000
  H   H2611     1.0  0.85444  0.41672  0.06188  1.0000
  H   H2612     1.0  0.86378  0.42465  0.37258  1.0000
  H   H2613     1.0  0.79455  0.35671  0.10718  1.0000
  C   C1485     1.0  0.91277  0.45145  0.42296  1.0000
  C   C1486     1.0  0.91499  0.43780  0.41193  1.0000
  C   C1487     1.0  0.90201  0.42399  0.41028  1.0000
  C   C1488     1.0  0.88685  0.42357  0.42063  1.0000
  C   C1489     1.0  0.88452  0.43730  0.43126  1.0000
  C   C1490     1.0  0.89750  0.45132  0.43226  1.0000
  H   H2614     1.0  0.92673  0.43788  0.40443  1.0000
  H   H2615     1.0  0.90382  0.41367  0.40101  1.0000
  H   H2616     1.0  0.87279  0.43698  0.43937  1.0000
  H   H2617     1.0  0.89577  0.46183  0.44105  1.0000
  C   C1491     1.0  0.76855  0.25812  0.07149  1.0000
  H   H2618     1.0  0.86045  0.48676  0.08444  1.0000
  H   H2619     1.0  0.83040  0.43922  0.03268  1.0000
  C   C1492     1.0  0.85385  0.46150  0.09859  1.0000
  H   H2620     1.0  0.77570  0.46860  0.11703  1.0000
  H   H2621     1.0  0.77669  0.44939  0.10729  1.0000
  H   H2622     1.0  0.87422  0.29223  0.42456  1.0000
  H   H2623     1.0  0.85619  0.45855  0.01165  1.0000
  C   C1493     1.0  0.74903  0.24210  0.19998  1.0000
  C   C1494     1.0  0.96992  0.48248  0.39624  1.0000
  H   H2624     1.0  0.96428  0.47486  0.41569  1.0000
  H   H2625     1.0  0.74610  0.21683  0.19868  1.0000
  H   H2626     1.0  0.76596  0.39168  0.21234  1.0000
  H   H2627     1.0  0.89813  0.26226  0.33007  1.0000
  C   C1495     1.0  0.78505  0.26050  0.12553  1.0000
  H   H2628     1.0  0.80829  0.41162  0.12029  1.0000
  H   H2629     1.0  0.84134  0.34542  0.99777  1.0000
  H   H2630     1.0  0.75093  0.37478  0.12379  1.0000
  C   C1496     1.0  0.77697  0.46164  0.01960  1.0000
  H   H2631     1.0  0.80666  0.33735  0.01384  1.0000
  C   C1497     1.0  0.80829  0.40675  0.09901  1.0000
  H   H2632     1.0  0.91586  0.43474  0.47426  1.0000
  C   C1498     1.0  0.78756  0.35342  0.08809  1.0000
  H   H2633     1.0  0.77905  0.41101  0.27977  1.0000
  H   H2634     1.0  0.87881  0.45908  0.38890  1.0000
  C   C1499     1.0  0.75553  0.39010  0.22743  1.0000
  C   C1500     1.0  0.76924  0.45553  0.11870  1.0000
  H   H2635     1.0  0.84553  0.42733  0.30315  1.0000
  H   H2636     1.0  0.85762  0.29863  0.41472  1.0000
  N   N81       1.0  0.87119  0.44251  0.33748  1.0000
  H   H2637     1.0  0.77955  0.35886  0.03522  1.0000
  H   H2638     1.0  0.79409  0.48519  0.01669  1.0000
  N   N82       1.0  0.87915  0.30323  0.36458  1.0000
  C   C1501     1.0  0.88771  0.31525  0.34072  1.0000
  C   C1502     1.0  0.86160  0.29635  0.35936  1.0000
  C   C1503     1.0  0.88055  0.31214  0.39157  1.0000
  C   C1504     1.0  0.88663  0.29016  0.36897  1.0000
  C   C1505     1.0  0.88751  0.28016  0.34316  1.0000
  C   C1506     1.0  0.90593  0.32304  0.34268  1.0000
  C   C1507     1.0  0.74824  0.28023  0.08867  1.0000
  C   C1508     1.0  0.85697  0.29359  0.32813  1.0000
  C   C1509     1.0  0.83924  0.28454  0.32676  1.0000
  C   C1510     1.0  0.89806  0.26964  0.34857  1.0000
  C   C1511     1.0  0.91286  0.33562  0.31824  1.0000
  C   C1512     1.0  0.93399  0.41550  0.46713  1.0000
  H   H2639     1.0  0.88226  0.32504  0.33919  1.0000
  H   H2640     1.0  0.88619  0.30991  0.31977  1.0000
  H   H2641     1.0  0.85620  0.28484  0.37216  1.0000
  H   H2642     1.0  0.85504  0.30452  0.36684  1.0000
  H   H2643     1.0  0.87708  0.32314  0.38804  1.0000
  H   H2644     1.0  0.89310  0.31627  0.39779  1.0000
  H   H2645     1.0  0.89885  0.29522  0.37652  1.0000
  H   H2646     1.0  0.87993  0.28138  0.38631  1.0000
  H   H2647     1.0  0.89248  0.28779  0.32355  1.0000
  H   H2648     1.0  0.87544  0.27201  0.33960  1.0000
  H   H2649     1.0  0.90884  0.32920  0.36264  1.0000
  H   H2650     1.0  0.91213  0.31389  0.34143  1.0000
  C   C1513     1.0  0.74263  0.24416  0.09807  1.0000
  H   H2651     1.0  0.86883  0.32397  0.43891  1.0000
  H   H2652     1.0  0.85932  0.30526  0.31608  1.0000
  H   H2653     1.0  0.86376  0.28686  0.31682  1.0000
  H   H2654     1.0  0.75280  0.39065  0.27430  1.0000
  N   N83       1.0  0.74291  0.37430  0.22409  1.0000
  H   H2655     1.0  0.83630  0.27229  0.33698  1.0000
  H   H2656     1.0  0.91051  0.27714  0.35142  1.0000
  H   H2657     1.0  0.83247  0.40632  0.09708  1.0000
  H   H2658     1.0  0.80012  0.41093  0.08581  1.0000
  H   H2659     1.0  0.92590  0.34102  0.32000  1.0000
  H   H2660     1.0  0.91080  0.33013  0.29740  1.0000
  H   H2661     1.0  0.90735  0.34535  0.31911  1.0000
  H   H2662     1.0  0.88585  0.42092  0.08248  1.0000
  H   H2663     1.0  0.94670  0.46094  0.36903  1.0000
  H   H2664     1.0  0.85712  0.42640  0.11429  1.0000
  N   N84       1.0  0.83911  0.37355  0.25070  1.0000
  C   C1514     1.0  0.84237  0.36367  0.22725  1.0000
  C   C1515     1.0  0.82899  0.36233  0.27420  1.0000
  C   C1516     1.0  0.83068  0.38464  0.23863  1.0000
  C   C1517     1.0  0.85434  0.38363  0.26258  1.0000
  C   C1518     1.0  0.86511  0.37436  0.27477  1.0000
  C   C1519     1.0  0.85533  0.37276  0.20397  1.0000
  C   C1520     1.0  0.82345  0.39339  0.26076  1.0000
  C   C1521     1.0  0.81242  0.35163  0.26582  1.0000
  C   C1522     1.0  0.80174  0.34357  0.29207  1.0000
  C   C1523     1.0  0.88137  0.38570  0.28143  1.0000
  C   C1524     1.0  0.85630  0.36195  0.17992  1.0000
  C   C1525     1.0  0.81525  0.40416  0.24618  1.0000
  H   H2665     1.0  0.83125  0.35797  0.21634  1.0000
  H   H2666     1.0  0.84585  0.35341  0.23606  1.0000
  H   H2667     1.0  0.83515  0.35392  0.28215  1.0000
  H   H2668     1.0  0.82752  0.36900  0.29309  1.0000
  H   H2669     1.0  0.82102  0.37820  0.22505  1.0000
  H   H2670     1.0  0.83898  0.39409  0.22387  1.0000
  H   H2671     1.0  0.86150  0.39293  0.24631  1.0000
  H   H2672     1.0  0.85165  0.39043  0.28034  1.0000
  H   H2673     1.0  0.86725  0.36584  0.25974  1.0000
  H   H2674     1.0  0.85946  0.36763  0.29494  1.0000
  H   H2675     1.0  0.85280  0.38341  0.19471  1.0000
  H   H2676     1.0  0.86724  0.37680  0.21285  1.0000
  H   H2677     1.0  0.83283  0.40105  0.27342  1.0000
  H   H2678     1.0  0.81434  0.38479  0.27546  1.0000
  H   H2679     1.0  0.80597  0.35847  0.25380  1.0000
  H   H2680     1.0  0.81390  0.34208  0.25233  1.0000
  H   H2681     1.0  0.80767  0.33676  0.30551  1.0000
  H   H2682     1.0  0.79880  0.35266  0.30490  1.0000
  H   H2683     1.0  0.79047  0.33510  0.28534  1.0000
  H   H2684     1.0  0.88789  0.39233  0.26172  1.0000
  H   H2685     1.0  0.88005  0.39435  0.29699  1.0000
  H   H2686     1.0  0.88859  0.37867  0.29083  1.0000
  H   H2687     1.0  0.86602  0.36850  0.16400  1.0000
  H   H2688     1.0  0.85880  0.35105  0.18831  1.0000
  H   H2689     1.0  0.84493  0.35828  0.16910  1.0000
  H   H2690     1.0  0.81132  0.41126  0.26214  1.0000
  H   H2691     1.0  0.82360  0.41255  0.23005  1.0000
  H   H2692     1.0  0.80462  0.39684  0.23573  1.0000
  C   C1526     1.0  0.77064  0.25922  0.01735  1.0000
  H   H2693     1.0  0.89345  0.26147  0.36779  1.0000
  H   H2694     1.0  0.89935  0.46651  0.31399  1.0000
  H   H2695     1.0  0.87695  0.48019  0.09492  1.0000
  H   H2696     1.0  0.81376  0.45540  0.01639  1.0000
  H   H2697     1.0  0.85792  0.45429  0.11448  1.0000
  H   H2698     1.0  0.97496  0.47742  0.35218  1.0000
  H   H2699     1.0  0.76747  0.46514  0.03108  1.0000
  H   H2700     1.0  0.86394  0.41243  0.31230  1.0000
  C   C1527     1.0  0.79871  0.35815  0.06124  1.0000
  C   C1528     1.0  0.88165  0.49534  0.30514  1.0000
  C   C1529     1.0  0.84145  0.43583  0.03436  1.0000
  C   C1530     1.0  0.80687  0.37588  0.00135  1.0000
  H   H2701     1.0  0.81396  0.29602  0.00155  1.0000
  H   H2702     1.0  0.86463  0.44250  0.00950  1.0000
  H   H2703     1.0  0.89328  0.43713  0.33149  1.0000
  H   H2704     1.0  0.84792  0.46256  0.05570  1.0000
  H   H2705     1.0  0.85798  0.43031  0.25462  1.0000
  C   C1531     1.0  0.86422  0.47894  0.09978  1.0000
  H   H2706     1.0  0.86296  0.48307  0.12142  1.0000
  H   H2707     1.0  0.80547  0.25977  0.14861  1.0000
  H   H2708     1.0  0.87015  0.48239  0.23917  1.0000
  C   C1532     1.0  0.87054  0.30277  0.41833  1.0000
  H   H2709     1.0  0.77531  0.24935  0.07134  1.0000
  C   C1533     1.0  0.86505  0.41182  0.33557  1.0000
  C   C1534     1.0  0.88842  0.44530  0.34359  1.0000
  C   C1535     1.0  0.86649  0.42973  0.09680  1.0000
  H   H2710     1.0  0.86083  0.46945  0.41752  1.0000
  C   C1536     1.0  0.96052  0.38900  0.39037  1.0000
  H   H2711     1.0  0.77783  0.27206  0.01588  1.0000
  H   H2712     1.0  0.77850  0.35974  0.08794  1.0000
  H   H2713     1.0  0.96078  0.48778  0.38868  1.0000
  C   C1537     1.0  0.82512  0.41216  0.08485  1.0000
  C   C1538     1.0  0.85334  0.44545  0.00979  1.0000
  H   H2714     1.0  0.79308  0.24044  0.13901  1.0000
  C   C1539     1.0  0.75242  0.45396  0.20349  1.0000
  H   H2715     1.0  0.80481  0.37124  0.06095  1.0000
  H   H2716     1.0  0.84857  0.42437  0.34954  1.0000
  H   H2717     1.0  0.78564  0.27225  0.13387  1.0000
  C   C1540     1.0  0.85266  0.48727  0.30207  1.0000
  H   H2718     1.0  0.87083  0.46677  0.34063  1.0000
  C   C1541     1.0  0.87281  0.31340  0.44363  1.0000
  C   C1542     1.0  0.95548  0.40094  0.37713  1.0000
  H   H2719     1.0  0.84670  0.46578  0.39016  1.0000
  H   H2720     1.0  0.84686  0.44816  0.30178  1.0000
  C   C1543     1.0  0.78827  0.47599  0.00196  1.0000
  H   H2721     1.0  0.86687  0.46004  0.05908  1.0000
  C   C1544     1.0  0.85954  0.46871  0.39425  1.0000
  H   H2722     1.0  0.83191  0.29104  0.33750  1.0000
  C   C1545     1.0  0.89987  0.46252  0.33642  1.0000
  C   C1546     1.0  0.86482  0.45468  0.35088  1.0000
  C   C1547     1.0  0.97686  0.39176  0.39434  1.0000
  H   H2723     1.0  0.96324  0.42493  0.35795  1.0000
  H   H2724     1.0  0.77783  0.27012  0.06882  1.0000
  H   H2725     1.0  0.87728  0.41176  0.33976  1.0000
  H   H2726     1.0  0.91858  0.46089  0.36366  1.0000
  H   H2727     1.0  0.95853  0.44984  0.35341  1.0000
  C   C1548     1.0  0.86895  0.48526  0.26104  1.0000
  H   H2728     1.0  0.80378  0.39347  0.10170  1.0000
  H   H2729     1.0  0.88955  0.44215  0.36633  1.0000
  H   H2730     1.0  0.84105  0.48589  0.31213  1.0000
  H   H2731     1.0  0.97418  0.36382  0.44264  1.0000
  H   H2732     1.0  0.94576  0.42492  0.46657  1.0000
  H   H2733     1.0  0.85198  0.45213  0.34706  1.0000
  N   N85       1.0  0.75889  0.25642  0.09953  1.0000
  C   C1549     1.0  0.98319  0.41874  0.37384  1.0000
  C   C1550     1.0  0.78937  0.35356  0.03409  1.0000
  C   C1551     1.0  0.83022  0.47935  0.01031  1.0000
  H   H2734     1.0  0.76773  0.48249  0.98859  1.0000
  H   H2735     1.0  0.75294  0.27161  0.13023  1.0000
  H   H2736     1.0  0.89082  0.41790  0.47865  1.0000
  C   C1552     1.0  0.87604  0.41802  0.09934  1.0000
  C   C1553     1.0  0.97900  0.43838  0.43606  1.0000
  H   H2737     1.0  0.79228  0.26270  0.10509  1.0000
  H   H2738     1.0  0.98075  0.38223  0.40320  1.0000
  C   C1554     1.0  0.83553  0.49400  0.05340  1.0000
  H   H2739     1.0  0.95511  0.44885  0.39152  1.0000
  H   H2740     1.0  0.98407  0.35378  0.46586  1.0000
  H   H2741     1.0  0.93582  0.40360  0.46678  1.0000
  H   H2742     1.0  0.84097  0.43748  0.25546  1.0000
  N   N86       1.0  0.79895  0.35804  0.00595  1.0000
  H   H2743     1.0  0.87588  0.45677  0.29759  1.0000
  H   H2744     1.0  0.86974  0.43474  0.05184  1.0000
  H   H2745     1.0  0.84144  0.46075  0.10530  1.0000
  H   H2746     1.0  0.81544  0.38039  0.01793  1.0000
  C   C1555     1.0  0.85430  0.45566  0.06805  1.0000
  H   H2747     1.0  0.92507  0.47580  0.33463  1.0000
  H   H2748     1.0  0.87478  0.44187  0.09976  1.0000
  H   H2749     1.0  0.76424  0.46253  0.20360  1.0000
  H   H2750     1.0  0.89689  0.47113  0.35033  1.0000
  C   C1556     1.0  0.83272  0.43064  0.08455  1.0000
  H   H2751     1.0  0.86616  0.48059  0.38370  1.0000
  H   H2752     1.0  0.85940  0.44438  0.39501  1.0000
  H   H2753     1.0  0.76922  0.38428  0.26171  1.0000
  H   H2754     1.0  0.82427  0.40757  0.06336  1.0000
  C   C1557     1.0  0.86621  0.45586  0.38339  1.0000
  C   C1558     1.0  0.85290  0.43949  0.29502  1.0000
  H   H2755     1.0  0.86817  0.40553  0.09770  1.0000
  H   H2756     1.0  0.83818  0.42309  0.02907  1.0000
  H   H2757     1.0  0.75883  0.38734  0.16847  1.0000
  H   H2758     1.0  0.79762  0.47191  0.99131  1.0000
  C   C1559     1.0  0.98289  0.37648  0.48025  1.0000
  H   H2759     1.0  0.83613  0.28355  0.30418  1.0000
  H   H2760     1.0  0.78147  0.34027  0.08989  1.0000
  H   H2761     1.0  0.78332  0.41235  0.24185  1.0000
  H   H2762     1.0  0.80767  0.35180  0.06336  1.0000
  H   H2763     1.0  0.88553  0.31762  0.44881  1.0000
  H   H2764     1.0  0.77148  0.45178  0.00568  1.0000
  C   C1560     1.0  0.96694  0.41577  0.36879  1.0000
  H   H2765     1.0  0.75866  0.30446  0.10238  1.0000
  H   H2766     1.0  0.84103  0.39488  0.34250  1.0000
  H   H2767     1.0  0.88133  0.41886  0.12038  1.0000
  H   H2768     1.0  0.76180  0.36368  0.21734  1.0000
  H   H2769     1.0  0.85407  0.39441  0.37079  1.0000
  H   H2770     1.0  0.95194  0.37741  0.39633  1.0000
  H   H2771     1.0  0.76134  0.24983  0.14356  1.0000
  H   H2772     1.0  0.74400  0.23250  0.09229  1.0000
  H   H2773     1.0  0.75451  0.28372  0.06737  1.0000
  C   C1561     1.0  0.76234  0.39262  0.25725  1.0000
  H   H2774     1.0  0.78658  0.25032  0.16787  1.0000
  C   C1562     1.0  0.76744  0.25034  0.12227  1.0000
  H   H2775     1.0  0.78339  0.34036  0.03608  1.0000
  H   H2776     1.0  0.78656  0.38336  0.01743  1.0000
  C   C1563     1.0  0.81189  0.35019  0.00643  1.0000
  H   H2777     1.0  0.76995  0.28129  0.10770  1.0000
  C   C1564     1.0  0.80494  0.40406  0.99978  1.0000
  H   H2778     1.0  0.80978  0.40693  0.02087  1.0000
  C   C1565     1.0  0.85942  0.42943  0.06735  1.0000
  H   H2779     1.0  0.92793  0.41730  0.44774  1.0000
  H   H2780     1.0  0.75108  0.40021  0.22145  1.0000
  H   H2781     1.0  0.76424  0.34106  0.00100  1.0000
  H   H2782     1.0  0.78373  0.45721  0.03552  1.0000
  H   H2783     1.0  0.76706  0.41847  0.25638  1.0000
  H   H2784     1.0  0.76920  0.36208  0.99165  1.0000
  H   H2785     1.0  0.77878  0.25185  0.01770  1.0000
  C   C1566     1.0  0.83799  0.49316  0.02404  1.0000
  H   H2786     1.0  0.75198  0.24254  0.04354  1.0000
  C   C1567     1.0  0.75783  0.27242  0.10783  1.0000
  H   H2787     1.0  0.86565  0.30654  0.46261  1.0000
  C   C1568     1.0  0.75929  0.25533  0.04391  1.0000
  H   H2788     1.0  0.96872  0.42969  0.42674  1.0000
  H   H2789     1.0  0.75265  0.36008  0.25199  1.0000
  H   H2790     1.0  0.97461  0.44593  0.45046  1.0000
  H   H2791     1.0  0.74920  0.47297  0.12152  1.0000
  H   H2792     1.0  0.75926  0.33393  0.22090  1.0000
  C   C1569     1.0  0.79566  0.38624  0.99947  1.0000
  C   C1570     1.0  0.74672  0.29548  0.10104  1.0000
  H   H2793     1.0  0.76775  0.45123  0.14143  1.0000
  H   H2794     1.0  0.75532  0.45628  0.08305  1.0000
  C   C1571     1.0  0.74947  0.37547  0.16968  1.0000
  H   H2795     1.0  0.74288  0.49030  0.29474  1.0000
  H   H2796     1.0  0.97434  0.39247  0.45490  1.0000
  H   H2797     1.0  0.79691  0.41126  0.99539  1.0000
  H   H2798     1.0  0.97377  0.48941  0.45920  1.0000
  H   H2799     1.0  0.95698  0.49307  0.44376  1.0000
  C   C1572     1.0  0.98827  0.40665  0.38635  1.0000
  S   S345      1.0  0.89912  0.49268  0.40824  1.0000
  C   C1573     1.0  0.74225  0.46004  0.12169  1.0000
  Fe  Fe173     1.0  0.92345  0.49057  0.41321  1.0000
  C   C1574     1.0  0.75305  0.45190  0.10569  1.0000
  H   H2800     1.0  0.98220  0.46634  0.37838  1.0000
  C   C1575     1.0  0.98876  0.42959  0.45205  1.0000
  H   H2801     1.0  0.74789  0.33072  0.25465  1.0000
  C   C1576     1.0  0.98466  0.39374  0.46833  1.0000
  C   C1577     1.0  0.88272  0.49126  0.27666  1.0000
  C   C1578     1.0  0.86642  0.49333  0.31764  1.0000
  H   H2802     1.0  0.74754  0.43870  0.10674  1.0000
  H   H2803     1.0  0.98861  0.47664  0.43010  1.0000
  H   H2804     1.0  0.98660  0.44619  0.41838  1.0000
  C   C1579     1.0  0.74171  0.37369  0.14118  1.0000
  C   C1580     1.0  0.74712  0.33130  0.23121  1.0000
  C   C1581     1.0  0.74137  0.25379  0.20047  1.0000
  N   N87       1.0  0.98483  0.49553  0.40309  1.0000
  H   H2805     1.0  0.74091  0.45572  0.14450  1.0000
  C   C1582     1.0  0.97889  0.41873  0.47743  1.0000
  H   H2806     1.0  0.96682  0.41283  0.46993  1.0000
  S   S346      1.0  0.89741  0.34850  0.48362  1.0000
  H   H2807     1.0  0.91247  0.48122  0.48726  1.0000
  H   H2808     1.0  0.86154  0.40555  0.48555  1.0000
  H   H2809     1.0  0.85660  0.43498  0.76829  1.0000
  C   C1583     1.0  0.86924  0.40630  0.50377  1.0000
  S   S347      1.0  0.92027  0.46590  0.63227  1.0000
  Fe  Fe174     1.0  0.90357  0.38799  0.70510  1.0000
  S   S348      1.0  0.90950  0.36804  0.72815  1.0000
  S   S349      1.0  0.90328  0.40989  0.72699  1.0000
  Fe  Fe175     1.0  0.89811  0.37152  0.64862  1.0000
  S   S350      1.0  0.90318  0.35000  0.66806  1.0000
  S   S351      1.0  0.89096  0.37726  0.60428  1.0000
  Fe  Fe176     1.0  0.88815  0.35216  0.70733  1.0000
  S   S352      1.0  0.86513  0.33330  0.72711  1.0000
  Fe  Fe177     1.0  0.92392  0.36806  0.68732  1.0000
  S   S353      1.0  0.94988  0.36906  0.67950  1.0000
  S   S354      1.0  0.88191  0.37260  0.68611  1.0000
  S   S355      1.0  0.91926  0.38919  0.66604  1.0000
  Fe  Fe178     1.0  0.80753  0.30476  0.87604  1.0000
  S   S356      1.0  0.78506  0.30440  0.85472  1.0000
  S   S357      1.0  0.83265  0.31117  0.85351  1.0000
  Fe  Fe179     1.0  0.79198  0.30440  0.93700  1.0000
  S   S358      1.0  0.76933  0.30465  0.91790  1.0000
  C   C1584     1.0  0.74830  0.44972  0.90339  1.0000
  Fe  Fe180     1.0  0.77200  0.28568  0.88961  1.0000
  H   H2810     1.0  0.81489  0.40756  0.98318  1.0000
  Fe  Fe181     1.0  0.78414  0.32293  0.88552  1.0000
  S   S359      1.0  0.77759  0.34517  0.87334  1.0000
  S   S360      1.0  0.79452  0.28477  0.90966  1.0000
  S   S361      1.0  0.80677  0.32392  0.90571  1.0000
  Fe  Fe182     1.0  0.81525  0.43347  0.90948  1.0000
  S   S362      1.0  0.83704  0.45519  0.90454  1.0000
  S   S363      1.0  0.81941  0.41008  0.92115  1.0000
  Fe  Fe183     1.0  0.79206  0.45293  0.90501  1.0000
  S   S364      1.0  0.81253  0.47603  0.89919  1.0000
  S   S365      1.0  0.76672  0.45235  0.91931  1.0000
  Fe  Fe184     1.0  0.82463  0.46338  0.86900  1.0000
  S   S366      1.0  0.83542  0.47318  0.82332  1.0000
  Fe  Fe185     1.0  0.82325  0.46576  0.93503  1.0000
  S   S367      1.0  0.83421  0.47987  0.97279  1.0000
  S   S368      1.0  0.80317  0.44069  0.87268  1.0000
  S   S369      1.0  0.80255  0.44357  0.94199  1.0000
  H   H2811     1.0  0.81478  0.38183  0.81902  1.0000
  H   H2812     1.0  0.89992  0.45289  0.53077  1.0000
  H   H2813     1.0  0.75668  0.44758  0.86073  1.0000
  H   H2814     1.0  0.83143  0.41128  0.81862  1.0000
  C   C1585     1.0  0.92933  0.42269  0.58835  1.0000
  C   C1586     1.0  0.78870  0.36321  0.88749  1.0000
  C   C1587     1.0  0.78514  0.37739  0.88120  1.0000
  C   C1588     1.0  0.79424  0.39192  0.89186  1.0000
  C   C1589     1.0  0.80706  0.39227  0.90846  1.0000
  C   C1590     1.0  0.81046  0.37811  0.91495  1.0000
  C   C1591     1.0  0.80124  0.36365  0.90471  1.0000
  H   H2815     1.0  0.77541  0.37716  0.86795  1.0000
  H   H2816     1.0  0.79152  0.40284  0.88684  1.0000
  H   H2817     1.0  0.82036  0.37834  0.92774  1.0000
  H   H2818     1.0  0.80389  0.35288  0.91018  1.0000
  H   H2819     1.0  0.80778  0.49020  0.94963  1.0000
  N   N88       1.0  0.98564  0.40627  0.48981  1.0000
  H   H2820     1.0  0.86875  0.40377  0.68776  1.0000
  H   H2821     1.0  0.85954  0.35668  0.81987  1.0000
  H   H2822     1.0  0.85433  0.36598  0.92140  1.0000
  H   H2823     1.0  0.79378  0.35848  0.96159  1.0000
  H   H2824     1.0  0.84843  0.39230  0.69827  1.0000
  H   H2825     1.0  0.75742  0.48142  0.94224  1.0000
  H   H2826     1.0  0.82760  0.36396  0.78681  1.0000
  H   H2827     1.0  0.88040  0.46219  0.63009  1.0000
  C   C1592     1.0  0.85624  0.32802  0.76260  1.0000
  C   C1593     1.0  0.86523  0.33056  0.78667  1.0000
  C   C1594     1.0  0.85779  0.32532  0.81410  1.0000
  C   C1595     1.0  0.84120  0.31784  0.81819  1.0000
  C   C1596     1.0  0.83215  0.31550  0.79416  1.0000
  C   C1597     1.0  0.83965  0.32036  0.76664  1.0000
  H   H2828     1.0  0.87802  0.33603  0.78409  1.0000
  H   H2829     1.0  0.86501  0.32698  0.83235  1.0000
  H   H2830     1.0  0.81944  0.30951  0.79673  1.0000
  H   H2831     1.0  0.83255  0.31792  0.74832  1.0000
  C   C1598     1.0  0.89337  0.36916  0.57109  1.0000
  C   C1599     1.0  0.88862  0.37566  0.54661  1.0000
  C   C1600     1.0  0.89012  0.36971  0.51970  1.0000
  H   H2832     1.0  0.78849  0.33352  0.80712  1.0000
  C   C1601     1.0  0.90079  0.35028  0.54154  1.0000
  C   C1602     1.0  0.89954  0.35643  0.56843  1.0000
  H   H2833     1.0  0.88356  0.38526  0.54857  1.0000
  H   H2834     1.0  0.83367  0.35740  0.91412  1.0000
  H   H2835     1.0  0.90542  0.34033  0.53973  1.0000
  H   H2836     1.0  0.90322  0.35125  0.58706  1.0000
  H   H2837     1.0  0.97359  0.47362  0.68673  1.0000
  C   C1603     1.0  0.86086  0.37151  0.78166  1.0000
  Fe  Fe186     1.0  0.92253  0.48962  0.65059  1.0000
  C   C1604     1.0  0.85389  0.48141  0.80197  1.0000
  H   H2838     1.0  0.75717  0.24377  0.85781  1.0000
  H   H2839     1.0  0.93539  0.41434  0.70385  1.0000
  H   H2840     1.0  0.77631  0.47256  0.96382  1.0000
  C   C1605     1.0  0.89122  0.45047  0.76493  1.0000
  C   C1606     1.0  0.91639  0.45034  0.65847  1.0000
  C   C1607     1.0  0.92071  0.45345  0.68631  1.0000
  C   C1608     1.0  0.91699  0.44093  0.70734  1.0000
  C   C1609     1.0  0.90891  0.42534  0.70049  1.0000
  C   C1610     1.0  0.90491  0.42214  0.67253  1.0000
  C   C1611     1.0  0.90865  0.43465  0.65152  1.0000
  H   H2841     1.0  0.92694  0.46546  0.69167  1.0000
  H   H2842     1.0  0.92030  0.44332  0.72889  1.0000
  H   H2843     1.0  0.89852  0.41010  0.66720  1.0000
  H   H2844     1.0  0.90518  0.43222  0.63006  1.0000
  C   C1612     1.0  0.96723  0.38845  0.71930  1.0000
  C   C1613     1.0  0.96529  0.48571  0.63766  1.0000
  N   N89       1.0  0.84149  0.33939  0.63829  1.0000
  C   C1614     1.0  0.82450  0.33338  0.62964  1.0000
  C   C1615     1.0  0.85059  0.35494  0.62164  1.0000
  C   C1616     1.0  0.84935  0.32699  0.63090  1.0000
  C   C1617     1.0  0.84232  0.34144  0.66983  1.0000
  C   C1618     1.0  0.83428  0.35326  0.68193  1.0000
  C   C1619     1.0  0.81379  0.31735  0.64461  1.0000
  C   C1620     1.0  0.86736  0.33133  0.63626  1.0000
  C   C1621     1.0  0.84106  0.36620  0.61213  1.0000
  H   H2845     1.0  0.85935  0.38066  0.58094  1.0000
  C   C1622     1.0  0.83493  0.35350  0.71424  1.0000
  C   C1623     1.0  0.79669  0.31327  0.63544  1.0000
  C   C1624     1.0  0.87469  0.31960  0.62272  1.0000
  H   H2846     1.0  0.82445  0.33189  0.60627  1.0000
  H   H2847     1.0  0.81821  0.34225  0.63341  1.0000
  H   H2848     1.0  0.86062  0.36203  0.63389  1.0000
  H   H2849     1.0  0.85638  0.35257  0.60152  1.0000
  H   H2850     1.0  0.84786  0.32429  0.60810  1.0000
  H   H2851     1.0  0.84362  0.31552  0.64353  1.0000
  H   H2852     1.0  0.83753  0.32970  0.68211  1.0000
  H   H2853     1.0  0.85493  0.34595  0.67539  1.0000
  H   H2854     1.0  0.82159  0.35000  0.67698  1.0000
  H   H2855     1.0  0.84074  0.36559  0.67321  1.0000
  H   H2856     1.0  0.81811  0.30726  0.63903  1.0000
  H   H2857     1.0  0.81334  0.31801  0.66805  1.0000
  H   H2858     1.0  0.86898  0.33070  0.65945  1.0000
  H   H2859     1.0  0.87428  0.34350  0.62743  1.0000
  H   H2860     1.0  0.83307  0.36072  0.59525  1.0000
  H   H2861     1.0  0.83365  0.36853  0.62986  1.0000
  C   C1625     1.0  0.97959  0.39203  0.67179  1.0000
  H   H2862     1.0  0.84200  0.48167  0.76311  1.0000
  H   H2863     1.0  0.83552  0.43326  0.72869  1.0000
  H   H2864     1.0  0.82849  0.34148  0.72445  1.0000
  H   H2865     1.0  0.84750  0.35720  0.72030  1.0000
  H   H2866     1.0  0.82925  0.36218  0.72234  1.0000
  H   H2867     1.0  0.79138  0.32264  0.64150  1.0000
  H   H2868     1.0  0.79637  0.31215  0.61207  1.0000
  H   H2869     1.0  0.78931  0.30167  0.64613  1.0000
  H   H2870     1.0  0.87407  0.32031  0.59924  1.0000
  H   H2871     1.0  0.88744  0.32271  0.62757  1.0000
  H   H2872     1.0  0.86844  0.30716  0.63128  1.0000
  H   H2873     1.0  0.94450  0.40480  0.72924  1.0000
  C   C1626     1.0  0.90836  0.45113  0.51392  1.0000
  N   N90       1.0  0.97736  0.45135  0.67637  1.0000
  H   H2874     1.0  0.95193  0.43945  0.67621  1.0000
  H   H2875     1.0  0.91704  0.44465  0.56119  1.0000
  C   C1627     1.0  0.76275  0.34694  0.95683  1.0000
  C   C1628     1.0  0.85713  0.44469  0.75196  1.0000
  H   H2876     1.0  0.86961  0.48304  0.83599  1.0000
  H   H2877     1.0  0.82574  0.35806  0.86422  1.0000
  H   H2878     1.0  0.81632  0.43918  0.76350  1.0000
  H   H2879     1.0  0.85718  0.38168  0.77340  1.0000
  H   H2880     1.0  0.88934  0.46283  0.67796  1.0000
  C   C1629     1.0  0.89610  0.35688  0.51700  1.0000
  C   C1630     1.0  0.98121  0.39931  0.72869  1.0000
  H   H2881     1.0  0.76401  0.33562  0.94907  1.0000
  H   H2882     1.0  0.84943  0.39185  0.83657  1.0000
  C   C1631     1.0  0.78851  0.35158  0.98180  1.0000
  C   C1632     1.0  0.86760  0.49071  0.75457  1.0000
  H   H2883     1.0  0.88304  0.36560  0.78151  1.0000
  H   H2884     1.0  0.95295  0.37182  0.54354  1.0000
  C   C1633     1.0  0.87864  0.37546  0.77391  1.0000
  C   C1634     1.0  0.74526  0.23787  0.86709  1.0000
  H   H2885     1.0  0.92955  0.43308  0.60105  1.0000
  H   H2886     1.0  0.93061  0.41440  0.51228  1.0000
  C   C1635     1.0  0.96095  0.42499  0.70423  1.0000
  H   H2887     1.0  0.90442  0.47427  0.77754  1.0000
  H   H2888     1.0  0.81941  0.37980  0.85561  1.0000
  H   H2889     1.0  0.90514  0.41721  0.57661  1.0000
  H   H2890     1.0  0.93328  0.44157  0.54168  1.0000
  H   H2891     1.0  0.96294  0.49193  0.65655  1.0000
  H   H2892     1.0  0.95626  0.48585  0.62211  1.0000
  H   H2893     1.0  0.86342  0.39593  0.72409  1.0000
  H   H2894     1.0  0.86933  0.47203  0.65145  1.0000
  H   H2895     1.0  0.97728  0.49236  0.62772  1.0000
  H   H2896     1.0  0.83309  0.34709  0.79858  1.0000
  C   C1636     1.0  0.75699  0.22887  0.94415  1.0000
  H   H2897     1.0  0.91593  0.46534  0.75512  1.0000
  H   H2898     1.0  0.87875  0.44256  0.67021  1.0000
  C   C1637     1.0  0.84608  0.35925  0.90588  1.0000
  C   C1638     1.0  0.81169  0.34779  0.81952  1.0000
  C   C1639     1.0  0.82385  0.38624  0.83482  1.0000
  H   H2899     1.0  0.84788  0.34739  0.90393  1.0000
  H   H2900     1.0  0.83876  0.34722  0.85475  1.0000
  C   C1640     1.0  0.84941  0.36867  0.87712  1.0000
  C   C1641     1.0  0.82869  0.35682  0.80622  1.0000
  N   N91       1.0  0.84053  0.36719  0.82525  1.0000
  C   C1642     1.0  0.94932  0.38278  0.54154  1.0000
  H   H2901     1.0  0.86628  0.37752  0.82477  1.0000
  C   C1643     1.0  0.83793  0.35961  0.85513  1.0000
  H   H2902     1.0  0.86202  0.37044  0.87036  1.0000
  H   H2903     1.0  0.79909  0.34940  0.78137  1.0000
  H   H2904     1.0  0.80637  0.35570  0.83108  1.0000
  H   H2905     1.0  0.93011  0.46733  0.53116  1.0000
  H   H2906     1.0  0.89490  0.45633  0.72017  1.0000
  H   H2907     1.0  0.84783  0.38050  0.88038  1.0000
  C   C1644     1.0  0.85572  0.41654  0.71246  1.0000
  C   C1645     1.0  0.94473  0.41655  0.71941  1.0000
  C   C1646     1.0  0.85714  0.36809  0.81428  1.0000
  H   H2908     1.0  0.75410  0.41683  0.89299  1.0000
  H   H2909     1.0  0.95731  0.38259  0.73432  1.0000
  N   N92       1.0  0.91131  0.43530  0.51962  1.0000
  C   C1647     1.0  0.74485  0.40507  0.89833  1.0000
  H   H2910     1.0  0.92603  0.41175  0.60293  1.0000
  H   H2911     1.0  0.84220  0.38956  0.80238  1.0000
  H   H2912     1.0  0.81380  0.34583  0.96050  1.0000
  C   C1648     1.0  0.87047  0.42880  0.72381  1.0000
  H   H2913     1.0  0.88073  0.37708  0.75046  1.0000
  H   H2914     1.0  0.98282  0.43153  0.65779  1.0000
  H   H2915     1.0  0.86256  0.40792  0.52327  1.0000
  C   C1649     1.0  0.83977  0.38408  0.82440  1.0000
  H   H2916     1.0  0.81216  0.33800  0.83481  1.0000
  C   C1650     1.0  0.82816  0.43878  0.76968  1.0000
  H   H2917     1.0  0.84509  0.39012  0.59297  1.0000
  C   C1651     1.0  0.88303  0.49173  0.79568  1.0000
  H   H2918     1.0  0.89383  0.43903  0.76282  1.0000
  C   C1652     1.0  0.82576  0.40393  0.83821  1.0000
  H   H2919     1.0  0.83316  0.40839  0.85639  1.0000
  H   H2920     1.0  0.80495  0.33147  0.78542  1.0000
  H   H2921     1.0  0.86561  0.46539  0.70502  1.0000
  H   H2922     1.0  0.81391  0.40547  0.84248  1.0000
  H   H2923     1.0  0.85459  0.36084  0.77015  1.0000
  C   C1653     1.0  0.87136  0.46040  0.64809  1.0000
  C   C1654     1.0  0.88457  0.42036  0.49792  1.0000
  H   H2924     1.0  0.88554  0.38675  0.78320  1.0000
  H   H2925     1.0  0.85188  0.42127  0.69285  1.0000
  H   H2926     1.0  0.88840  0.42481  0.54228  1.0000
  H   H2927     1.0  0.98715  0.43662  0.59482  1.0000
  H   H2928     1.0  0.86688  0.49288  0.73201  1.0000
  H   H2929     1.0  0.74826  0.20396  0.95749  1.0000
  S   S370      1.0  0.74724  0.26646  0.89254  1.0000
  C   C1655     1.0  0.91880  0.48146  0.50717  1.0000
  C   C1656     1.0  0.80042  0.34010  0.79682  1.0000
  C   C1657     1.0  0.92338  0.46623  0.51164  1.0000
  H   H2930     1.0  0.88225  0.44893  0.78289  1.0000
  H   H2931     1.0  0.93320  0.44176  0.49315  1.0000
  H   H2932     1.0  0.96276  0.41722  0.68737  1.0000
  C   C1658     1.0  0.96636  0.38460  0.69084  1.0000
  H   H2933     1.0  0.88096  0.42960  0.70947  1.0000
  H   H2934     1.0  0.95187  0.46242  0.65547  1.0000
  C   C1659     1.0  0.88540  0.45572  0.73666  1.0000
  H   H2935     1.0  0.97102  0.37091  0.49144  1.0000
  H   H2936     1.0  0.86008  0.45158  0.64229  1.0000
  H   H2937     1.0  0.88637  0.37483  0.50108  1.0000
  H   H2938     1.0  0.96566  0.46249  0.62643  1.0000
  C   C1660     1.0  0.83987  0.44280  0.74363  1.0000
  H   H2939     1.0  0.74610  0.48902  0.89987  1.0000
  C   C1661     1.0  0.87741  0.45432  0.67476  1.0000
  H   H2940     1.0  0.86037  0.38850  0.61588  1.0000
  H   H2941     1.0  0.82677  0.42660  0.77888  1.0000
  H   H2942     1.0  0.91774  0.41033  0.55326  1.0000
  H   H2943     1.0  0.95310  0.40359  0.51362  1.0000
  H   H2944     1.0  0.83950  0.45426  0.73332  1.0000
  C   C1662     1.0  0.91719  0.42057  0.56555  1.0000
  H   H2945     1.0  0.76819  0.35679  0.94041  1.0000
  H   H2946     1.0  0.92974  0.49201  0.50532  1.0000
  H   H2947     1.0  0.85467  0.44909  0.96378  1.0000
  C   C1663     1.0  0.92020  0.43628  0.54664  1.0000
  H   H2948     1.0  0.83234  0.44756  0.78607  1.0000
  H   H2949     1.0  0.87273  0.42321  0.74411  1.0000
  H   H2950     1.0  0.88095  0.43115  0.49349  1.0000
  H   H2951     1.0  0.86072  0.45589  0.76362  1.0000
  H   H2952     1.0  0.89669  0.41060  0.52839  1.0000
  H   H2953     1.0  0.97009  0.42586  0.71990  1.0000
  H   H2954     1.0  0.84576  0.41320  0.72900  1.0000
  H   H2955     1.0  0.98173  0.40196  0.75082  1.0000
  C   C1664     1.0  0.90662  0.46289  0.77277  1.0000
  H   H2956     1.0  0.95213  0.38948  0.56108  1.0000
  C   C1665     1.0  0.85218  0.38235  0.59975  1.0000
  C   C1666     1.0  0.98032  0.44270  0.65081  1.0000
  H   H2957     1.0  0.90261  0.45132  0.49347  1.0000
  C   C1667     1.0  0.85932  0.40121  0.70526  1.0000
  C   C1668     1.0  0.74618  0.21515  0.96380  1.0000
  C   C1669     1.0  0.86579  0.45304  0.70108  1.0000
  N   N93       1.0  0.86938  0.44529  0.72810  1.0000
  H   H2958     1.0  0.98852  0.47578  0.65935  1.0000
  C   C1670     1.0  0.88259  0.49461  0.76608  1.0000
  H   H2959     1.0  0.75531  0.24047  0.94921  1.0000
  H   H2960     1.0  0.94142  0.42453  0.57842  1.0000
  H   H2961     1.0  0.85375  0.44663  0.69433  1.0000
  H   H2962     1.0  0.81428  0.37871  0.98099  1.0000
  H   H2963     1.0  0.88534  0.46827  0.73818  1.0000
  C   C1671     1.0  0.92393  0.41626  0.49389  1.0000
  C   C1672     1.0  0.96165  0.44168  0.69124  1.0000
  C   C1673     1.0  0.89528  0.42246  0.52352  1.0000
  C   C1674     1.0  0.74653  0.44757  0.87437  1.0000
  H   H2964     1.0  0.95810  0.44851  0.70823  1.0000
  H   H2965     1.0  0.94201  0.42384  0.73636  1.0000
  C   C1675     1.0  0.76375  0.49336  0.93171  1.0000
  H   H2966     1.0  0.97851  0.45052  0.73816  1.0000
  H   H2967     1.0  0.91110  0.45841  0.79197  1.0000
  C   C1676     1.0  0.85344  0.48433  0.77237  1.0000
  H   H2968     1.0  0.76966  0.22981  0.94668  1.0000
  H   H2969     1.0  0.97917  0.38889  0.64985  1.0000
  H   H2970     1.0  0.74714  0.39620  0.88412  1.0000
  C   C1677     1.0  0.97660  0.46779  0.66783  1.0000
  H   H2971     1.0  0.75437  0.22663  0.92161  1.0000
  H   H2972     1.0  0.95438  0.38629  0.49619  1.0000
  H   H2973     1.0  0.96943  0.43858  0.63858  1.0000
  C   C1678     1.0  0.86889  0.48509  0.81339  1.0000
  H   H2974     1.0  0.91252  0.40633  0.49389  1.0000
  C   C1679     1.0  0.96410  0.46840  0.64610  1.0000
  H   H2975     1.0  0.74599  0.40141  0.92076  1.0000
  C   C1680     1.0  0.95775  0.39327  0.51526  1.0000
  H   H2976     1.0  0.74986  0.34551  0.95986  1.0000
  H   H2977     1.0  0.83997  0.34159  0.96058  1.0000
  H   H2978     1.0  0.97865  0.40866  0.53351  1.0000
  H   H2979     1.0  0.91105  0.48283  0.52542  1.0000
  H   H2980     1.0  0.74992  0.21738  0.98580  1.0000
  S   S371      1.0  0.78745  0.30724  0.98446  1.0000
  H   H2981     1.0  0.87197  0.39487  0.50616  1.0000
  H   H2982     1.0  0.93146  0.46591  0.49318  1.0000
  H   H2983     1.0  0.93620  0.37904  0.53960  1.0000
  H   H2984     1.0  0.78607  0.48906  0.92114  1.0000
  H   H2985     1.0  0.84394  0.42888  0.97680  1.0000
  H   H2986     1.0  0.89445  0.49470  0.80508  1.0000
  C   C1681     1.0  0.92116  0.43271  0.49449  1.0000
  C   C1682     1.0  0.77936  0.48229  0.97892  1.0000
  H   H2987     1.0  0.82888  0.36325  0.97121  1.0000
  C   C1683     1.0  0.75928  0.49285  0.90073  1.0000
  H   H2988     1.0  0.74261  0.21583  0.84641  1.0000
  C   C1684     1.0  0.82159  0.35079  0.97787  1.0000
  C   C1685     1.0  0.83295  0.34091  0.98093  1.0000
  C   C1686     1.0  0.98867  0.45915  0.72552  1.0000
  H   H2989     1.0  0.98645  0.47083  0.72401  1.0000
  C   C1687     1.0  0.84623  0.44170  0.98093  1.0000
  H   H2990     1.0  0.97733  0.42684  0.49404  1.0000
  C   C1688     1.0  0.97613  0.39943  0.51739  1.0000
  H   H2991     1.0  0.76374  0.48414  0.88945  1.0000
  H   H2992     1.0  0.78966  0.38440  0.97909  1.0000
  H   H2993     1.0  0.83489  0.44459  0.97999  1.0000
  H   H2994     1.0  0.78805  0.33903  0.97832  1.0000
  H   H2995     1.0  0.97984  0.38957  0.52705  1.0000
  H   H2996     1.0  0.82612  0.32812  0.98630  1.0000
  C   C1689     1.0  0.77073  0.35076  0.98492  1.0000
  H   H2997     1.0  0.99009  0.37785  0.78935  1.0000
  Fe  Fe187     1.0  0.90852  0.51517  0.43191  1.0000
  S   S372      1.0  0.93174  0.51157  0.43961  1.0000
  S   S373      1.0  0.89481  0.52224  0.46829  1.0000
  H   H2998     1.0  0.96166  0.55157  0.47117  1.0000
  Fe  Fe188     1.0  0.91005  0.50788  0.36831  1.0000
  H   H2999     1.0  0.94405  0.58843  0.41826  1.0000
  Fe  Fe189     1.0  0.94109  0.52597  0.39846  1.0000
  S   S374      1.0  0.96559  0.54231  0.40934  1.0000
  S   S375      1.0  0.91784  0.53096  0.39177  1.0000
  H   H3000     1.0  0.91400  0.55549  0.45649  1.0000
  C   C1690     1.0  0.94135  0.57584  0.41244  1.0000
  H   H3001     1.0  0.92870  0.57145  0.40686  1.0000
  H   H3002     1.0  0.91977  0.57662  0.45017  1.0000
  H   H3003     1.0  0.94876  0.56309  0.37861  1.0000
  H   H3004     1.0  0.97610  0.55116  0.34893  1.0000
  H   H3005     1.0  0.79509  0.54087  0.00419  1.0000
  H   H3006     1.0  0.78461  0.50508  0.02293  1.0000
  C   C1691     1.0  0.98422  0.55286  0.39137  1.0000
  C   C1692     1.0  0.96949  0.51110  0.47097  1.0000
  H   H3007     1.0  0.96670  0.59488  0.44349  1.0000
  H   H3008     1.0  0.95690  0.56628  0.43659  1.0000
  C   C1693     1.0  0.95165  0.57548  0.38575  1.0000
  H   H3009     1.0  0.96832  0.61506  0.47982  1.0000
  H   H3010     1.0  0.94215  0.59337  0.46982  1.0000
  H   H3011     1.0  0.96452  0.57995  0.38989  1.0000
  H   H3012     1.0  0.98667  0.61048  0.47430  1.0000
  H   H3013     1.0  0.89592  0.57996  0.47487  1.0000
  H   H3014     1.0  0.84152  0.50496  0.06331  1.0000
  H   H3015     1.0  0.97269  0.51295  0.40953  1.0000
  C   C1694     1.0  0.94406  0.56503  0.43730  1.0000
  S   S376      1.0  0.93427  0.50429  0.37246  1.0000
  H   H3016     1.0  0.94935  0.58320  0.36833  1.0000
  H   H3017     1.0  0.84593  0.50346  0.01179  1.0000
  C   C1695     1.0  0.79110  0.51512  0.00754  1.0000
  H   H3018     1.0  0.96550  0.52084  0.46145  1.0000
  N   N94       1.0  0.93827  0.56794  0.46650  1.0000
  H   H3019     1.0  0.97194  0.58215  0.46894  1.0000
  H   H3020     1.0  0.79290  0.53221  0.04001  1.0000
  C   C1696     1.0  0.96548  0.59097  0.46639  1.0000
  H   H3021     1.0  0.99026  0.51650  0.42797  1.0000
  H   H3022     1.0  0.98297  0.50646  0.36202  1.0000
  H   H3023     1.0  0.93810  0.55240  0.43219  1.0000
  C   C1697     1.0  0.96950  0.49879  0.44913  1.0000
  C   C1698     1.0  0.97404  0.60556  0.48260  1.0000
  C   C1699     1.0  0.97977  0.50675  0.42175  1.0000
  C   C1700     1.0  0.98619  0.55565  0.36182  1.0000
  H   H3024     1.0  0.93101  0.54285  0.47995  1.0000
  C   C1701     1.0  0.78846  0.53025  0.01836  1.0000
  C   C1702     1.0  0.92097  0.56702  0.46514  1.0000
  S   S377      1.0  0.89965  0.50272  0.32382  1.0000
  H   H3025     1.0  0.98162  0.51638  0.47856  1.0000
  H   H3026     1.0  0.88847  0.55829  0.47874  1.0000
  H   H3027     1.0  0.77558  0.52909  0.01949  1.0000
  C   C1703     1.0  0.94757  0.58407  0.47666  1.0000
  H   H3028     1.0  0.80406  0.51688  0.00753  1.0000
  C   C1704     1.0  0.93885  0.55448  0.48695  1.0000
  H   H3029     1.0  0.86525  0.49657  0.33928  1.0000
  Fe  Fe190     1.0  0.94618  0.52126  0.66615  1.0000
  S   S378      1.0  0.92621  0.53164  0.67531  1.0000
  S   S379      1.0  0.97337  0.52898  0.66869  1.0000
  Fe  Fe191     1.0  0.91628  0.52028  0.63484  1.0000
  S   S380      1.0  0.90625  0.53242  0.60006  1.0000
  Fe  Fe192     1.0  0.91224  0.50770  0.69825  1.0000
  H   H3030     1.0  0.76436  0.50486  0.88953  1.0000
  S   S381      1.0  0.93694  0.51162  0.62472  1.0000
  H   H3031     1.0  0.91887  0.57995  0.50355  1.0000
  H   H3032     1.0  0.94689  0.52687  0.50066  1.0000
  H   H3033     1.0  0.93564  0.53491  0.73642  1.0000
  S   S382      1.0  0.93306  0.49828  0.69146  1.0000
  H   H3034     1.0  0.75914  0.50232  0.94171  1.0000
  H   H3035     1.0  0.96603  0.53690  0.51391  1.0000
  C   C1705     1.0  0.91025  0.51873  0.51813  1.0000
  C   C1706     1.0  0.94823  0.54249  0.73776  1.0000
  C   C1707     1.0  0.97534  0.53111  0.81131  1.0000
  H   H3036     1.0  0.88338  0.53694  0.56341  1.0000
  H   H3037     1.0  0.96672  0.53737  0.80557  1.0000
  H   H3038     1.0  0.88932  0.56992  0.50947  1.0000
  H   H3039     1.0  0.97388  0.56253  0.67218  1.0000
  C   C1708     1.0  0.90300  0.52747  0.56407  1.0000
  C   C1709     1.0  0.91262  0.52071  0.54755  1.0000
  C   C1710     1.0  0.95824  0.53196  0.74655  1.0000
  H   H3040     1.0  0.96445  0.52536  0.85418  1.0000
  C   C1711     1.0  0.89086  0.53170  0.55106  1.0000
  H   H3041     1.0  0.92211  0.51746  0.55725  1.0000
  H   H3042     1.0  0.81099  0.50038  0.98101  1.0000
  H   H3043     1.0  0.81308  0.51623  0.92076  1.0000
  H   H3044     1.0  0.91789  0.51397  0.50529  1.0000
  H   H3045     1.0  0.84112  0.52877  0.93120  1.0000
  C   C1712     1.0  0.98891  0.54765  0.66744  1.0000
  C   C1713     1.0  0.88825  0.52932  0.52223  1.0000
  S   S383      1.0  0.90112  0.50282  0.74482  1.0000
  H   H3046     1.0  0.96285  0.56312  0.50240  1.0000
  H   H3047     1.0  0.95269  0.54870  0.71660  1.0000
  H   H3048     1.0  0.81493  0.52683  0.95304  1.0000
  H   H3049     1.0  0.83601  0.50731  0.93161  1.0000
  C   C1714     1.0  0.91230  0.56881  0.49354  1.0000
  H   H3050     1.0  0.93410  0.55582  0.50856  1.0000
  S   S384      1.0  0.90100  0.49746  0.65837  1.0000
  C   C1715     1.0  0.98008  0.52266  0.78577  1.0000
  C   C1716     1.0  0.81624  0.51606  0.94323  1.0000
  H   H3051     1.0  0.91098  0.55853  0.50882  1.0000
  H   H3052     1.0  0.78726  0.50962  0.92177  1.0000
  H   H3053     1.0  0.87876  0.53270  0.51281  1.0000
  H   H3054     1.0  0.96121  0.50522  0.48944  1.0000
  C   C1717     1.0  0.98601  0.56224  0.67042  1.0000
  C   C1718     1.0  0.89809  0.52319  0.50531  1.0000
  H   H3055     1.0  0.94820  0.53850  0.53171  1.0000
  H   H3056     1.0  0.95263  0.52531  0.76676  1.0000
  H   H3057     1.0  0.83794  0.51725  0.96470  1.0000
  H   H3058     1.0  0.97588  0.51266  0.84332  1.0000
  C   C1719     1.0  0.83388  0.51739  0.94275  1.0000
  H   H3059     1.0  0.96956  0.51246  0.78087  1.0000
  C   C1720     1.0  0.95400  0.53782  0.51063  1.0000
  H   H3060     1.0  0.97382  0.60217  0.50561  1.0000
  C   C1721     1.0  0.96758  0.51902  0.83607  1.0000
  N   N95       1.0  0.98690  0.53328  0.75938  1.0000
  H   H3061     1.0  0.77161  0.50950  0.98049  1.0000
  H   H3062     1.0  0.95646  0.51014  0.82967  1.0000
  H   H3063     1.0  0.95742  0.52320  0.73002  1.0000
  H   H3064     1.0  0.94672  0.58368  0.50034  1.0000
  H   H3065     1.0  0.94852  0.55151  0.75364  1.0000
  H   H3066     1.0  0.78919  0.52305  0.96395  1.0000
  N   N96       1.0  0.78813  0.49819  0.96318  1.0000
  H   H3067     1.0  0.97765  0.51385  0.73184  1.0000
  H   H3068     1.0  0.98622  0.54775  0.60168  1.0000
  C   C1722     1.0  0.97583  0.54223  0.74967  1.0000
  C   C1723     1.0  0.98916  0.52293  0.73598  1.0000
  C   C1724     1.0  0.78211  0.49779  0.93359  1.0000
  C   C1725     1.0  0.95545  0.55271  0.49148  1.0000
  C   C1726     1.0  0.80579  0.50053  0.96009  1.0000
  H   H3069     1.0  0.97585  0.55192  0.76407  1.0000
  H   H3070     1.0  0.98601  0.54001  0.81905  1.0000
  C   C1727     1.0  0.78468  0.51178  0.97767  1.0000
  H   H3071     1.0  0.98020  0.54855  0.72853  1.0000
  H   H3072     1.0  0.98885  0.51700  0.79354  1.0000
  C   C1728     1.0  0.89549  0.56930  0.48873  1.0000
