data_image0
_chemical_formula_structural       SC3HSCHC3H2C2H9CHCH4CHCHCHCH5NCH3CH2C6H2C2HCHCH2C3H6CHCHSNH3CH2FeSH3FeSFeS3FeS2CSHC2HCH4CH4C5H4CH2C6HC2HNSHFeHFeCH5CH2FeCSH2S2C2HFeHC2H11CHSNSCH4CH2CH2SFeS2FeS2FeS2FeSFeS3HCHC2H5FeS2FeHSFeSFeHS2FeSCHSHFeSFeS2HC3H8C2HC6H4C6H8CHC6H4C3FeC2HCH2CH3CHC7H4CH4CH2CHNH2C2H3NC7HC2HC2H11CH3CH2CH3C2HCHCHCH2CH2CH2CH3FeC2H4C2HC5H10CHNCHC6NC2H19CHCH6NC6HC3H13CH3CH9CH4C3HNCH6CH3C2HSH2CH2CH3SHCH3CH6SHCHCH2SCHC2HSHCHSHCH2FeCH5CHC2H3CH2CH3CHCH2C2SHCNHCHNH3CH4CSHCHC2H3CHCH3CFeC3H3CHCHNH2C2H2CHCHFe2HCH2CH2CH4CFeH2SCHCH3SCHNHC2H2CH2C2HSH3CH2C2H4C2H4CH4CH2CFeH4CH2SC3H3FeH2CSH7CHCH2CSC2HC3H3CH4CHCFeC2H2CFeSHSH5SHCH3CHFeS2FeSCFeSFeS4H2SHCHFeHS2C2HSC2HCH2C6H4C6H4SH2C3H5CH3C2H2C6H5FeSFe2H2CSC3H3CFeSH3CH2NCNC12H24FeH3NH2CH2CH3C2HCH3SCH2SHCH4CH3C4H5NC12H29NC3H2C3HCH8SHCH2C2HCH5SHFeH2CSHCH8C4H4CH4CHC2H5CHCH4C2HCH3CFeHSHCHC2H2SH2CHCH2CH3FeC2H2CSHCHSHCH4CHC3SH2CH7CH2FeSHCH2CH3C2SNFeSFeS2FeS2FeSFeS3FeS2FeSHFeSFeS3CNC2HC7H4C3HCH12CHC6H2C7H8FeC3H2SH2CHCH2C2HFeCH4CH2CH2CH8CH4C3HC5H3CH2SHCHC3HC2H3CHCHC2SCH5CFeC2H5CSHCH4CH2CHCH2CHCHCH3SH4CNC2HCH6CHCSH3FeH2CH2SHC2HC2HCH4C2H2FeH2CH5CSCHNHCNCH5CHC3H3C2H5C2SH2CHCHCH7CHCH5SC2NCH5FeH3NCH7C3H4FeSHCH3C4H6CHSH2NHSH8CH5C2HCH5SC2HC2HSFeS2FeSFeS3FeSHFeS2FeSFeCS3HCHNH6C2H6CHC2HC6H4C2FeHCH10C6H4C6H3CHCHFeC3H2CH3SH2C3FeCH3CH2CH2C2NC2HC3HC4H5C2H7CH11CFeCHNC11H13C2H12CSH2CH2CSNH2CH9C3HNH2SCH3C2H2CHCH3CSH2CH2CH11CH7C3HCH2CHSHCHFeSCH2SFeSC2HCHSH2FeCH2CH5NH2CH3CH2C4H2Fe2H5SHSH2C7H7SH3CH2C2H3CHC4H3SH3CHNHC2HC2H2C2H5CFeH4CSC5H2CHCH2C3HCH3CFeSHCHC2H2NH2SH4SHCHC2H2CSCH2SCH4CHFeH5C2HCH4CH3CHCHC2H3CH5CH2CNH2CH2SHFeS2FeS2FeSFeHS2FeS2FeS2FeSFeS3CH2C3HSCSC6H4C3HC2H4C6H4C6H7C4H3C6H2CNC12H31C2H2CHCH3CSCH3SHCH2C2H7NCH2C2H2S2CNCH2CHC2H6CHSCHCH5CH2CFeCH4CH6CH6FeH3CH5CH4CH2C2HC2NC6HCH15CH2CH2CHNHCH5SC2H2CH4CHCFeCH3C3HC2H2CH2C2H4CH9SH2C3H4FeH2CH3CH2CH2CSHFeS2HSHFeSFeHS2FeS2FeS2FeHFeS3FeS2FeS2FeSFeS3HCHC7H4C3H16C7H4C2H4CH2CFeHCHC2HCHC6H3CNC10H24C2H3CNC12H28C2H5NC9HC2H8CH7C4H8SH5NH2CHNHCH5CHCHCH3CHCH4CHCH3CH5NCH2CH4C4H3C2H3CHSH3CH3CH2C2H2S3CHCHC2H2CH4CH4CNCHCHC2HCH2C3H8C2SHC4H7CHFeC4HCH3NHCH6C3H2CH4CH2CH4CH2CH3C2SH5NC2H2CH3CH4CH3CH2SCHCH2CH4FeS2HCHSHFeS2FeS2FeSFeS3HCHSFeS2FeSFeCS2C6H4CH2FeHC7H4C6HSH2C5H2C6H4C2HCH4CH2CSHFeHCHC2H2C2H2C3SH2NCH4NSH6CH3CH2CH3NCHSHC2H3CH3C3H3CH2CH2C4H8C3NC6NC4H14CH5CH13SH18FeHSHCHC3H3SH4CHCHC3HCHCH2C2H2C2HCHC2H5CH6NHCH4C3HCH2C2H9CHSH3C2H3C2HCH2C2H4CH6CH5CHCH2CH2CHFeCHCHSHFeHS2CSHSHCSHSHCHSH2C6H3FeNFeCH5FeSHCH2CHCFeH5FeCH3CH2CHCH2C2SHFeS2FeSHFeSFeS3CSC6H4C5HCHC6H4NH3C2H2CH2CH3CH2CH2CHCHSH10CH2CH2CH5C3SHCHC2H3CH2CH2C2H4CHCH6CH7CH3CHC2HC5NCHCHCHCH2CH2CHCHC2H8C2NH2CH2CHSCHCNHC2HCHCH7CNCH8CH8CHCH2CH5CH2CHCHCH2CH4CH3SHFeC2H2C2H3SFeCHCSC2H5CHSFeHCH3S2CHCH2CH4C3SH2CH2CNFeS2FeS2FeSFeS5H2NHC2H2CHCH2C4H3CHCH2C6H4C4H8C4HC2HNHCH4CH2SHCSH2SH2C2HC3HCHNH2CHCHNC10HCH24CH8FeC2H2CHCHCHCH2C2HC2H3C4HCH6CHCSHC2H10CHCH6CHFeH2CHSH2FeHFeSFeS2FeS2FeS2FeSFeS3FeS2CS2HSHFeC2HFeHSH3FeCS2C3H2FeCH3CH4SH2CHSC6H3FeC6H4C6H4CH2C2HC6H5CHC3H2SHNC8HC3H7NH12C2H8FeCH3CHCH2FeH2CH4CH2CHCHCHCH2CH7FeH2SCNC11H25C3H4C3HFeH2FeCH2SH8SHSH2C2SC2H11CH2CHCH2SHSCHCSC4HNCSC4H2C3H2SH10SH7SH2NC12H17CH6CH2CH4CHSCSC3H4CH2FeH2C3H4NHCH7CH2CHSNC4FeCH2CH4CH2C2H2CH3CH5CH2CH3CHCHCHNFeH3NH2C3H2C2SH5C2H3CHCHNH2CHC2H3CHC3HC2HCHCH2C2H4CH3C3HCH6SCH6C5H2SCH9CSCH3CSCFeHCH7CH2SHCH2CH3FeH2CH3S2H5C2FeCSH5CFeS2FeSHFeSFeS3HFeCSFeH2FeSHSHC6H4C6H5C6H2NHCH2C3HSC6H11CH4C5HS2H2CH7FeH12CHNC7H16CH3C3FeH7C2HC2H3SCHSC3NH3CHSHCHC2H2SH4CHCH5CHCH4SCNCHFeHCSCH4FeSHSCHCH2C2NC8H3CHCH6CH10SH5C2SNH2CH3SCHC2HCH8CH6NHC3HC2H3S2CH2CH5C3HSHCSCH6CH2CH2CH3C2HCHFeH4CH3CH4CFeCSCH4C4H5CSCHCSHCHCH4CFeSHCHNH2SHFeS2FeSHFeSFeS3FeS2FeSHFeSFeS3C2H3CH2CHFeC6H4CNH2CSHC6FeH2C7H5CH2CSCH5CHCSCHFeH6CH4NC2HC2HC2H4CH2CH2FeCH10NC8H13C2H3SH4FeSC3HCSH4FeCHCNH3FeH5C2H2SH3SHC2H2CHC4H3CH4CH4CH3CH6C2H7C3FeH3CHCHCSHCH2CSC2H4C4H3CHSCH2CHCH2CH2CHCH9C2HCHCH4SHC3H4CH4SCH3FeSFeS2FeS5FeS2CHFeNCH3CHCH5CH4CH4C2FeH2SCH2NH2CH3C6HFeH3CHC2HC2H3C6H5FeCH2C4H4C2H6CH3SH6CHC6H4NH5S2H2CH3C2H3CH5CH2C2FeH5CHCH5CH2C2H3CN2C7H8FeHCH6C2S2H4SHCNHC2HCSC2SH2CH3C2FeCHCH2S2H3NC10H17CH7CH2CHSH2CHCHCHSC3HCHCHNCH4CH2CHCHCHC2H3C3H2NCH5C2H5CH2CH2CH2CHFeCH7CHC2H2SH5CH2FeH2CSH2C2H2C2H3C2H2SH2CH3NHFeC2S2HCH2CH2CH2SHC6H4CHC5SH2CSHC2SH2Fe2H2CHC3HNHC2S2H2CH3S3CH3C4H6C2FeHSHCH2C2H7SC2H6CH3CH6C3H4CH2CHSC2NCHCH2C3H2NFeH3CH5CH3C2H3CH2SFeS2HSHFe2S3FeS2FeS2FeCFeS3CSH3C3FeC7H4C6H5C6H2SH2CH2SC2H4C4NH3CFeHFeH3CH9SH2SH3CH4C2H3CH2NHFeHSCSH4CHCHCH4CH6C2H4CHCH2C2H2CHCHCH7CH4NHCH5C3NHNH2CH2C3H6C2H2CH3C6HCHFeHFeHSH6C2HCFeS2FeS2FeSFeS3FeS2FeS2FeSFeS3FeCSFeS2FeHCHS2CHCH3CH2FeCH2C6H9C6H4C2H2NH7NCH2CHC7H5CH2CH3C3HCH2CH3CHCH2CH2CH5SHCH4CSHS2H3CH7CH4CH4C3H6CH4C2H6NC3HC4H2C2H3C2NH2C2HNC2HCH3CHCH2C2H3CHCHNH2C2H5C3H2C2HCH4CHCHCHC2H2C2HSC2H2C2H5C3H3CHCH5CHCHCHCHCHCH4C2H2CH2CHCH2CH2C3H3CHCHCHSH4CHCH8CNH2C2HCH6CHC2HC2FeH3CHCH2CH5C3H6CH7CHC2HSHCH5CH3CH2CHCHSFeS2FeHFeS2CFeS2FeS3CH3CH4CHCH4CSH4CHFeC3HS2CHCSH5C2HC2H3CHFeC6H5C7H4C6H5C3H6C2H3CH2CH2SNC3H2C3HC2H6CH2C2H3CH6CH9C5H12CNCSC4H2CNHCH17CSHC2NC2H8CH6C2H4C2HC2HC3H2CHCH2NC9FeCNH7SH10SH8FeHC5H4CHCHC2SCH2SNSNH3SCHC5HC2H4C2H6CSCH6CHC2H2CHCH8CH3CHCHSFeH2C4H2CH5CFeH2CH5CH4CH2CHCH10C2H3FeCH5C3FeSHCSC3NC2H4C4H4C2HC3HCH5SC2HSH5CHCHCSH2SH4CH3CFeC2HC2HC3HC2H7CH2CHFeCHSH5C2SH2CH3CFeSCH2C3H8CH2CH4CHNH3SH2C2H2FeHCFeS2FeS2FeSFeCS2CSC6H4C6H6C2H3C2H10CH5CH3CH2CFeH10C2H2C4H4CH2CHC2H2NH6SH2C2H2C3H4NH3CH2CNCH4C4HNC2H4CHCH2C2H3C2H4CH2CH3C2H
_chemical_formula_sum              "S512 C2304 H4096 N128 Fe256"
_cell_length_a       59.3975
_cell_length_b       59.7588
_cell_length_c       101.28
_cell_angle_alpha    78.8116
_cell_angle_beta     78.7335
_cell_angle_gamma    77.5518

_space_group_name_H-M_alt    "P 1"
_space_group_IT_number       1

loop_
  _space_group_symop_operation_xyz
  'x, y, z'

loop_
  _atom_site_type_symbol
  _atom_site_label
  _atom_site_symmetry_multiplicity
  _atom_site_fract_x
  _atom_site_fract_y
  _atom_site_fract_z
  _atom_site_occupancy
  S   S1        1.0  0.14145  0.31533  0.99476  1.0000
  C   C1        1.0  0.21326  0.99876  0.99469  1.0000
  C   C2        1.0  0.15190  0.02413  0.01092  1.0000
  C   C3        1.0  0.06764  0.05014  0.02122  1.0000
  H   H1        1.0  0.05776  0.04154  0.99226  1.0000
  S   S2        1.0  0.15597  0.06817  0.99766  1.0000
  C   C4        1.0  0.06524  0.16316  0.99944  1.0000
  H   H2        1.0  0.26724  0.02037  0.00664  1.0000
  C   C5        1.0  0.08074  0.01097  0.98545  1.0000
  C   C6        1.0  0.02207  0.08246  0.99203  1.0000
  C   C7        1.0  0.15078  0.03983  0.99868  1.0000
  H   H3        1.0  0.05644  0.25778  0.01269  1.0000
  H   H4        1.0  0.16587  0.99589  0.04423  1.0000
  C   C8        1.0  0.06810  0.29402  0.98581  1.0000
  C   C9        1.0  0.99529  0.30603  0.03113  1.0000
  H   H5        1.0  0.01296  0.02887  0.00830  1.0000
  H   H6        1.0  0.07020  0.10724  0.98527  1.0000
  H   H7        1.0  0.02659  0.14318  0.00198  1.0000
  H   H8        1.0  0.04285  0.23236  0.01604  1.0000
  H   H9        1.0  0.02092  0.21055  0.98370  1.0000
  H   H10       1.0  0.00714  0.28040  0.05502  1.0000
  H   H11       1.0  0.04971  0.05680  0.04141  1.0000
  H   H12       1.0  0.04384  0.25057  0.99963  1.0000
  H   H13       1.0  0.03712  0.04706  0.01398  1.0000
  C   C10       1.0  0.14519  0.99370  0.00017  1.0000
  H   H14       1.0  0.04205  0.02740  0.02892  1.0000
  C   C11       1.0  0.14632  0.03242  0.98734  1.0000
  H   H15       1.0  0.99548  0.25836  0.07895  1.0000
  H   H16       1.0  0.29491  0.00066  0.00537  1.0000
  H   H17       1.0  0.03899  0.07762  0.02747  1.0000
  H   H18       1.0  0.99982  0.99106  0.01342  1.0000
  C   C12       1.0  0.05658  0.31165  0.99331  1.0000
  H   H19       1.0  0.22705  0.00922  0.99359  1.0000
  C   C13       1.0  0.08271  0.00022  0.01629  1.0000
  H   H20       1.0  0.00253  0.24026  0.05794  1.0000
  C   C14       1.0  0.04442  0.00178  0.01015  1.0000
  H   H21       1.0  0.08311  0.03960  0.02549  1.0000
  C   C15       1.0  0.02338  0.01461  0.00291  1.0000
  H   H22       1.0  0.15510  0.02982  0.01978  1.0000
  H   H23       1.0  0.06607  0.14653  0.00665  1.0000
  H   H24       1.0  0.05877  0.17793  0.00520  1.0000
  H   H25       1.0  0.03001  0.26681  0.03449  1.0000
  H   H26       1.0  0.23099  0.00495  0.01622  1.0000
  N   N1        1.0  0.06241  0.01605  0.01038  1.0000
  C   C16       1.0  0.02108  0.31259  0.98472  1.0000
  H   H27       1.0  0.03846  0.09817  0.00412  1.0000
  H   H28       1.0  0.08606  0.03612  0.99651  1.0000
  H   H29       1.0  0.00455  0.25875  0.01236  1.0000
  C   C17       1.0  0.05488  0.06671  0.03118  1.0000
  H   H30       1.0  0.03264  0.30546  0.02367  1.0000
  H   H31       1.0  0.08610  0.28632  0.98654  1.0000
  C   C18       1.0  0.14343  0.00952  0.98811  1.0000
  C   C19       1.0  0.05117  0.03484  0.01887  1.0000
  C   C20       1.0  0.04183  0.25058  0.01076  1.0000
  C   C21       1.0  0.07141  0.02737  0.99624  1.0000
  C   C22       1.0  0.03292  0.32057  0.99300  1.0000
  C   C23       1.0  0.01393  0.26446  0.03123  1.0000
  H   H32       1.0  0.06659  0.07829  0.03215  1.0000
  H   H33       1.0  0.07386  0.06085  0.01149  1.0000
  C   C24       1.0  0.04951  0.16397  0.98901  1.0000
  C   C25       1.0  0.01889  0.31278  0.03163  1.0000
  H   H34       1.0  0.02912  0.02205  0.99218  1.0000
  C   C26       1.0  0.14918  0.00104  0.01166  1.0000
  H   H35       1.0  0.09792  0.00910  0.01460  1.0000
  C   C27       1.0  0.01837  0.26545  0.01554  1.0000
  H   H36       1.0  0.09577  0.99764  0.98847  1.0000
  H   H37       1.0  0.08321  0.16443  0.99411  1.0000
  C   C28       1.0  0.27683  0.00336  0.01111  1.0000
  C   C29       1.0  0.03948  0.09299  0.99434  1.0000
  C   C30       1.0  0.00697  0.99816  0.00283  1.0000
  H   H38       1.0  0.19720  0.00757  0.00048  1.0000
  H   H39       1.0  0.01844  0.28335  0.01016  1.0000
  H   H40       1.0  0.01205  0.24625  0.03552  1.0000
  H   H41       1.0  0.19330  0.99545  0.02191  1.0000
  H   H42       1.0  0.02482  0.30622  0.04161  1.0000
  H   H43       1.0  0.01906  0.17288  0.00408  1.0000
  C   C31       1.0  0.02444  0.16123  0.99621  1.0000
  H   H44       1.0  0.99525  0.13183  0.99526  1.0000
  C   C32       1.0  0.07776  0.99021  0.03168  1.0000
  H   H45       1.0  0.07237  0.00417  0.03806  1.0000
  S   S3        1.0  0.99686  0.08057  0.00400  1.0000
  N   N2        1.0  0.00563  0.16513  0.98740  1.0000
  H   H46       1.0  0.00296  0.31993  0.98438  1.0000
  H   H47       1.0  0.27777  0.00373  0.02191  1.0000
  H   H48       1.0  0.03678  0.99498  0.02073  1.0000
  C   C33       1.0  0.05734  0.09830  0.98363  1.0000
  H   H49       1.0  0.14988  0.98908  0.02111  1.0000
  H   H50       1.0  0.06702  0.00203  0.98409  1.0000
  Fe  Fe1       1.0  0.43000  0.05523  0.44259  1.0000
  S   S4        1.0  0.43538  0.07113  0.42041  1.0000
  H   H51       1.0  0.46427  0.16044  0.45163  1.0000
  H   H52       1.0  0.48345  0.28930  0.46902  1.0000
  H   H53       1.0  0.42631  0.05206  0.36625  1.0000
  Fe  Fe2       1.0  0.45911  0.09028  0.42700  1.0000
  S   S5        1.0  0.46295  0.12791  0.41934  1.0000
  Fe  Fe3       1.0  0.46629  0.04177  0.41868  1.0000
  S   S6        1.0  0.48144  0.01802  0.40295  1.0000
  S   S7        1.0  0.45141  0.07622  0.44920  1.0000
  S   S8        1.0  0.45858  0.02439  0.44025  1.0000
  Fe  Fe4       1.0  0.42465  0.24805  0.44618  1.0000
  S   S9        1.0  0.43454  0.25301  0.46569  1.0000
  S   S10       1.0  0.40883  0.21599  0.44715  1.0000
  C   C34       1.0  0.37695  0.02804  0.47916  1.0000
  S   S11       1.0  0.40597  0.28532  0.44186  1.0000
  H   H54       1.0  0.47158  0.20094  0.47035  1.0000
  C   C35       1.0  0.45747  0.16956  0.47183  1.0000
  C   C36       1.0  0.40838  0.28832  0.39271  1.0000
  H   H55       1.0  0.46340  0.16273  0.48182  1.0000
  C   C37       1.0  0.46393  0.00095  0.39870  1.0000
  H   H56       1.0  0.40404  0.29968  0.41192  1.0000
  H   H57       1.0  0.48454  0.12426  0.44441  1.0000
  H   H58       1.0  0.36971  0.31834  0.42516  1.0000
  H   H59       1.0  0.46085  0.01411  0.35214  1.0000
  C   C38       1.0  0.43961  0.00745  0.40042  1.0000
  H   H60       1.0  0.48988  0.29863  0.42170  1.0000
  H   H61       1.0  0.30340  0.31039  0.41082  1.0000
  H   H62       1.0  0.45658  0.12655  0.47954  1.0000
  H   H63       1.0  0.43110  0.02242  0.40524  1.0000
  C   C39       1.0  0.44745  0.15195  0.42735  1.0000
  C   C40       1.0  0.45290  0.17401  0.42202  1.0000
  C   C41       1.0  0.42404  0.19143  0.43953  1.0000
  C   C42       1.0  0.41830  0.16940  0.44480  1.0000
  C   C43       1.0  0.43007  0.14970  0.43882  1.0000
  H   H64       1.0  0.40470  0.16758  0.45355  1.0000
  H   H65       1.0  0.42547  0.13288  0.44295  1.0000
  H   H66       1.0  0.44515  0.21059  0.42367  1.0000
  H   H67       1.0  0.46597  0.17600  0.41301  1.0000
  C   C44       1.0  0.39743  0.03347  0.47093  1.0000
  H   H68       1.0  0.41096  0.00647  0.44042  1.0000
  H   H69       1.0  0.45471  0.01459  0.36978  1.0000
  C   C45       1.0  0.45507  0.19587  0.46948  1.0000
  C   C46       1.0  0.44130  0.19360  0.42808  1.0000
  C   C47       1.0  0.41458  0.02665  0.35839  1.0000
  C   C48       1.0  0.41900  0.02457  0.47544  1.0000
  C   C49       1.0  0.47438  0.15866  0.46006  1.0000
  C   C50       1.0  0.46670  0.11994  0.47019  1.0000
  H   H70       1.0  0.48893  0.09013  0.48097  1.0000
  C   C51       1.0  0.47004  0.05366  0.37002  1.0000
  C   C52       1.0  0.48034  0.08006  0.38394  1.0000
  H   H71       1.0  0.43490  0.02888  0.46917  1.0000
  N   N3        1.0  0.47678  0.03869  0.35888  1.0000
  S   S12       1.0  0.45257  0.30010  0.44861  1.0000
  H   H72       1.0  0.45064  0.20337  0.45919  1.0000
  Fe  Fe5       1.0  0.44071  0.29292  0.43054  1.0000
  H   H73       1.0  0.47335  0.03252  0.33220  1.0000
  Fe  Fe6       1.0  0.41906  0.29057  0.46021  1.0000
  C   C53       1.0  0.42635  0.99530  0.39523  1.0000
  H   H74       1.0  0.44226  0.28932  0.48181  1.0000
  H   H75       1.0  0.48178  0.08466  0.46563  1.0000
  H   H76       1.0  0.43985  0.16541  0.47248  1.0000
  H   H77       1.0  0.33851  0.31369  0.41916  1.0000
  H   H78       1.0  0.48529  0.20433  0.43171  1.0000
  C   C54       1.0  0.40573  0.99325  0.44919  1.0000
  H   H79       1.0  0.46276  0.04359  0.37976  1.0000
  H   H80       1.0  0.40761  0.00095  0.39613  1.0000
  Fe  Fe7       1.0  0.46708  0.26210  0.45233  1.0000
  C   C55       1.0  0.47494  0.09350  0.47465  1.0000
  S   S13       1.0  0.39530  0.05126  0.45507  1.0000
  H   H81       1.0  0.46557  0.06905  0.34449  1.0000
  H   H82       1.0  0.46846  0.07277  0.31954  1.0000
  S   S14       1.0  0.45825  0.25529  0.43310  1.0000
  S   S15       1.0  0.39830  0.31479  0.47455  1.0000
  C   C56       1.0  0.43281  0.04148  0.35794  1.0000
  C   C57       1.0  0.48980  0.06434  0.37308  1.0000
  H   H83       1.0  0.45385  0.12214  0.46312  1.0000
  Fe  Fe8       1.0  0.48077  0.04674  0.44483  1.0000
  H   H84       1.0  0.44092  0.20318  0.47725  1.0000
  C   C58       1.0  0.48079  0.05458  0.34545  1.0000
  C   C59       1.0  0.45695  0.02605  0.35974  1.0000
  H   H85       1.0  0.39752  0.03805  0.35696  1.0000
  H   H86       1.0  0.41991  0.01574  0.35019  1.0000
  H   H87       1.0  0.43977  0.08575  0.47755  1.0000
  H   H88       1.0  0.45573  0.06846  0.36759  1.0000
  H   H89       1.0  0.36030  0.03484  0.47572  1.0000
  H   H90       1.0  0.41222  0.01520  0.36841  1.0000
  H   H91       1.0  0.41281  0.26978  0.39730  1.0000
  H   H92       1.0  0.43378  0.05318  0.34799  1.0000
  H   H93       1.0  0.42495  0.29486  0.38864  1.0000
  H   H94       1.0  0.37795  0.29449  0.40785  1.0000
  H   H95       1.0  0.39860  0.28949  0.38423  1.0000
  C   C60       1.0  0.48627  0.04328  0.33241  1.0000
  H   H96       1.0  0.48394  0.21523  0.41386  1.0000
  S   S16       1.0  0.44655  0.31807  0.41086  1.0000
  N   N4        1.0  0.48580  0.13370  0.46377  1.0000
  S   S17       1.0  0.49071  0.06228  0.42315  1.0000
  C   C61       1.0  0.39363  0.30222  0.40359  1.0000
  H   H97       1.0  0.47251  0.07015  0.39354  1.0000
  H   H98       1.0  0.46691  0.09486  0.38037  1.0000
  H   H99       1.0  0.49067  0.05317  0.31040  1.0000
  H   H100      1.0  0.38996  0.00155  0.45560  1.0000
  C   C62       1.0  0.48609  0.06173  0.31963  1.0000
  H   H101      1.0  0.34459  0.31064  0.40128  1.0000
  H   H102      1.0  0.48757  0.16985  0.45583  1.0000
  C   C63       1.0  0.45489  0.08207  0.48309  1.0000
  H   H103      1.0  0.37142  0.08868  0.48290  1.0000
  H   H104      1.0  0.23254  0.14581  0.69177  1.0000
  S   S18       1.0  0.14488  0.27302  0.71067  1.0000
  Fe  Fe9       1.0  0.10838  0.27144  0.70886  1.0000
  S   S19       1.0  0.09509  0.23829  0.71271  1.0000
  S   S20       1.0  0.10880  0.29353  0.68837  1.0000
  Fe  Fe10      1.0  0.13477  0.14166  0.67395  1.0000
  S   S21       1.0  0.12402  0.12116  0.66075  1.0000
  S   S22       1.0  0.14162  0.17804  0.66662  1.0000
  Fe  Fe11      1.0  0.13961  0.10107  0.69736  1.0000
  S   S23       1.0  0.12957  0.07678  0.68598  1.0000
  S   S24       1.0  0.14413  0.09611  0.71942  1.0000
  Fe  Fe12      1.0  0.15321  0.09317  0.66797  1.0000
  S   S25       1.0  0.18017  0.07650  0.65179  1.0000
  Fe  Fe13      1.0  0.10129  0.10678  0.67968  1.0000
  S   S26       1.0  0.06149  0.11077  0.68353  1.0000
  S   S27       1.0  0.16506  0.11492  0.68000  1.0000
  S   S28       1.0  0.11016  0.12967  0.69231  1.0000
  H   H105      1.0  0.48834  0.04835  0.56171  1.0000
  C   C64       1.0  0.19346  0.22243  0.70485  1.0000
  H   H106      1.0  0.08289  0.23342  0.62327  1.0000
  C   C65       1.0  0.32951  0.11545  0.71214  1.0000
  C   C66       1.0  0.40407  0.19462  0.69590  1.0000
  H   H107      1.0  0.09136  0.08972  0.63735  1.0000
  H   H108      1.0  0.30987  0.99068  0.60624  1.0000
  H   H109      1.0  0.22036  0.20699  0.66057  1.0000
  H   H110      1.0  0.14972  0.22903  0.73051  1.0000
  H   H111      1.0  0.34544  0.99478  0.52773  1.0000
  Fe  Fe14      1.0  0.35575  0.11146  0.61742  1.0000
  S   S29       1.0  0.38147  0.07828  0.61488  1.0000
  S   S30       1.0  0.36648  0.14636  0.60982  1.0000
  Fe  Fe15      1.0  0.31624  0.08648  0.63324  1.0000
  H   H112      1.0  0.35282  0.22999  0.66435  1.0000
  S   S31       1.0  0.28305  0.09413  0.64846  1.0000
  Fe  Fe16      1.0  0.36703  0.06608  0.63672  1.0000
  S   S32       1.0  0.38608  0.04767  0.65416  1.0000
  Fe  Fe17      1.0  0.35125  0.06618  0.60991  1.0000
  H   H113      1.0  0.29569  0.13709  0.70912  1.0000
  S   S33       1.0  0.34422  0.10013  0.63956  1.0000
  S   S34       1.0  0.32621  0.10049  0.61102  1.0000
  Fe  Fe18      1.0  0.30097  0.30505  0.65341  1.0000
  S   S35       1.0  0.31849  0.27016  0.66226  1.0000
  C   C67       1.0  0.44672  0.20312  0.71967  1.0000
  H   H114      1.0  0.34191  0.05630  0.55352  1.0000
  S   S36       1.0  0.35678  0.26950  0.63410  1.0000
  H   H115      1.0  0.46474  0.26206  0.65666  1.0000
  Fe  Fe19      1.0  0.32154  0.25971  0.64187  1.0000
  S   S37       1.0  0.31048  0.22514  0.64368  1.0000
  Fe  Fe20      1.0  0.35214  0.28248  0.65409  1.0000
  S   S38       1.0  0.37852  0.26994  0.66842  1.0000
  S   S39       1.0  0.30122  0.29403  0.63342  1.0000
  H   H116      1.0  0.37895  0.30489  0.57519  1.0000
  C   C68       1.0  0.38362  0.08209  0.49041  1.0000
  C   C69       1.0  0.35758  0.01542  0.53951  1.0000
  C   C70       1.0  0.06796  0.22498  0.62326  1.0000
  H   H117      1.0  0.43632  0.00734  0.58793  1.0000
  H   H118      1.0  0.09804  0.26850  0.66367  1.0000
  H   H119      1.0  0.06828  0.22221  0.61269  1.0000
  H   H120      1.0  0.41721  0.31971  0.53693  1.0000
  H   H121      1.0  0.44915  0.08850  0.49301  1.0000
  H   H122      1.0  0.04525  0.24665  0.70545  1.0000
  H   H123      1.0  0.35498  0.28098  0.59224  1.0000
  H   H124      1.0  0.22966  0.07692  0.71120  1.0000
  C   C71       1.0  0.38949  0.28978  0.67501  1.0000
  C   C72       1.0  0.40277  0.28135  0.68553  1.0000
  H   H125      1.0  0.40470  0.26327  0.69008  1.0000
  C   C73       1.0  0.35001  0.16903  0.61839  1.0000
  C   C74       1.0  0.32959  0.16590  0.62749  1.0000
  C   C75       1.0  0.31752  0.18344  0.63504  1.0000
  C   C76       1.0  0.32567  0.20428  0.63346  1.0000
  C   C77       1.0  0.34589  0.20766  0.62419  1.0000
  C   C78       1.0  0.35798  0.19007  0.61661  1.0000
  H   H126      1.0  0.32322  0.14983  0.62880  1.0000
  H   H127      1.0  0.30187  0.18076  0.64219  1.0000
  H   H128      1.0  0.35225  0.22372  0.62289  1.0000
  H   H129      1.0  0.37374  0.19260  0.60952  1.0000
  C   C79       1.0  0.40683  0.06237  0.65713  1.0000
  C   C80       1.0  0.41535  0.07941  0.64705  1.0000
  C   C81       1.0  0.43234  0.09061  0.64940  1.0000
  C   C82       1.0  0.44029  0.08551  0.66198  1.0000
  C   C83       1.0  0.43179  0.06845  0.67210  1.0000
  C   C84       1.0  0.41518  0.05679  0.66963  1.0000
  H   H130      1.0  0.42426  0.28937  0.69818  1.0000
  H   H131      1.0  0.43818  0.06412  0.68174  1.0000
  H   H132      1.0  0.40876  0.04348  0.67742  1.0000
  H   H133      1.0  0.24159  0.16519  0.72013  1.0000
  H   H134      1.0  0.20048  0.16288  0.62723  1.0000
  H   H135      1.0  0.39960  0.16027  0.62521  1.0000
  H   H136      1.0  0.36261  0.11272  0.68256  1.0000
  H   H137      1.0  0.36372  0.27503  0.72506  1.0000
  C   C85       1.0  0.42641  0.28911  0.63504  1.0000
  H   H138      1.0  0.19042  0.08048  0.70504  1.0000
  C   C86       1.0  0.20950  0.07941  0.65094  1.0000
  C   C87       1.0  0.22489  0.07974  0.63846  1.0000
  C   C88       1.0  0.24790  0.08338  0.63752  1.0000
  C   C89       1.0  0.25570  0.08637  0.64913  1.0000
  C   C90       1.0  0.24062  0.08502  0.66166  1.0000
  C   C91       1.0  0.21765  0.08166  0.66257  1.0000
  H   H139      1.0  0.21880  0.07773  0.62944  1.0000
  H   H140      1.0  0.25937  0.08439  0.62780  1.0000
  H   H141      1.0  0.24669  0.08673  0.67075  1.0000
  H   H142      1.0  0.20631  0.08057  0.67232  1.0000
  C   C92       1.0  0.04236  0.10267  0.67467  1.0000
  C   C93       1.0  0.01883  0.11388  0.67615  1.0000
  C   C94       1.0  0.36123  0.27611  0.58191  1.0000
  Fe  Fe21      1.0  0.47886  0.14075  0.69799  1.0000
  C   C95       1.0  0.03393  0.07987  0.65941  1.0000
  C   C96       1.0  0.04983  0.08552  0.66634  1.0000
  H   H143      1.0  0.01290  0.12715  0.68260  1.0000
  C   C97       1.0  0.44045  0.20043  0.67852  1.0000
  H   H144      1.0  0.03985  0.06663  0.65293  1.0000
  H   H145      1.0  0.06784  0.07662  0.66522  1.0000
  C   C98       1.0  0.35942  0.07145  0.71989  1.0000
  H   H146      1.0  0.32085  0.01579  0.60768  1.0000
  H   H147      1.0  0.08684  0.19088  0.62929  1.0000
  H   H148      1.0  0.07076  0.20534  0.64316  1.0000
  C   C99       1.0  0.21756  0.29457  0.66118  1.0000
  H   H149      1.0  0.33741  0.06275  0.67539  1.0000
  C   C100      1.0  0.45873  0.23444  0.67416  1.0000
  C   C101      1.0  0.10745  0.22256  0.69941  1.0000
  C   C102      1.0  0.09839  0.20337  0.69844  1.0000
  C   C103      1.0  0.10854  0.19015  0.68811  1.0000
  C   C104      1.0  0.12837  0.19541  0.67909  1.0000
  C   C105      1.0  0.13722  0.21494  0.67985  1.0000
  C   C106      1.0  0.12650  0.22875  0.68990  1.0000
  H   H150      1.0  0.08357  0.19863  0.70571  1.0000
  H   H151      1.0  0.10074  0.17610  0.68705  1.0000
  H   H152      1.0  0.15237  0.21931  0.67276  1.0000
  H   H153      1.0  0.13342  0.24375  0.69053  1.0000
  C   C107      1.0  0.33009  0.13551  0.66445  1.0000
  H   H154      1.0  0.31490  0.05098  0.68769  1.0000
  H   H155      1.0  0.00142  0.27899  0.71376  1.0000
  H   H156      1.0  0.43934  0.10335  0.64145  1.0000
  H   H157      1.0  0.33504  0.31930  0.71352  1.0000
  C   C108      1.0  0.36385  0.18360  0.66427  1.0000
  H   H158      1.0  0.08588  0.10971  0.62204  1.0000
  H   H159      1.0  0.36191  0.00941  0.49800  1.0000
  C   C109      1.0  0.45613  0.22141  0.72167  1.0000
  H   H160      1.0  0.46170  0.17493  0.65538  1.0000
  N   N5        1.0  0.17149  0.19709  0.72503  1.0000
  H   H161      1.0  0.46267  0.06855  0.57966  1.0000
  H   H162      1.0  0.42358  0.22142  0.69455  1.0000
  C   C110      1.0  0.29441  0.21621  0.71806  1.0000
  C   C111      1.0  0.35162  0.30914  0.73124  1.0000
  H   H163      1.0  0.19275  0.27673  0.72416  1.0000
  H   H164      1.0  0.02005  0.05929  0.72152  1.0000
  H   H165      1.0  0.21069  0.21189  0.70669  1.0000
  N   N6        1.0  0.05014  0.16601  0.64190  1.0000
  C   C112      1.0  0.06908  0.14937  0.63460  1.0000
  C   C113      1.0  0.04906  0.18988  0.63347  1.0000
  C   C114      1.0  0.05583  0.16569  0.65582  1.0000
  C   C115      1.0  0.02658  0.15919  0.64365  1.0000
  C   C116      1.0  0.48654  0.03889  0.57231  1.0000
  C   C117      1.0  0.07124  0.12340  0.64101  1.0000
  C   C118      1.0  0.03896  0.18296  0.66452  1.0000
  H   H166      1.0  0.01249  0.26525  0.72932  1.0000
  C   C119      1.0  0.05858  0.30964  0.65211  1.0000
  C   C120      1.0  0.14693  0.17110  0.71777  1.0000
  H   H167      1.0  0.36659  0.23399  0.71658  1.0000
  C   C121      1.0  0.04842  0.18360  0.67740  1.0000
  C   C122      1.0  0.39130  0.32047  0.60095  1.0000
  H   H168      1.0  0.06687  0.15099  0.62377  1.0000
  H   H169      1.0  0.43425  0.00808  0.63048  1.0000
  H   H170      1.0  0.35834  0.28776  0.55398  1.0000
  H   H171      1.0  0.07408  0.16830  0.65507  1.0000
  H   H172      1.0  0.05542  0.14831  0.66207  1.0000
  H   H173      1.0  0.02554  0.14332  0.65138  1.0000
  H   H174      1.0  0.35173  0.02136  0.54948  1.0000
  H   H175      1.0  0.03088  0.13969  0.62663  1.0000
  H   H176      1.0  0.38804  0.20377  0.70168  1.0000
  H   H177      1.0  0.07617  0.12050  0.65129  1.0000
  H   H178      1.0  0.05466  0.11722  0.64184  1.0000
  C   C123      1.0  0.43817  0.22848  0.65680  1.0000
  H   H179      1.0  0.41869  0.28943  0.54262  1.0000
  H   H180      1.0  0.34559  0.11786  0.71528  1.0000
  H   H181      1.0  0.37546  0.32013  0.66174  1.0000
  C   C124      1.0  0.39928  0.00470  0.49633  1.0000
  H   H182      1.0  0.03603  0.20089  0.65889  1.0000
  H   H183      1.0  0.09024  0.27489  0.64703  1.0000
  C   C125      1.0  0.39641  0.99937  0.57026  1.0000
  H   H184      1.0  0.02005  0.17027  0.62238  1.0000
  H   H185      1.0  0.46775  0.22592  0.68302  1.0000
  H   H186      1.0  0.35331  0.07309  0.69356  1.0000
  C   C126      1.0  0.37623  0.04760  0.72022  1.0000
  C   C127      1.0  0.44967  0.30608  0.49706  1.0000
  H   H187      1.0  0.06507  0.19026  0.67473  1.0000
  C   C128      1.0  0.47592  0.20275  0.66105  1.0000
  H   H188      1.0  0.05144  0.16596  0.68354  1.0000
  C   C129      1.0  0.06049  0.25127  0.67709  1.0000
  H   H189      1.0  0.36599  0.31413  0.70978  1.0000
  C   C130      1.0  0.32801  0.05960  0.71092  1.0000
  H   H190      1.0  0.21553  0.24569  0.64700  1.0000
  H   H191      1.0  0.16866  0.14332  0.62522  1.0000
  C   C131      1.0  0.43641  0.30347  0.48762  1.0000
  H   H192      1.0  0.39189  0.09654  0.49141  1.0000
  H   H193      1.0  0.47571  0.16634  0.67015  1.0000
  C   C132      1.0  0.41842  0.21230  0.68736  1.0000
  H   H194      1.0  0.17809  0.24182  0.68716  1.0000
  H   H195      1.0  0.36043  0.01704  0.57229  1.0000
  C   C133      1.0  0.23943  0.30083  0.65993  1.0000
  H   H196      1.0  0.40414  0.05979  0.72643  1.0000
  H   H197      1.0  0.41832  0.24039  0.63297  1.0000
  H   H198      1.0  0.01266  0.17285  0.64783  1.0000
  Fe  Fe22      1.0  0.14419  0.29786  0.69105  1.0000
  C   C134      1.0  0.03571  0.25063  0.68526  1.0000
  C   C135      1.0  0.03665  0.23765  0.69976  1.0000
  H   H199      1.0  0.06799  0.23286  0.67620  1.0000
  H   H200      1.0  0.07109  0.25641  0.68359  1.0000
  H   H201      1.0  0.02557  0.26824  0.68605  1.0000
  H   H202      1.0  0.02627  0.24120  0.68035  1.0000
  C   C136      1.0  0.19493  0.23087  0.68950  1.0000
  C   C137      1.0  0.47397  0.25131  0.66491  1.0000
  H   H203      1.0  0.04631  0.21959  0.69960  1.0000
  C   C138      1.0  0.33728  0.15597  0.66895  1.0000
  C   C139      1.0  0.22199  0.13438  0.68934  1.0000
  C   C140      1.0  0.34937  0.19613  0.67615  1.0000
  C   C141      1.0  0.30516  0.13278  0.67100  1.0000
  C   C142      1.0  0.35492  0.22028  0.67468  1.0000
  H   H204      1.0  0.36375  0.16179  0.64382  1.0000
  H   H205      1.0  0.33119  0.15536  0.68010  1.0000
  H   H206      1.0  0.32625  0.17165  0.66392  1.0000
  H   H207      1.0  0.35772  0.19361  0.65470  1.0000
  H   H208      1.0  0.33035  0.19830  0.67605  1.0000
  H   H209      1.0  0.33053  0.13915  0.65327  1.0000
  H   H210      1.0  0.29259  0.14888  0.66811  1.0000
  H   H211      1.0  0.30048  0.11828  0.66734  1.0000
  H   H212      1.0  0.30366  0.12874  0.68227  1.0000
  H   H213      1.0  0.37317  0.21907  0.67606  1.0000
  C   C143      1.0  0.39981  0.15202  0.64711  1.0000
  H   H214      1.0  0.34315  0.22997  0.68246  1.0000
  N   N7        1.0  0.37612  0.05232  0.52869  1.0000
  C   C144      1.0  0.39563  0.03961  0.53641  1.0000
  H   H215      1.0  0.49030  0.27978  0.66640  1.0000
  C   C145      1.0  0.38731  0.06103  0.51440  1.0000
  C   C146      1.0  0.36192  0.07295  0.53501  1.0000
  C   C147      1.0  0.35397  0.06881  0.55066  1.0000
  C   C148      1.0  0.41413  0.05398  0.53714  1.0000
  C   C149      1.0  0.37027  0.07272  0.50417  1.0000
  C   C150      1.0  0.37789  0.01366  0.49176  1.0000
  N   N8        1.0  0.38392  0.31023  0.54621  1.0000
  C   C151      1.0  0.34080  0.09127  0.55574  1.0000
  C   C152      1.0  0.42749  0.04343  0.54900  1.0000
  H   H216      1.0  0.43083  0.01990  0.61294  1.0000
  H   H217      1.0  0.40515  0.02412  0.53170  1.0000
  H   H218      1.0  0.38861  0.03240  0.54696  1.0000
  H   H219      1.0  0.33590  0.04079  0.71224  1.0000
  H   H220      1.0  0.37746  0.26283  0.58231  1.0000
  H   H221      1.0  0.39950  0.04639  0.50990  1.0000
  H   H222      1.0  0.39820  0.07394  0.51455  1.0000
  H   H223      1.0  0.37158  0.08764  0.53257  1.0000
  H   H224      1.0  0.34577  0.07989  0.53040  1.0000
  H   H225      1.0  0.36903  0.06243  0.55623  1.0000
  H   H226      1.0  0.47178  0.01047  0.56931  1.0000
  H   H227      1.0  0.42697  0.05442  0.52754  1.0000
  H   H228      1.0  0.40615  0.07209  0.53851  1.0000
  H   H229      1.0  0.35760  0.08752  0.50796  1.0000
  H   H230      1.0  0.36038  0.06013  0.50234  1.0000
  H   H231      1.0  0.45254  0.19075  0.68561  1.0000
  H   H232      1.0  0.21395  0.28664  0.65327  1.0000
  H   H233      1.0  0.30888  0.06011  0.71226  1.0000
  H   H234      1.0  0.47715  0.01888  0.54694  1.0000
  C   C153      1.0  0.42828  0.21297  0.64959  1.0000
  H   H235      1.0  0.32496  0.09834  0.55089  1.0000
  C   C154      1.0  0.02232  0.27128  0.65450  1.0000
  H   H236      1.0  0.35222  0.10445  0.55354  1.0000
  H   H237      1.0  0.44201  0.05273  0.54845  1.0000
  H   H238      1.0  0.41566  0.04513  0.55885  1.0000
  H   H239      1.0  0.43482  0.02479  0.54867  1.0000
  H   H240      1.0  0.42338  0.24117  0.66117  1.0000
  H   H241      1.0  0.46287  0.27862  0.67760  1.0000
  N   N9        1.0  0.26481  0.25243  0.70852  1.0000
  C   C155      1.0  0.26937  0.23989  0.69639  1.0000
  C   C156      1.0  0.27314  0.23603  0.72081  1.0000
  C   C157      1.0  0.23870  0.26005  0.71195  1.0000
  C   C158      1.0  0.27572  0.27382  0.70541  1.0000
  C   C159      1.0  0.30265  0.26970  0.70170  1.0000
  C   C160      1.0  0.26165  0.25417  0.68300  1.0000
  H   H242      1.0  0.40370  0.21600  0.63574  1.0000
  C   C161      1.0  0.41377  0.29616  0.69017  1.0000
  C   C162      1.0  0.31142  0.29266  0.69711  1.0000
  C   C163      1.0  0.26659  0.23896  0.67189  1.0000
  H   H243      1.0  0.03550  0.19522  0.68373  1.0000
  H   H244      1.0  0.26063  0.22449  0.69908  1.0000
  H   H245      1.0  0.28826  0.23298  0.69364  1.0000
  H   H246      1.0  0.17636  0.19499  0.70342  1.0000
  H   H247      1.0  0.19181  0.31247  0.69136  1.0000
  H   H248      1.0  0.23001  0.24478  0.71334  1.0000
  H   H249      1.0  0.23153  0.27259  0.70349  1.0000
  H   H250      1.0  0.26806  0.28657  0.69713  1.0000
  H   H251      1.0  0.39130  0.26768  0.50998  1.0000
  H   H252      1.0  0.30899  0.25934  0.69331  1.0000
  H   H253      1.0  0.00862  0.30423  0.69220  1.0000
  H   H254      1.0  0.24271  0.26138  0.68427  1.0000
  H   H255      1.0  0.27144  0.26858  0.67925  1.0000
  C   C164      1.0  0.01843  0.07236  0.71217  1.0000
  H   H256      1.0  0.42017  0.03771  0.62615  1.0000
  H   H257      1.0  0.40918  0.08365  0.63734  1.0000
  H   H258      1.0  0.36728  0.02741  0.51846  1.0000
  C   C165      1.0  0.20503  0.30925  0.68259  1.0000
  H   H259      1.0  0.31984  0.15246  0.70533  1.0000
  H   H260      1.0  0.26261  0.24980  0.66210  1.0000
  H   H261      1.0  0.28528  0.23054  0.67038  1.0000
  H   H262      1.0  0.25559  0.22538  0.67462  1.0000
  H   H263      1.0  0.30807  0.14310  0.72275  1.0000
  H   H264      1.0  0.45108  0.31995  0.54778  1.0000
  H   H265      1.0  0.41425  0.18257  0.70333  1.0000
  H   H266      1.0  0.38089  0.29849  0.50661  1.0000
  H   H267      1.0  0.15686  0.21982  0.70834  1.0000
  C   C166      1.0  0.22438  0.13588  0.67393  1.0000
  H   H268      1.0  0.20875  0.24155  0.68589  1.0000
  H   H269      1.0  0.40342  0.16950  0.64693  1.0000
  H   H270      1.0  0.21366  0.12412  0.67212  1.0000
  H   H271      1.0  0.12450  0.24986  0.63620  1.0000
  C   C167      1.0  0.36050  0.03591  0.52764  1.0000
  C   C168      1.0  0.47648  0.17706  0.65988  1.0000
  C   C169      1.0  0.19214  0.08694  0.71400  1.0000
  H   H272      1.0  0.45229  0.17331  0.70987  1.0000
  N   N10       1.0  0.36277  0.15824  0.66547  1.0000
  C   C170      1.0  0.37353  0.15090  0.65182  1.0000
  H   H273      1.0  0.38215  0.18593  0.66347  1.0000
  H   H274      1.0  0.40264  0.03655  0.59640  1.0000
  H   H275      1.0  0.37191  0.13284  0.65156  1.0000
  H   H276      1.0  0.40369  0.12961  0.63179  1.0000
  H   H277      1.0  0.41062  0.13926  0.65396  1.0000
  H   H278      1.0  0.46087  0.06295  0.48509  1.0000
  C   C171      1.0  0.48221  0.19000  0.70477  1.0000
  H   H279      1.0  0.34178  0.11871  0.66683  1.0000
  H   H280      1.0  0.38747  0.11133  0.66906  1.0000
  H   H281      1.0  0.20338  0.13929  0.69391  1.0000
  C   C172      1.0  0.21430  0.08483  0.71754  1.0000
  C   C173      1.0  0.41993  0.01018  0.48820  1.0000
  H   H282      1.0  0.35311  0.18662  0.68625  1.0000
  S   S40       1.0  0.47189  0.28756  0.70694  1.0000
  H   H283      1.0  0.10073  0.22613  0.66341  1.0000
  H   H284      1.0  0.22853  0.11625  0.69390  1.0000
  C   C174      1.0  0.40801  0.14640  0.63265  1.0000
  H   H285      1.0  0.24300  0.12934  0.67013  1.0000
  H   H286      1.0  0.05148  0.23676  0.62653  1.0000
  C   C175      1.0  0.41010  0.30676  0.54531  1.0000
  H   H287      1.0  0.42722  0.14525  0.62995  1.0000
  H   H288      1.0  0.41315  0.03300  0.71958  1.0000
  H   H289      1.0  0.30482  0.30210  0.68764  1.0000
  S   S41       1.0  0.33462  0.31867  0.64667  1.0000
  H   H290      1.0  0.44248  0.24565  0.67840  1.0000
  C   C176      1.0  0.37623  0.14500  0.67662  1.0000
  H   H291      1.0  0.36761  0.15004  0.68666  1.0000
  H   H292      1.0  0.38729  0.02529  0.61994  1.0000
  H   H293      1.0  0.34938  0.15573  0.72871  1.0000
  C   C177      1.0  0.45989  0.18721  0.71146  1.0000
  H   H294      1.0  0.34956  0.31071  0.57227  1.0000
  H   H295      1.0  0.07717  0.31163  0.65003  1.0000
  H   H296      1.0  0.39059  0.27015  0.53447  1.0000
  H   H297      1.0  0.31063  0.26063  0.71078  1.0000
  H   H298      1.0  0.41842  0.27727  0.64367  1.0000
  H   H299      1.0  0.10745  0.11307  0.63163  1.0000
  S   S42       1.0  0.46628  0.12570  0.71946  1.0000
  H   H300      1.0  0.45445  0.28882  0.55247  1.0000
  C   C178      1.0  0.09963  0.23874  0.65394  1.0000
  H   H301      1.0  0.13293  0.22062  0.64467  1.0000
  C   C179      1.0  0.42252  0.01988  0.62376  1.0000
  H   H302      1.0  0.19861  0.16763  0.67232  1.0000
  H   H303      1.0  0.22838  0.17127  0.66940  1.0000
  S   S43       1.0  0.46095  0.10069  0.66459  1.0000
  C   C180      1.0  0.37953  0.11831  0.67863  1.0000
  H   H304      1.0  0.45194  0.30687  0.56527  1.0000
  C   C181      1.0  0.41035  0.22747  0.64089  1.0000
  C   C182      1.0  0.12455  0.23859  0.64630  1.0000
  H   H305      1.0  0.08990  0.23255  0.64754  1.0000
  S   S44       1.0  0.33859  0.05127  0.63173  1.0000
  H   H306      1.0  0.41859  0.28915  0.62593  1.0000
  C   C183      1.0  0.21649  0.16116  0.66699  1.0000
  H   H307      1.0  0.30976  0.22307  0.71194  1.0000
  S   S45       1.0  0.44588  0.14019  0.69079  1.0000
  H   H308      1.0  0.37270  0.03620  0.73012  1.0000
  C   C184      1.0  0.17365  0.20814  0.71022  1.0000
  H   H309      1.0  0.39389  0.14964  0.67495  1.0000
  H   H310      1.0  0.31726  0.09991  0.73227  1.0000
  Fe  Fe23      1.0  0.33649  0.30493  0.62714  1.0000
  C   C185      1.0  0.20020  0.29908  0.67238  1.0000
  H   H311      1.0  0.48191  0.21197  0.65072  1.0000
  H   H312      1.0  0.14180  0.18377  0.70884  1.0000
  H   H313      1.0  0.04791  0.18915  0.62274  1.0000
  H   H314      1.0  0.03278  0.20181  0.63708  1.0000
  H   H315      1.0  0.27377  0.15853  0.61205  1.0000
  C   C186      1.0  0.40076  0.02604  0.58927  1.0000
  H   H316      1.0  0.46576  0.29396  0.49842  1.0000
  C   C187      1.0  0.21659  0.09251  0.72936  1.0000
  C   C188      1.0  0.19399  0.18180  0.72853  1.0000
  H   H317      1.0  0.02180  0.17740  0.66781  1.0000
  H   H318      1.0  0.16794  0.12952  0.64274  1.0000
  H   H319      1.0  0.43546  0.18675  0.67435  1.0000
  C   C189      1.0  0.08772  0.26336  0.65701  1.0000
  H   H320      1.0  0.13512  0.24472  0.65232  1.0000
  H   H321      1.0  0.33525  0.08769  0.56697  1.0000
  C   C190      1.0  0.33507  0.07019  0.69582  1.0000
  H   H322      1.0  0.01216  0.26894  0.66488  1.0000
  H   H323      1.0  0.99778  0.31668  0.72022  1.0000
  H   H324      1.0  0.23822  0.14783  0.62600  1.0000
  C   C191      1.0  0.01931  0.15501  0.63054  1.0000
  H   H325      1.0  0.20430  0.23564  0.63437  1.0000
  C   C192      1.0  0.39541  0.10726  0.68920  1.0000
  H   H326      1.0  0.39660  0.08822  0.69085  1.0000
  H   H327      1.0  0.38836  0.11358  0.69907  1.0000
  C   C193      1.0  0.44583  0.30570  0.55578  1.0000
  C   C194      1.0  0.49164  0.20855  0.70653  1.0000
  S   S46       1.0  0.44982  0.08636  0.70650  1.0000
  H   H328      1.0  0.08648  0.15376  0.63420  1.0000
  C   C195      1.0  0.47866  0.22414  0.71516  1.0000
  N   N11       1.0  0.06215  0.26647  0.66327  1.0000
  H   H329      1.0  0.04934  0.24039  0.65620  1.0000
  C   C196      1.0  0.31213  0.13838  0.71236  1.0000
  H   H330      1.0  0.20727  0.17030  0.70845  1.0000
  N   N12       1.0  0.21654  0.16463  0.65179  1.0000
  H   H331      1.0  0.18757  0.14604  0.65792  1.0000
  H   H332      1.0  0.25280  0.16864  0.64793  1.0000
  H   H333      1.0  0.24886  0.14011  0.64825  1.0000
  C   C197      1.0  0.20580  0.18972  0.64752  1.0000
  H   H334      1.0  0.39739  0.06820  0.48639  1.0000
  H   H335      1.0  0.17408  0.17092  0.63867  1.0000
  H   H336      1.0  0.02040  0.29023  0.65087  1.0000
  H   H337      1.0  0.37441  0.00302  0.53994  1.0000
  C   C198      1.0  0.37714  0.01531  0.57548  1.0000
  S   S47       1.0  0.35401  0.04736  0.59190  1.0000
  H   H338      1.0  0.21255  0.13100  0.64839  1.0000
  C   C199      1.0  0.20184  0.14863  0.64915  1.0000
  H   H339      1.0  0.18753  0.19335  0.65304  1.0000
  C   C200      1.0  0.24146  0.15861  0.64485  1.0000
  C   C201      1.0  0.21887  0.20826  0.64971  1.0000
  H   H340      1.0  0.28993  0.20390  0.71249  1.0000
  H   H341      1.0  0.25258  0.29759  0.65114  1.0000
  H   H342      1.0  0.41323  0.11114  0.68551  1.0000
  C   C202      1.0  0.09017  0.10816  0.63242  1.0000
  H   H343      1.0  0.41928  0.20018  0.65691  1.0000
  C   C203      1.0  0.04852  0.25953  0.65404  1.0000
  H   H344      1.0  0.42894  0.31631  0.59645  1.0000
  H   H345      1.0  0.23665  0.20645  0.64359  1.0000
  H   H346      1.0  0.37255  0.99263  0.60528  1.0000
  C   C204      1.0  0.05426  0.29155  0.66520  1.0000
  Fe  Fe24      1.0  0.45110  0.27472  0.72686  1.0000
  C   C205      1.0  0.37917  0.02866  0.58504  1.0000
  C   C206      1.0  0.20581  0.23279  0.64535  1.0000
  C   C207      1.0  0.24535  0.16137  0.62912  1.0000
  H   H347      1.0  0.28073  0.14089  0.62779  1.0000
  H   H348      1.0  0.36528  0.08228  0.71020  1.0000
  H   H349      1.0  0.05675  0.26336  0.64319  1.0000
  C   C208      1.0  0.18902  0.15657  0.63657  1.0000
  H   H350      1.0  0.20418  0.19338  0.63656  1.0000
  C   C209      1.0  0.27136  0.15798  0.62325  1.0000
  H   H351      1.0  0.39881  0.18444  0.68932  1.0000
  N   N13       1.0  0.33368  0.07092  0.72167  1.0000
  H   H352      1.0  0.19023  0.23808  0.70980  1.0000
  H   H353      1.0  0.35874  0.99815  0.64113  1.0000
  C   C210      1.0  0.39160  0.28578  0.52658  1.0000
  C   C211      1.0  0.33301  0.05432  0.68612  1.0000
  H   H354      1.0  0.27915  0.17205  0.62524  1.0000
  H   H355      1.0  0.18807  0.23574  0.65150  1.0000
  C   C212      1.0  0.34925  0.28392  0.73207  1.0000
  H   H356      1.0  0.23707  0.17879  0.62446  1.0000
  C   C213      1.0  0.17923  0.13682  0.63355  1.0000
  H   H357      1.0  0.19914  0.21593  0.68385  1.0000
  Fe  Fe25      1.0  0.48994  0.30317  0.71964  1.0000
  Fe  Fe26      1.0  0.43440  0.12209  0.71182  1.0000
  H   H358      1.0  0.41526  0.29323  0.56646  1.0000
  C   C214      1.0  0.31946  0.09519  0.72190  1.0000
  H   H359      1.0  0.05470  0.30419  0.64306  1.0000
  H   H360      1.0  0.34279  0.04563  0.52600  1.0000
  C   C215      1.0  0.07004  0.20183  0.63293  1.0000
  H   H361      1.0  0.35078  0.21034  0.72125  1.0000
  H   H362      1.0  0.36266  0.27996  0.51808  1.0000
  C   C216      1.0  0.41541  0.31877  0.48595  1.0000
  H   H363      1.0  0.16243  0.15858  0.71415  1.0000
  H   H364      1.0  0.44258  0.20380  0.64266  1.0000
  H   H365      1.0  0.44829  0.23914  0.64849  1.0000
  H   H366      1.0  0.01864  0.23691  0.70522  1.0000
  C   C217      1.0  0.01047  0.09127  0.66075  1.0000
  Fe  Fe27      1.0  0.46313  0.10506  0.68589  1.0000
  H   H367      1.0  0.19366  0.12278  0.63031  1.0000
  H   H368      1.0  0.32298  0.08676  0.69329  1.0000
  S   S48       1.0  0.17234  0.29304  0.67277  1.0000
  C   C218      1.0  0.22678  0.31599  0.68119  1.0000
  H   H369      1.0  0.33407  0.11229  0.70153  1.0000
  C   C219      1.0  0.41784  0.99634  0.57475  1.0000
  H   H370      1.0  0.06327  0.29545  0.67294  1.0000
  H   H371      1.0  0.27132  0.28314  0.71436  1.0000
  H   H372      1.0  0.25889  0.22701  0.72686  1.0000
  S   S49       1.0  0.39727  0.13948  0.71919  1.0000
  C   C220      1.0  0.41987  0.00966  0.58433  1.0000
  H   H373      1.0  0.38529  0.20082  0.73229  1.0000
  N   N14       1.0  0.45310  0.21624  0.66747  1.0000
  H   H374      1.0  0.27746  0.24592  0.72795  1.0000
  C   C221      1.0  0.47929  0.26792  0.67313  1.0000
  C   C222      1.0  0.01069  0.26148  0.64525  1.0000
  H   H375      1.0  0.02041  0.08945  0.71413  1.0000
  H   H376      1.0  0.39531  0.23664  0.64741  1.0000
  C   C223      1.0  0.42145  0.31343  0.63879  1.0000
  H   H377      1.0  0.48608  0.23820  0.71677  1.0000
  H   H378      1.0  0.40229  0.31845  0.64137  1.0000
  C   C224      1.0  0.20556  0.16308  0.71943  1.0000
  C   C225      1.0  0.46304  0.04983  0.57984  1.0000
  H   H379      1.0  0.32230  0.01314  0.53738  1.0000
  S   S50       1.0  0.45177  0.99059  0.52949  1.0000
  H   H380      1.0  0.40700  0.22514  0.68100  1.0000
  H   H381      1.0  0.03544  0.29513  0.66950  1.0000
  H   H382      1.0  0.42900  0.20157  0.72411  1.0000
  C   C226      1.0  0.17219  0.09630  0.72245  1.0000
  H   H383      1.0  0.36000  0.30940  0.53273  1.0000
  H   H384      1.0  0.22975  0.29148  0.72145  1.0000
  C   C227      1.0  0.41168  0.31950  0.68424  1.0000
  C   C228      1.0  0.35603  0.22426  0.72515  1.0000
  H   H385      1.0  0.48588  0.00485  0.58369  1.0000
  H   H386      1.0  0.36265  0.08003  0.72798  1.0000
  H   H387      1.0  0.30552  0.30380  0.70519  1.0000
  H   H388      1.0  0.33628  0.99724  0.59536  1.0000
  C   C229      1.0  0.37905  0.30825  0.53240  1.0000
  C   C230      1.0  0.15146  0.18381  0.72874  1.0000
  H   H389      1.0  0.44552  0.28251  0.63299  1.0000
  H   H390      1.0  0.34538  0.03756  0.68767  1.0000
  H   H391      1.0  0.34020  0.23648  0.72891  1.0000
  H   H392      1.0  0.33083  0.28925  0.69495  1.0000
  C   C231      1.0  0.12675  0.15801  0.72327  1.0000
  H   H393      1.0  0.17982  0.22665  0.73133  1.0000
  H   H394      1.0  0.30144  0.09581  0.72000  1.0000
  H   H395      1.0  0.03286  0.06695  0.70396  1.0000
  H   H396      1.0  0.42935  0.31232  0.64802  1.0000
  C   C232      1.0  0.37394  0.29189  0.55690  1.0000
  H   H397      1.0  0.49334  0.12750  0.48443  1.0000
  H   H398      1.0  0.23789  0.13818  0.71610  1.0000
  C   C233      1.0  0.33979  0.00185  0.53747  1.0000
  Fe  Fe28      1.0  0.12789  0.30420  0.72065  1.0000
  H   H399      1.0  0.37460  0.03870  0.71189  1.0000
  H   H400      1.0  0.36315  0.99348  0.66548  1.0000
  H   H401      1.0  0.31764  0.18910  0.72909  1.0000
  H   H402      1.0  0.38677  0.27524  0.55739  1.0000
  C   C234      1.0  0.38630  0.31339  0.66956  1.0000
  H   H403      1.0  0.44848  0.04830  0.57485  1.0000
  H   H404      1.0  0.41028  0.28667  0.52266  1.0000
  S   S51       1.0  0.42254  0.30579  0.72624  1.0000
  C   C235      1.0  0.38088  0.28286  0.51460  1.0000
  C   C236      1.0  0.48779  0.01266  0.57272  1.0000
  C   C237      1.0  0.40168  0.05038  0.71851  1.0000
  H   H405      1.0  0.24148  0.26664  0.73248  1.0000
  H   H406      1.0  0.40728  0.05990  0.70828  1.0000
  H   H407      1.0  0.04528  0.31030  0.69859  1.0000
  Fe  Fe29      1.0  0.48311  0.09193  0.71229  1.0000
  H   H408      1.0  0.13066  0.14468  0.73220  1.0000
  H   H409      1.0  0.46026  0.04131  0.59065  1.0000
  C   C238      1.0  0.23004  0.27254  0.72461  1.0000
  S   S52       1.0  0.09115  0.30037  0.72054  1.0000
  H   H410      1.0  0.01821  0.26627  0.63440  1.0000
  H   H411      1.0  0.34756  0.26860  0.57915  1.0000
  H   H412      1.0  0.35778  0.00998  0.61764  1.0000
  H   H413      1.0  0.12394  0.14914  0.71521  1.0000
  H   H414      1.0  0.01285  0.24230  0.64789  1.0000
  H   H415      1.0  0.49001  0.20179  0.66711  1.0000
  H   H416      1.0  0.39124  0.30536  0.60880  1.0000
  C   C239      1.0  0.41930  0.30789  0.55839  1.0000
  H   H417      1.0  0.39131  0.01325  0.63712  1.0000
  C   C240      1.0  0.39878  0.01243  0.62630  1.0000
  H   H418      1.0  0.19531  0.14898  0.72160  1.0000
  H   H419      1.0  0.11035  0.17022  0.72622  1.0000
  C   C241      1.0  0.36597  0.29764  0.57167  1.0000
  S   S53       1.0  0.43947  0.24045  0.73243  1.0000
  C   C242      1.0  0.30152  0.20201  0.73135  1.0000
  C   C243      1.0  0.20544  0.26893  0.73127  1.0000
  H   H420      1.0  0.33221  0.28306  0.72940  1.0000
  C   C244      1.0  0.23011  0.15204  0.72241  1.0000
  C   C245      1.0  0.32600  0.99754  0.60577  1.0000
  C   C246      1.0  0.36311  0.99164  0.61591  1.0000
  H   H421      1.0  0.40878  0.98870  0.61189  1.0000
  H   H422      1.0  0.20709  0.19262  0.72857  1.0000
  H   H423      1.0  0.39454  0.98903  0.56300  1.0000
  C   C247      1.0  0.24394  0.31202  0.66977  1.0000
  H   H424      1.0  0.49092  0.24180  0.66024  1.0000
  H   H425      1.0  0.48524  0.02883  0.52172  1.0000
  H   H426      1.0  0.43651  0.00338  0.49172  1.0000
  H   H427      1.0  0.13458  0.19585  0.73130  1.0000
  C   C248      1.0  0.00299  0.10830  0.66917  1.0000
  H   H428      1.0  0.48889  0.25811  0.68149  1.0000
  C   C249      1.0  0.01340  0.32113  0.68975  1.0000
  Fe  Fe30      1.0  0.44473  0.32001  0.70731  1.0000
  C   C250      1.0  0.99496  0.07427  0.70757  1.0000
  C   C251      1.0  0.37761  0.12724  0.73259  1.0000
  H   H429      1.0  0.99478  0.08716  0.69814  1.0000
  H   H430      1.0  0.12311  0.31922  0.65934  1.0000
  C   C252      1.0  0.99643  0.27171  0.72462  1.0000
  Fe  Fe31      1.0  0.15788  0.11456  0.94919  1.0000
  S   S54       1.0  0.18118  0.10660  0.92961  1.0000
  H   H431      1.0  0.09593  0.01256  0.96405  1.0000
  S   S55       1.0  0.12501  0.14129  0.94946  1.0000
  H   H432      1.0  0.11813  0.07965  0.93508  1.0000
  H   H433      1.0  0.01753  0.01587  0.91709  1.0000
  H   H434      1.0  0.08172  0.06975  0.87955  1.0000
  H   H435      1.0  0.15435  0.99815  0.93343  1.0000
  H   H436      1.0  0.22936  0.14398  0.73327  1.0000
  S   S56       1.0  0.12025  0.18346  0.97516  1.0000
  H   H437      1.0  0.14095  0.01055  0.81930  1.0000
  C   C253      1.0  0.17454  0.10448  0.73408  1.0000
  H   H438      1.0  0.36853  0.20473  0.78857  1.0000
  H   H439      1.0  0.07594  0.29911  0.93234  1.0000
  H   H440      1.0  0.01913  0.20219  0.96777  1.0000
  C   C254      1.0  0.05440  0.07235  0.89733  1.0000
  H   H441      1.0  0.16733  0.01916  0.75173  1.0000
  Fe  Fe32      1.0  0.28513  0.11024  0.76594  1.0000
  S   S57       1.0  0.26120  0.13527  0.77888  1.0000
  S   S58       1.0  0.32373  0.09586  0.76585  1.0000
  Fe  Fe33      1.0  0.24687  0.10574  0.75139  1.0000
  S   S59       1.0  0.21963  0.13039  0.76274  1.0000
  C   C255      1.0  0.07099  0.07106  0.90766  1.0000
  Fe  Fe34      1.0  0.24728  0.15200  0.75949  1.0000
  S   S60       1.0  0.23753  0.19027  0.75182  1.0000
  Fe  Fe35      1.0  0.23508  0.11180  0.78139  1.0000
  S   S61       1.0  0.20825  0.10786  0.80065  1.0000
  S   S62       1.0  0.27324  0.12898  0.74648  1.0000
  S   S63       1.0  0.26018  0.08518  0.77022  1.0000
  S   S64       1.0  0.29526  0.25079  0.77215  1.0000
  H   H442      1.0  0.16079  0.04167  0.73761  1.0000
  H   H443      1.0  0.04040  0.07838  0.95859  1.0000
  S   S65       1.0  0.12512  0.07980  0.88950  1.0000
  H   H444      1.0  0.05086  0.05492  0.89717  1.0000
  C   C256      1.0  0.15998  0.20337  0.97053  1.0000
  H   H445      1.0  0.06954  0.09911  0.88255  1.0000
  Fe  Fe36      1.0  0.16406  0.01712  0.86121  1.0000
  H   H446      1.0  0.00599  0.13163  0.92528  1.0000
  S   S66       1.0  0.17081  0.02290  0.88135  1.0000
  S   S67       1.0  0.12891  0.04058  0.86189  1.0000
  C   C257      1.0  0.01138  0.03579  0.86831  1.0000
  C   C258      1.0  0.03011  0.04705  0.86759  1.0000
  H   H447      1.0  0.19852  0.06853  0.78379  1.0000
  S   S68       1.0  0.28831  0.31389  0.75291  1.0000
  C   C259      1.0  0.35450  0.13924  0.73495  1.0000
  C   C260      1.0  0.16305  0.05451  0.75581  1.0000
  H   H448      1.0  0.02711  0.06579  0.86624  1.0000
  C   C261      1.0  0.23173  0.03247  0.77563  1.0000
  H   H449      1.0  0.35008  0.27465  0.74264  1.0000
  H   H450      1.0  0.18218  0.10547  0.78010  1.0000
  C   C262      1.0  0.20366  0.08168  0.81143  1.0000
  C   C263      1.0  0.21966  0.06087  0.81069  1.0000
  C   C264      1.0  0.21574  0.04081  0.82008  1.0000
  C   C265      1.0  0.19595  0.04149  0.83032  1.0000
  C   C266      1.0  0.17967  0.06214  0.83077  1.0000
  C   C267      1.0  0.18347  0.08209  0.82131  1.0000
  H   H451      1.0  0.23531  0.06037  0.80313  1.0000
  H   H452      1.0  0.22836  0.02483  0.81962  1.0000
  H   H453      1.0  0.16416  0.06272  0.83844  1.0000
  H   H454      1.0  0.17079  0.09803  0.82169  1.0000
  C   C268      1.0  0.25247  0.20703  0.75835  1.0000
  C   C269      1.0  0.24603  0.23124  0.75630  1.0000
  C   C270      1.0  0.25901  0.24495  0.76046  1.0000
  C   C271      1.0  0.27810  0.23436  0.76707  1.0000
  C   C272      1.0  0.28404  0.21014  0.76946  1.0000
  C   C273      1.0  0.27147  0.19648  0.76500  1.0000
  H   H455      1.0  0.23092  0.23937  0.75156  1.0000
  H   H456      1.0  0.25424  0.26364  0.75854  1.0000
  H   H457      1.0  0.29819  0.20195  0.77493  1.0000
  H   H458      1.0  0.27669  0.17785  0.76658  1.0000
  S   S69       1.0  0.13726  0.30780  0.74049  1.0000
  H   H459      1.0  0.38999  0.15845  0.76726  1.0000
  H   H460      1.0  0.06576  0.02778  0.94581  1.0000
  C   C274      1.0  0.34433  0.10839  0.75317  1.0000
  C   C275      1.0  0.36764  0.09673  0.75111  1.0000
  C   C276      1.0  0.19669  0.10262  0.73753  1.0000
  H   H461      1.0  0.13654  0.02978  0.79619  1.0000
  H   H462      1.0  0.99838  0.10667  0.92101  1.0000
  H   H463      1.0  0.37280  0.08027  0.75741  1.0000
  H   H464      1.0  0.47826  0.21378  0.75260  1.0000
  H   H465      1.0  0.07587  0.08843  0.90643  1.0000
  C   C277      1.0  0.00826  0.11244  0.92758  1.0000
  H   H466      1.0  0.01619  0.13203  0.95316  1.0000
  H   H467      1.0  0.41198  0.19472  0.74570  1.0000
  H   H468      1.0  0.36851  0.30872  0.73447  1.0000
  C   C278      1.0  0.16109  0.20922  0.74913  1.0000
  C   C279      1.0  0.05732  0.09364  0.97061  1.0000
  H   H469      1.0  0.31142  0.16418  0.78744  1.0000
  H   H470      1.0  0.34834  0.31778  0.76050  1.0000
  C   C280      1.0  0.14094  0.08645  0.90079  1.0000
  C   C281      1.0  0.16300  0.07363  0.90285  1.0000
  C   C282      1.0  0.17540  0.07993  0.91163  1.0000
  C   C283      1.0  0.16552  0.09864  0.91869  1.0000
  C   C284      1.0  0.14339  0.11130  0.91669  1.0000
  C   C285      1.0  0.13129  0.10539  0.90766  1.0000
  H   H471      1.0  0.17062  0.05903  0.89759  1.0000
  H   H472      1.0  0.19252  0.07011  0.91313  1.0000
  H   H473      1.0  0.13571  0.12586  0.92199  1.0000
  H   H474      1.0  0.11424  0.11539  0.90612  1.0000
  H   H475      1.0  0.13731  0.05184  0.77399  1.0000
  Fe  Fe37      1.0  0.27909  0.28873  0.77170  1.0000
  S   S70       1.0  0.19211  0.01629  0.84235  1.0000
  Fe  Fe38      1.0  0.11440  0.00903  0.87303  1.0000
  Fe  Fe39      1.0  0.13284  0.14740  0.96923  1.0000
  H   H476      1.0  0.15913  0.11184  0.74057  1.0000
  H   H477      1.0  0.07775  0.29978  0.94982  1.0000
  C   C286      1.0  0.05270  0.03412  0.86850  1.0000
  S   S71       1.0  0.11683  0.01551  0.89368  1.0000
  C   C287      1.0  0.04060  0.08199  0.96859  1.0000
  C   C288      1.0  0.03419  0.10177  0.92483  1.0000
  C   C289      1.0  0.01558  0.15666  0.97395  1.0000
  H   H478      1.0  0.15255  0.27335  0.91961  1.0000
  H   H479      1.0  0.10365  0.03437  0.93266  1.0000
  H   H480      1.0  0.16071  0.29183  0.80333  1.0000
  C   C290      1.0  0.37059  0.21373  0.73650  1.0000
  Fe  Fe40      1.0  0.13489  0.04469  0.88257  1.0000
  S   S72       1.0  0.14029  0.08539  0.96040  1.0000
  H   H481      1.0  0.19830  0.10853  0.74665  1.0000
  H   H482      1.0  0.16827  0.24096  0.75379  1.0000
  H   H483      1.0  0.20017  0.27716  0.74058  1.0000
  C   C291      1.0  0.15414  0.23056  0.75630  1.0000
  H   H484      1.0  0.14000  0.06878  0.79770  1.0000
  H   H485      1.0  0.41345  0.22278  0.77428  1.0000
  N   N15       1.0  0.16594  0.06285  0.77967  1.0000
  C   C292      1.0  0.38376  0.20486  0.78021  1.0000
  N   N16       1.0  0.12859  0.23697  0.93302  1.0000
  C   C293      1.0  0.13183  0.25771  0.93843  1.0000
  C   C294      1.0  0.10859  0.22638  0.94191  1.0000
  C   C295      1.0  0.15071  0.21899  0.93374  1.0000
  C   C296      1.0  0.12491  0.24288  0.91833  1.0000
  C   C297      1.0  0.10544  0.26381  0.91486  1.0000
  C   C298      1.0  0.15252  0.26963  0.93076  1.0000
  C   C299      1.0  0.15047  0.19543  0.92946  1.0000
  C   C300      1.0  0.08814  0.24272  0.94934  1.0000
  C   C301      1.0  0.06869  0.22965  0.95691  1.0000
  C   C302      1.0  0.10424  0.26854  0.89960  1.0000
  C   C303      1.0  0.15135  0.29266  0.93555  1.0000
  C   C304      1.0  0.17187  0.17736  0.93287  1.0000
  H   H486      1.0  0.13448  0.25251  0.94926  1.0000
  H   H487      1.0  0.11584  0.27130  0.93863  1.0000
  H   H488      1.0  0.10098  0.21680  0.93600  1.0000
  H   H489      1.0  0.11511  0.21302  0.95027  1.0000
  H   H490      1.0  0.15487  0.21540  0.94428  1.0000
  H   H491      1.0  0.16594  0.22552  0.92710  1.0000
  H   H492      1.0  0.14141  0.24606  0.91150  1.0000
  H   H493      1.0  0.12058  0.22779  0.91505  1.0000
  H   H494      1.0  0.10865  0.27987  0.91751  1.0000
  H   H495      1.0  0.08819  0.26022  0.92027  1.0000
  H   H496      1.0  0.16939  0.25843  0.93282  1.0000
  H   H497      1.0  0.02246  0.13763  0.97578  1.0000
  H   H498      1.0  0.15071  0.19764  0.91830  1.0000
  H   H499      1.0  0.13481  0.18817  0.93472  1.0000
  H   H500      1.0  0.09443  0.24971  0.95706  1.0000
  H   H501      1.0  0.08039  0.25751  0.94224  1.0000
  H   H502      1.0  0.06138  0.22251  0.94968  1.0000
  H   H503      1.0  0.30557  0.02228  0.75268  1.0000
  H   H504      1.0  0.05435  0.24167  0.96219  1.0000
  H   H505      1.0  0.09002  0.28352  0.89741  1.0000
  H   H506      1.0  0.12095  0.27286  0.89360  1.0000
  H   H507      1.0  0.10052  0.25320  0.89632  1.0000
  H   H508      1.0  0.14556  0.04415  0.97787  1.0000
  H   H509      1.0  0.48495  0.10584  0.76267  1.0000
  Fe  Fe41      1.0  0.44403  0.31976  0.73729  1.0000
  H   H510      1.0  0.17163  0.16092  0.92935  1.0000
  H   H511      1.0  0.18823  0.18354  0.92775  1.0000
  H   H512      1.0  0.17171  0.17359  0.94407  1.0000
  N   N17       1.0  0.06225  0.06256  0.92241  1.0000
  H   H513      1.0  0.08745  0.05949  0.90407  1.0000
  H   H514      1.0  0.32008  0.13912  0.74679  1.0000
  C   C305      1.0  0.07663  0.31049  0.93963  1.0000
  H   H515      1.0  0.31552  0.13924  0.77913  1.0000
  H   H516      1.0  0.02429  0.00077  0.90259  1.0000
  C   C306      1.0  0.05661  0.00993  0.86985  1.0000
  H   H517      1.0  0.13547  0.30525  0.93306  1.0000
  H   H518      1.0  0.00100  0.00279  0.87022  1.0000
  H   H519      1.0  0.06547  0.27310  0.97130  1.0000
  C   C307      1.0  0.17045  0.30489  0.79672  1.0000
  C   C308      1.0  0.11842  0.06069  0.93770  1.0000
  H   H520      1.0  0.15121  0.28992  0.94671  1.0000
  C   C309      1.0  0.10352  0.05317  0.92925  1.0000
  H   H521      1.0  0.28760  0.19235  0.73689  1.0000
  H   H522      1.0  0.03216  0.06937  0.93797  1.0000
  H   H523      1.0  0.13797  0.03594  0.75168  1.0000
  S   S73       1.0  0.28492  0.31044  0.78617  1.0000
  C   C310      1.0  0.41250  0.17854  0.75310  1.0000
  H   H524      1.0  0.02509  0.06972  0.92183  1.0000
  H   H525      1.0  0.49119  0.30971  0.78140  1.0000
  S   S74       1.0  0.11572  0.31378  0.96853  1.0000
  H   H526      1.0  0.40282  0.21802  0.79235  1.0000
  C   C311      1.0  0.05637  0.28636  0.97731  1.0000
  H   H527      1.0  0.10443  0.22932  0.98143  1.0000
  H   H528      1.0  0.35149  0.15008  0.76453  1.0000
  H   H529      1.0  0.43101  0.14263  0.75363  1.0000
  H   H530      1.0  0.24077  0.01410  0.77739  1.0000
  C   C312      1.0  0.15842  0.24382  0.97276  1.0000
  H   H531      1.0  0.45923  0.19642  0.74927  1.0000
  H   H532      1.0  0.18987  0.22038  0.96616  1.0000
  H   H533      1.0  0.15104  0.22499  0.76752  1.0000
  C   C313      1.0  0.06221  0.03696  0.92396  1.0000
  C   C314      1.0  0.49042  0.17629  0.75703  1.0000
  C   C315      1.0  0.03295  0.29597  0.97656  1.0000
  C   C316      1.0  0.03791  0.99874  0.87044  1.0000
  H   H534      1.0  0.11208  0.05574  0.91848  1.0000
  H   H535      1.0  0.04839  0.99417  0.93237  1.0000
  H   H536      1.0  0.23613  0.03959  0.76465  1.0000
  H   H537      1.0  0.47898  0.09808  0.74753  1.0000
  H   H538      1.0  0.03647  0.03083  0.94249  1.0000
  N   N18       1.0  0.19467  0.11117  0.86172  1.0000
  C   C317      1.0  0.20897  0.09041  0.85556  1.0000
  C   C318      1.0  0.19951  0.13363  0.85270  1.0000
  C   C319      1.0  0.20241  0.11025  0.87522  1.0000
  C   C320      1.0  0.16893  0.11051  0.86439  1.0000
  C   C321      1.0  0.15770  0.11254  0.85160  1.0000
  C   C322      1.0  0.20412  0.06617  0.86289  1.0000
  C   C323      1.0  0.19048  0.13058  0.88320  1.0000
  C   C324      1.0  0.20577  0.13365  0.83703  1.0000
  C   C325      1.0  0.20639  0.15815  0.82920  1.0000
  C   C326      1.0  0.13264  0.10830  0.85529  1.0000
  C   C327      1.0  0.22367  0.04690  0.85803  1.0000
  C   C328      1.0  0.20415  0.13151  0.89434  1.0000
  H   H539      1.0  0.22794  0.09059  0.85473  1.0000
  H   H540      1.0  0.20620  0.09108  0.84496  1.0000
  H   H541      1.0  0.18437  0.14798  0.85452  1.0000
  H   H542      1.0  0.21455  0.13920  0.85543  1.0000
  H   H543      1.0  0.22170  0.10928  0.87365  1.0000
  H   H544      1.0  0.19903  0.09436  0.88241  1.0000
  H   H545      1.0  0.16544  0.09447  0.87147  1.0000
  H   H546      1.0  0.15882  0.12501  0.86973  1.0000
  H   H547      1.0  0.16767  0.09968  0.84518  1.0000
  H   H548      1.0  0.15716  0.13025  0.84562  1.0000
  H   H549      1.0  0.20261  0.06392  0.87410  1.0000
  H   H550      1.0  0.18750  0.06345  0.86052  1.0000
  H   H551      1.0  0.17263  0.12804  0.88826  1.0000
  H   H552      1.0  0.18895  0.14771  0.87654  1.0000
  H   H553      1.0  0.22340  0.12300  0.83455  1.0000
  H   H554      1.0  0.19319  0.12649  0.83306  1.0000
  H   H555      1.0  0.21944  0.16590  0.83243  1.0000
  H   H556      1.0  0.21139  0.15741  0.81810  1.0000
  H   H557      1.0  0.18891  0.16940  0.83089  1.0000
  H   H558      1.0  0.12196  0.12001  0.86239  1.0000
  H   H559      1.0  0.12462  0.11150  0.84590  1.0000
  H   H560      1.0  0.13245  0.09002  0.86012  1.0000
  H   H561      1.0  0.22652  0.04848  0.84675  1.0000
  H   H562      1.0  0.24022  0.04768  0.86132  1.0000
  H   H563      1.0  0.21893  0.02970  0.86246  1.0000
  H   H564      1.0  0.19402  0.14440  0.90087  1.0000
  H   H565      1.0  0.20731  0.11434  0.90093  1.0000
  H   H566      1.0  0.22121  0.13667  0.88976  1.0000
  H   H567      1.0  0.05311  0.99002  0.94980  1.0000
  N   N19       1.0  0.36787  0.19175  0.76144  1.0000
  C   C329      1.0  0.37506  0.21120  0.76623  1.0000
  C   C330      1.0  0.35582  0.20179  0.74919  1.0000
  C   C331      1.0  0.35016  0.18206  0.77273  1.0000
  H   H568      1.0  0.03083  0.16452  0.96860  1.0000
  H   H569      1.0  0.07976  0.08598  0.92870  1.0000
  C   C332      1.0  0.33831  0.16360  0.76929  1.0000
  C   C333      1.0  0.16362  0.31729  0.73938  1.0000
  C   C334      1.0  0.05521  0.02463  0.93870  1.0000
  H   H570      1.0  0.07757  0.99114  0.93612  1.0000
  C   C335      1.0  0.32469  0.15142  0.78207  1.0000
  H   H571      1.0  0.36003  0.22603  0.76714  1.0000
  H   H572      1.0  0.38871  0.21869  0.75864  1.0000
  H   H573      1.0  0.38650  0.24026  0.78129  1.0000
  H   H574      1.0  0.33972  0.21458  0.75214  1.0000
  H   H575      1.0  0.33620  0.19638  0.77621  1.0000
  H   H576      1.0  0.35847  0.17367  0.78185  1.0000
  H   H577      1.0  0.49236  0.28024  0.76664  1.0000
  H   H578      1.0  0.07078  0.06449  0.94202  1.0000
  S   S75       1.0  0.17282  0.26764  0.97082  1.0000
  H   H579      1.0  0.05304  0.08337  0.87572  1.0000
  C   C336      1.0  0.38424  0.10603  0.74077  1.0000
  H   H580      1.0  0.32573  0.17182  0.76218  1.0000
  H   H581      1.0  0.38401  0.16310  0.75049  1.0000
  C   C337      1.0  0.13434  0.24609  0.97719  1.0000
  C   C338      1.0  0.14584  0.02791  0.81577  1.0000
  H   H582      1.0  0.15833  0.10147  0.79380  1.0000
  C   C339      1.0  0.39748  0.22259  0.78211  1.0000
  H   H583      1.0  0.29186  0.07463  0.74261  1.0000
  H   H584      1.0  0.13683  0.05164  0.93558  1.0000
  H   H585      1.0  0.13422  0.01076  0.94697  1.0000
  H   H586      1.0  0.04311  0.10735  0.93197  1.0000
  H   H587      1.0  0.33672  0.14127  0.78912  1.0000
  S   S76       1.0  0.16750  0.12261  0.96808  1.0000
  H   H588      1.0  0.20207  0.02667  0.79069  1.0000
  Fe  Fe42      1.0  0.10810  0.11253  0.96211  1.0000
  H   H589      1.0  0.00111  0.99445  0.93999  1.0000
  H   H590      1.0  0.16265  0.03010  0.77454  1.0000
  C   C340      1.0  0.33785  0.12976  0.74509  1.0000
  S   S77       1.0  0.07672  0.10370  0.95652  1.0000
  H   H591      1.0  0.17713  0.19864  0.75280  1.0000
  C   C341      1.0  0.03779  0.07489  0.92690  1.0000
  H   H592      1.0  0.37751  0.22802  0.73890  1.0000
  H   H593      1.0  0.33443  0.06218  0.74343  1.0000
  H   H594      1.0  0.07435  0.03771  0.96789  1.0000
  H   H595      1.0  0.46037  0.19886  0.76654  1.0000
  H   H596      1.0  0.10315  0.03364  0.97231  1.0000
  H   H597      1.0  0.48553  0.21071  0.78793  1.0000
  H   H598      1.0  0.48209  0.16085  0.76089  1.0000
  H   H599      1.0  0.06717  0.04281  0.86780  1.0000
  C   C342      1.0  0.19228  0.05920  0.77711  1.0000
  C   C343      1.0  0.07825  0.06730  0.93101  1.0000
  C   C344      1.0  0.15689  0.05707  0.79479  1.0000
  C   C345      1.0  0.15182  0.03218  0.80023  1.0000
  H   H600      1.0  0.33538  0.03794  0.73532  1.0000
  H   H601      1.0  0.20021  0.02271  0.77364  1.0000
  H   H602      1.0  0.16997  0.18696  0.96796  1.0000
  H   H603      1.0  0.03750  0.08409  0.89979  1.0000
  C   C346      1.0  0.02339  0.07583  0.97939  1.0000
  H   H604      1.0  0.19881  0.06712  0.76654  1.0000
  H   H605      1.0  0.11176  0.05655  0.94874  1.0000
  H   H606      1.0  0.15646  0.14251  0.78331  1.0000
  H   H607      1.0  0.15353  0.17079  0.73812  1.0000
  C   C347      1.0  0.49243  0.10304  0.75205  1.0000
  H   H608      1.0  0.13172  0.13198  0.78059  1.0000
  C   C348      1.0  0.16316  0.10563  0.78257  1.0000
  C   C349      1.0  0.17121  0.22234  0.96951  1.0000
  H   H609      1.0  0.30479  0.21337  0.73799  1.0000
  H   H610      1.0  0.13727  0.09131  0.77598  1.0000
  H   H611      1.0  0.19125  0.17228  0.73914  1.0000
  H   H612      1.0  0.16906  0.06039  0.80099  1.0000
  H   H613      1.0  0.39500  0.18741  0.78135  1.0000
  C   C350      1.0  0.15099  0.13043  0.77800  1.0000
  H   H614      1.0  0.15595  0.13560  0.76683  1.0000
  C   C351      1.0  0.15676  0.04900  0.77157  1.0000
  H   H615      1.0  0.04983  0.03398  0.91784  1.0000
  H   H616      1.0  0.01041  0.06693  0.97772  1.0000
  H   H617      1.0  0.13784  0.24170  0.75323  1.0000
  H   H618      1.0  0.16343  0.09343  0.76411  1.0000
  C   C352      1.0  0.20537  0.03382  0.77968  1.0000
  C   C353      1.0  0.15668  0.08820  0.77506  1.0000
  H   H619      1.0  0.18192  0.05478  0.75247  1.0000
  C   C354      1.0  0.15687  0.03663  0.74886  1.0000
  H   H620      1.0  0.00662  0.30580  0.73627  1.0000
  H   H621      1.0  0.15280  0.07156  0.75200  1.0000
  H   H622      1.0  0.34991  0.18800  0.74551  1.0000
  C   C355      1.0  0.01528  0.01157  0.86986  1.0000
  Fe  Fe43      1.0  0.14676  0.09510  0.97937  1.0000
  H   H623      1.0  0.07545  0.21524  0.96470  1.0000
  S   S78       1.0  0.01879  0.28823  0.96500  1.0000
  H   H624      1.0  0.44679  0.16403  0.74303  1.0000
  C   C356      1.0  0.01098  0.00489  0.91157  1.0000
  H   H625      1.0  0.30446  0.04555  0.76207  1.0000
  C   C357      1.0  0.01049  0.15112  0.95061  1.0000
  C   C358      1.0  0.13580  0.20589  0.97466  1.0000
  H   H626      1.0  0.42000  0.18117  0.76177  1.0000
  H   H627      1.0  0.18633  0.30461  0.80107  1.0000
  S   S79       1.0  0.24049  0.30214  0.77380  1.0000
  H   H628      1.0  0.07956  0.02759  0.91959  1.0000
  H   H629      1.0  0.13097  0.04124  0.81943  1.0000
  C   C359      1.0  0.05881  0.99837  0.93923  1.0000
  H   H630      1.0  0.16689  0.30030  0.93040  1.0000
  C   C360      1.0  0.42931  0.15920  0.74638  1.0000
  H   H631      1.0  0.02593  0.15903  0.94560  1.0000
  H   H632      1.0  0.04113  0.10917  0.91430  1.0000
  C   C361      1.0  0.47094  0.19765  0.75628  1.0000
  H   H633      1.0  0.14682  0.19906  0.75236  1.0000
  H   H634      1.0  0.14020  0.00399  0.97921  1.0000
  H   H635      1.0  0.23819  0.04234  0.78188  1.0000
  Fe  Fe44      1.0  0.15149  0.30311  0.97429  1.0000
  C   C362      1.0  0.06539  0.08172  0.88292  1.0000
  C   C363      1.0  0.38795  0.17218  0.75817  1.0000
  H   H636      1.0  0.16685  0.01864  0.79720  1.0000
  H   H637      1.0  0.20504  0.25017  0.73444  1.0000
  C   C364      1.0  0.30090  0.05703  0.74065  1.0000
  S   S80       1.0  0.47110  0.28726  0.73959  1.0000
  H   H638      1.0  0.16119  0.02823  0.82038  1.0000
  C   C365      1.0  0.29717  0.04035  0.75405  1.0000
  H   H639      1.0  0.27819  0.04081  0.75751  1.0000
  S   S81       1.0  0.24442  0.08881  0.73384  1.0000
  H   H640      1.0  0.48408  0.13894  0.74353  1.0000
  C   C366      1.0  0.00885  0.20788  0.97729  1.0000
  H   H641      1.0  0.16422  0.30767  0.76094  1.0000
  H   H642      1.0  0.39200  0.30887  0.75626  1.0000
  H   H643      1.0  0.17585  0.29993  0.78638  1.0000
  H   H644      1.0  0.00091  0.10734  0.93845  1.0000
  C   C367      1.0  0.99865  0.16147  0.96343  1.0000
  H   H645      1.0  0.00505  0.24395  0.96782  1.0000
  C   C368      1.0  0.08903  0.02460  0.97159  1.0000
  C   C369      1.0  0.32734  0.05653  0.73542  1.0000
  C   C370      1.0  0.12311  0.22725  0.97810  1.0000
  S   S82       1.0  0.11296  0.12043  0.98197  1.0000
  H   H646      1.0  0.40209  0.09678  0.73911  1.0000
  H   H647      1.0  0.20199  0.01731  0.97577  1.0000
  C   C371      1.0  0.17317  0.31510  0.75126  1.0000
  H   H648      1.0  0.49436  0.17375  0.73549  1.0000
  H   H649      1.0  0.42304  0.15665  0.73723  1.0000
  H   H650      1.0  0.20176  0.32027  0.75981  1.0000
  H   H651      1.0  0.12435  0.26241  0.97986  1.0000
  H   H652      1.0  0.09245  0.31847  0.93615  1.0000
  H   H653      1.0  0.33721  0.31704  0.73861  1.0000
  H   H654      1.0  0.99787  0.15463  0.94336  1.0000
  C   C372      1.0  0.14149  0.99441  0.94277  1.0000
  H   H655      1.0  0.22401  0.99164  0.97380  1.0000
  H   H656      1.0  0.04985  0.18043  0.98182  1.0000
  Fe  Fe45      1.0  0.15230  0.99307  0.89079  1.0000
  S   S83       1.0  0.08464  0.99304  0.87050  1.0000
  H   H657      1.0  0.03931  0.32057  0.94288  1.0000
  C   C373      1.0  0.20808  0.99910  0.98044  1.0000
  H   H658      1.0  0.19404  0.98913  0.98102  1.0000
  H   H659      1.0  0.29232  0.05180  0.73325  1.0000
  C   C374      1.0  0.49446  0.31396  0.77010  1.0000
  H   H660      1.0  0.99483  0.01489  0.90777  1.0000
  H   H661      1.0  0.12704  0.98811  0.93996  1.0000
  H   H662      1.0  0.05740  0.14948  0.98317  1.0000
  C   C375      1.0  0.16554  0.21655  0.73341  1.0000
  C   C376      1.0  0.12170  0.54709  0.98665  1.0000
  S   S84       1.0  0.41002  0.62251  0.15741  1.0000
  N   N20       1.0  0.03526  0.55716  0.98355  1.0000
  Fe  Fe46      1.0  0.38919  0.59390  0.16186  1.0000
  S   S85       1.0  0.38818  0.57456  0.14499  1.0000
  Fe  Fe47      1.0  0.15653  0.50656  0.02426  1.0000
  S   S86       1.0  0.17307  0.48015  0.04020  1.0000
  S   S87       1.0  0.17853  0.52001  0.00477  1.0000
  Fe  Fe48      1.0  0.10779  0.50628  0.03999  1.0000
  S   S88       1.0  0.12039  0.47994  0.05725  1.0000
  S   S89       1.0  0.07038  0.52202  0.03771  1.0000
  Fe  Fe49      1.0  0.14868  0.50094  0.05521  1.0000
  S   S90       1.0  0.16003  0.50625  0.07449  1.0000
  Fe  Fe50      1.0  0.14367  0.46165  0.04073  1.0000
  S   S91       1.0  0.14920  0.42259  0.04189  1.0000
  S   S92       1.0  0.13414  0.52881  0.03911  1.0000
  S   S93       1.0  0.12906  0.48648  0.02366  1.0000
  Fe  Fe51      1.0  0.21600  0.59811  0.12589  1.0000
  S   S94       1.0  0.23516  0.56493  0.11852  1.0000
  S   S95       1.0  0.18569  0.59595  0.14295  1.0000
  Fe  Fe52      1.0  0.24652  0.62736  0.10575  1.0000
  S   S96       1.0  0.26813  0.59669  0.09664  1.0000
  H   H663      1.0  0.05833  0.51658  0.21447  1.0000
  Fe  Fe53      1.0  0.23382  0.58548  0.09752  1.0000
  S   S97       1.0  0.22634  0.57466  0.07858  1.0000
  Fe  Fe54      1.0  0.26746  0.57913  0.11839  1.0000
  S   S98       1.0  0.29833  0.55528  0.12685  1.0000
  S   S99       1.0  0.21233  0.61783  0.10496  1.0000
  S   S100      1.0  0.24830  0.61048  0.12745  1.0000
  C   C377      1.0  0.06371  0.57181  0.01182  1.0000
  N   N21       1.0  0.47714  0.64400  0.13618  1.0000
  C   C378      1.0  0.09597  0.37131  0.02807  1.0000
  C   C379      1.0  0.09648  0.40315  0.07132  1.0000
  H   H664      1.0  0.10812  0.34022  0.01870  1.0000
  C   C380      1.0  0.16043  0.53443  0.99274  1.0000
  C   C381      1.0  0.17599  0.52755  0.07574  1.0000
  C   C382      1.0  0.18212  0.52805  0.08840  1.0000
  C   C383      1.0  0.19660  0.54319  0.08959  1.0000
  C   C384      1.0  0.20539  0.55778  0.07806  1.0000
  C   C385      1.0  0.19888  0.55759  0.06546  1.0000
  C   C386      1.0  0.18405  0.54277  0.06431  1.0000
  H   H665      1.0  0.17593  0.51641  0.09730  1.0000
  H   H666      1.0  0.20152  0.54310  0.09934  1.0000
  H   H667      1.0  0.20556  0.56882  0.05648  1.0000
  H   H668      1.0  0.17935  0.54273  0.05452  1.0000
  C   C387      1.0  0.04929  0.50426  0.04365  1.0000
  C   C388      1.0  0.05387  0.48333  0.05250  1.0000
  C   C389      1.0  0.03692  0.46910  0.05661  1.0000
  H   H669      1.0  0.27369  0.47572  0.05415  1.0000
  C   C390      1.0  0.02754  0.51117  0.03925  1.0000
  H   H670      1.0  0.07040  0.47816  0.05619  1.0000
  H   H671      1.0  0.04032  0.45309  0.06358  1.0000
  H   H672      1.0  0.10091  0.51676  0.21047  1.0000
  H   H673      1.0  0.02376  0.52755  0.03263  1.0000
  H   H674      1.0  0.47745  0.60168  0.12512  1.0000
  H   H675      1.0  0.47716  0.59795  0.21613  1.0000
  H   H676      1.0  0.11649  0.36605  0.00822  1.0000
  H   H677      1.0  0.34170  0.63184  0.11171  1.0000
  H   H678      1.0  0.23154  0.52770  0.04525  1.0000
  H   H679      1.0  0.04184  0.42014  0.03057  1.0000
  H   H680      1.0  0.12855  0.53145  0.00678  1.0000
  H   H681      1.0  0.46262  0.58616  0.20633  1.0000
  C   C391      1.0  0.37318  0.63502  0.12962  1.0000
  H   H682      1.0  0.12811  0.46666  0.98519  1.0000
  C   C392      1.0  0.15676  0.38860  0.00391  1.0000
  C   C393      1.0  0.46529  0.58550  0.21694  1.0000
  C   C394      1.0  0.15796  0.38564  0.02806  1.0000
  C   C395      1.0  0.15094  0.40976  0.02729  1.0000
  C   C396      1.0  0.14561  0.42309  0.01496  1.0000
  C   C397      1.0  0.14865  0.41256  0.00329  1.0000
  H   H683      1.0  0.16192  0.37513  0.03759  1.0000
  H   H684      1.0  0.13961  0.44157  0.01437  1.0000
  C   C398      1.0  0.49224  0.64534  0.12229  1.0000
  C   C399      1.0  0.36229  0.57123  0.13992  1.0000
  C   C400      1.0  0.36457  0.55656  0.13034  1.0000
  C   C401      1.0  0.34484  0.55268  0.12609  1.0000
  C   C402      1.0  0.32246  0.56400  0.13098  1.0000
  C   C403      1.0  0.31997  0.57917  0.14041  1.0000
  C   C404      1.0  0.33987  0.58255  0.14501  1.0000
  H   H685      1.0  0.38172  0.54764  0.12638  1.0000
  H   H686      1.0  0.34696  0.54058  0.11906  1.0000
  H   H687      1.0  0.30278  0.58773  0.14444  1.0000
  H   H688      1.0  0.33787  0.59360  0.15257  1.0000
  H   H689      1.0  0.23768  0.59126  0.20915  1.0000
  H   H690      1.0  0.40399  0.54312  0.21051  1.0000
  H   H691      1.0  0.16036  0.59280  0.16992  1.0000
  H   H692      1.0  0.07335  0.39956  0.01733  1.0000
  Fe  Fe55      1.0  0.10622  0.32772  0.98829  1.0000
  C   C405      1.0  0.19456  0.63188  0.15346  1.0000
  C   C406      1.0  0.18299  0.61308  0.15561  1.0000
  C   C407      1.0  0.16956  0.60713  0.16828  1.0000
  H   H693      1.0  0.20471  0.63672  0.14362  1.0000
  H   H694      1.0  0.99591  0.52129  0.23168  1.0000
  S   S101      1.0  0.07217  0.32410  0.00199  1.0000
  H   H695      1.0  0.26144  0.60577  0.22199  1.0000
  H   H696      1.0  0.07273  0.49948  0.22817  1.0000
  C   C408      1.0  0.42969  0.61504  0.21856  1.0000
  H   H697      1.0  0.30187  0.60807  0.23152  1.0000
  C   C409      1.0  0.48581  0.60440  0.17985  1.0000
  H   H698      1.0  0.27928  0.64768  0.16933  1.0000
  H   H699      1.0  0.45904  0.63366  0.21033  1.0000
  C   C410      1.0  0.17340  0.46812  0.98977  1.0000
  C   C411      1.0  0.05428  0.59334  0.21261  1.0000
  H   H700      1.0  0.18143  0.45341  0.01588  1.0000
  Fe  Fe56      1.0  0.14894  0.35002  0.98341  1.0000
  C   C412      1.0  0.30362  0.65371  0.21318  1.0000
  H   H701      1.0  0.08192  0.64869  0.17267  1.0000
  H   H702      1.0  0.48011  0.57078  0.14502  1.0000
  H   H703      1.0  0.48395  0.55979  0.23177  1.0000
  H   H704      1.0  0.29689  0.44326  0.04094  1.0000
  C   C413      1.0  0.08660  0.39765  0.02409  1.0000
  H   H705      1.0  0.29211  0.51681  0.17535  1.0000
  H   H706      1.0  0.00644  0.55217  0.99988  1.0000
  C   C414      1.0  0.26784  0.52853  0.16058  1.0000
  H   H707      1.0  0.44369  0.65113  0.12915  1.0000
  H   H708      1.0  0.03312  0.50651  0.99047  1.0000
  C   C415      1.0  0.01705  0.33916  0.02902  1.0000
  H   H709      1.0  0.16910  0.47987  0.99756  1.0000
  H   H710      1.0  0.19724  0.42699  0.01018  1.0000
  H   H711      1.0  0.22606  0.64428  0.20786  1.0000
  H   H712      1.0  0.00007  0.51887  0.01627  1.0000
  H   H713      1.0  0.44801  0.61378  0.13238  1.0000
  H   H714      1.0  0.46571  0.61858  0.15299  1.0000
  H   H715      1.0  0.02884  0.55086  0.21186  1.0000
  H   H716      1.0  0.08315  0.36254  0.03557  1.0000
  C   C416      1.0  0.01757  0.54291  0.99165  1.0000
  H   H717      1.0  0.45480  0.57155  0.13745  1.0000
  H   H718      1.0  0.20470  0.43088  0.03282  1.0000
  H   H719      1.0  0.08781  0.38374  0.05155  1.0000
  H   H720      1.0  0.18150  0.54828  0.16289  1.0000
  C   C417      1.0  0.01403  0.52413  0.22752  1.0000
  C   C418      1.0  0.02998  0.59819  0.21716  1.0000
  C   C419      1.0  0.42715  0.57476  0.22857  1.0000
  H   H721      1.0  0.26250  0.54539  0.21196  1.0000
  C   C420      1.0  0.25897  0.45322  0.04557  1.0000
  C   C421      1.0  0.35518  0.59255  0.22555  1.0000
  C   C422      1.0  0.23880  0.62769  0.20862  1.0000
  C   C423      1.0  0.24284  0.50006  0.06877  1.0000
  C   C424      1.0  0.22055  0.51843  0.02846  1.0000
  H   H722      1.0  0.42069  0.53132  0.22418  1.0000
  H   H723      1.0  0.26978  0.47744  0.08009  1.0000
  H   H724      1.0  0.10178  0.40442  0.01743  1.0000
  C   C425      1.0  0.01561  0.47553  0.05168  1.0000
  H   H725      1.0  0.14533  0.42301  0.99365  1.0000
  H   H726      1.0  0.40989  0.58224  0.21049  1.0000
  S   S102      1.0  0.40465  0.57711  0.18089  1.0000
  H   H727      1.0  0.21920  0.48015  0.04605  1.0000
  C   C426      1.0  0.25922  0.46569  0.05765  1.0000
  H   H728      1.0  0.24907  0.52605  0.08766  1.0000
  C   C427      1.0  0.10218  0.35913  0.01557  1.0000
  C   C428      1.0  0.21019  0.45882  0.99888  1.0000
  C   C429      1.0  0.25496  0.61241  0.16500  1.0000
  H   H729      1.0  0.49293  0.62952  0.19030  1.0000
  C   C430      1.0  0.01623  0.39364  0.05066  1.0000
  C   C431      1.0  0.01079  0.49678  0.04320  1.0000
  H   H730      1.0  0.29170  0.65067  0.14435  1.0000
  H   H731      1.0  0.06412  0.54185  0.99465  1.0000
  H   H732      1.0  0.00978  0.52966  0.19983  1.0000
  C   C432      1.0  0.47589  0.61912  0.14250  1.0000
  H   H733      1.0  0.46832  0.63434  0.11136  1.0000
  C   C433      1.0  0.26377  0.51165  0.08534  1.0000
  H   H734      1.0  0.03352  0.55685  0.01260  1.0000
  C   C434      1.0  0.13621  0.53703  0.99639  1.0000
  C   C435      1.0  0.16833  0.61934  0.17896  1.0000
  S   S103      1.0  0.35704  0.61449  0.17238  1.0000
  C   C436      1.0  0.05080  0.41288  0.03955  1.0000
  H   H735      1.0  0.08358  0.54533  0.21090  1.0000
  H   H736      1.0  0.07650  0.55531  0.01315  1.0000
  H   H737      1.0  0.33137  0.63485  0.19975  1.0000
  H   H738      1.0  0.27233  0.50532  0.09453  1.0000
  H   H739      1.0  0.25522  0.56853  0.18994  1.0000
  C   C437      1.0  0.19907  0.44415  0.01198  1.0000
  Fe  Fe57      1.0  0.42238  0.60807  0.17743  1.0000
  C   C438      1.0  0.22573  0.60835  0.20852  1.0000
  C   C439      1.0  0.21757  0.52954  0.16161  1.0000
  H   H740      1.0  0.11216  0.36867  0.03257  1.0000
  H   H741      1.0  0.12146  0.64332  0.17894  1.0000
  H   H742      1.0  0.18623  0.51987  0.15814  1.0000
  H   H743      1.0  0.26146  0.51184  0.16388  1.0000
  H   H744      1.0  0.22882  0.51690  0.15527  1.0000
  C   C440      1.0  0.36348  0.61275  0.22551  1.0000
  S   S104      1.0  0.45555  0.61613  0.18205  1.0000
  H   H745      1.0  0.20506  0.50142  0.05603  1.0000
  C   C441      1.0  0.26006  0.57011  0.16216  1.0000
  H   H746      1.0  0.22685  0.51292  0.07151  1.0000
  H   H747      1.0  0.26608  0.61614  0.15495  1.0000
  H   H748      1.0  0.00616  0.63266  0.18323  1.0000
  H   H749      1.0  0.23328  0.54553  0.20943  1.0000
  C   C442      1.0  0.18047  0.63760  0.17701  1.0000
  H   H750      1.0  0.23093  0.58978  0.17513  1.0000
  H   H751      1.0  0.24188  0.62829  0.16680  1.0000
  C   C443      1.0  0.08232  0.41503  0.05997  1.0000
  H   H752      1.0  0.45129  0.58304  0.15303  1.0000
  C   C444      1.0  0.24251  0.59251  0.16517  1.0000
  H   H753      1.0  0.23130  0.59790  0.15715  1.0000
  H   H754      1.0  0.26591  0.60795  0.17320  1.0000
  C   C445      1.0  0.25211  0.53946  0.20575  1.0000
  H   H755      1.0  0.07293  0.58544  0.00539  1.0000
  C   C446      1.0  0.02709  0.51797  0.99833  1.0000
  H   H756      1.0  0.19566  0.54355  0.14589  1.0000
  C   C447      1.0  0.23332  0.51169  0.04079  1.0000
  H   H757      1.0  0.25213  0.50553  0.03723  1.0000
  H   H758      1.0  0.22544  0.55000  0.18516  1.0000
  H   H759      1.0  0.25594  0.52018  0.20729  1.0000
  S   S105      1.0  0.35120  0.58508  0.21034  1.0000
  H   H760      1.0  0.15784  0.61461  0.18867  1.0000
  H   H761      1.0  0.40809  0.64340  0.12396  1.0000
  H   H762      1.0  0.31060  0.51081  0.14550  1.0000
  H   H763      1.0  0.25471  0.51001  0.06112  1.0000
  C   C448      1.0  0.19334  0.64411  0.16420  1.0000
  N   N22       1.0  0.23681  0.48127  0.06274  1.0000
  C   C449      1.0  0.24997  0.62319  0.22175  1.0000
  C   C450      1.0  0.30887  0.50497  0.15670  1.0000
  H   H764      1.0  0.99732  0.56015  0.19809  1.0000
  C   C451      1.0  0.22271  0.49295  0.05157  1.0000
  H   H765      1.0  0.04764  0.55046  0.22902  1.0000
  H   H766      1.0  0.30209  0.48846  0.15929  1.0000
  H   H767      1.0  0.21717  0.45633  0.02525  1.0000
  H   H768      1.0  0.25234  0.62826  0.19937  1.0000
  H   H769      1.0  0.04336  0.42529  0.04686  1.0000
  H   H770      1.0  0.21472  0.56492  0.16434  1.0000
  C   C452      1.0  0.05318  0.55900  0.99178  1.0000
  H   H771      1.0  0.22615  0.43370  0.06800  1.0000
  C   C453      1.0  0.21186  0.44861  0.06997  1.0000
  S   S106      1.0  0.12175  0.64194  0.21530  1.0000
  H   H772      1.0  0.01512  0.49014  0.01349  1.0000
  H   H773      1.0  0.05680  0.57696  0.02202  1.0000
  H   H774      1.0  0.28244  0.42128  0.05221  1.0000
  Fe  Fe58      1.0  0.16065  0.63492  0.21002  1.0000
  H   H775      1.0  0.10309  0.54898  0.98964  1.0000
  H   H776      1.0  0.40721  0.61295  0.12595  1.0000
  C   C454      1.0  0.19379  0.53576  0.15685  1.0000
  H   H777      1.0  0.23099  0.42838  0.02039  1.0000
  H   H778      1.0  0.28848  0.63662  0.11603  1.0000
  S   S107      1.0  0.39187  0.62885  0.18947  1.0000
  H   H779      1.0  0.04587  0.37859  0.03746  1.0000
  C   C455      1.0  0.22867  0.55138  0.16000  1.0000
  C   C456      1.0  0.24391  0.54194  0.18172  1.0000
  H   H780      1.0  0.21508  0.52100  0.17241  1.0000
  C   C457      1.0  0.29810  0.64417  0.16497  1.0000
  C   C458      1.0  0.02151  0.60207  0.23057  1.0000
  H   H781      1.0  0.09105  0.41290  0.08006  1.0000
  C   C459      1.0  0.00785  0.50767  0.00838  1.0000
  H   H782      1.0  0.20666  0.48026  0.07854  1.0000
  H   H783      1.0  0.02392  0.33424  0.99873  1.0000
  H   H784      1.0  0.01049  0.37671  0.05440  1.0000
  H   H785      1.0  0.00566  0.34690  0.03769  1.0000
  C   C460      1.0  0.25479  0.49189  0.08166  1.0000
  C   C461      1.0  0.22170  0.46794  0.07392  1.0000
  H   H786      1.0  0.03227  0.58614  0.00363  1.0000
  H   H787      1.0  0.30389  0.62518  0.16506  1.0000
  Fe  Fe59      1.0  0.37328  0.59951  0.19119  1.0000
  H   H788      1.0  0.24208  0.48605  0.09060  1.0000
  H   H789      1.0  0.26501  0.45222  0.06619  1.0000
  C   C462      1.0  0.25856  0.54938  0.19072  1.0000
  H   H790      1.0  0.24445  0.52291  0.18469  1.0000
  H   H791      1.0  0.23152  0.45909  0.08235  1.0000
  H   H792      1.0  0.20307  0.45480  0.06091  1.0000
  H   H793      1.0  0.30989  0.61525  0.10790  1.0000
  H   H794      1.0  0.23237  0.55806  0.14887  1.0000
  C   C463      1.0  0.04253  0.38963  0.04552  1.0000
  S   S108      1.0  0.10051  0.58636  0.21553  1.0000
  C   C464      1.0  0.99937  0.54370  0.20544  1.0000
  H   H795      1.0  0.37378  0.63220  0.14070  1.0000
  N   N23       1.0  0.25038  0.54800  0.16641  1.0000
  H   H796      1.0  0.27670  0.51842  0.07685  1.0000
  C   C465      1.0  0.46281  0.58116  0.14310  1.0000
  N   N24       1.0  0.26364  0.64102  0.22298  1.0000
  C   C466      1.0  0.42159  0.56766  0.21578  1.0000
  H   H797      1.0  0.22239  0.50332  0.02320  1.0000
  H   H798      1.0  0.27562  0.56917  0.16689  1.0000
  H   H799      1.0  0.18728  0.42545  0.07857  1.0000
  H   H800      1.0  0.22911  0.45108  0.99711  1.0000
  H   H801      1.0  0.02229  0.50920  0.22207  1.0000
  C   C467      1.0  0.19377  0.43954  0.08156  1.0000
  H   H802      1.0  0.09930  0.46800  0.00892  1.0000
  C   C468      1.0  0.07017  0.59292  0.22133  1.0000
  C   C469      1.0  0.32424  0.63682  0.11780  1.0000
  C   C470      1.0  0.00088  0.65171  0.18306  1.0000
  H   H803      1.0  0.12795  0.49266  0.99193  1.0000
  H   H804      1.0  0.17860  0.45366  0.08370  1.0000
  H   H805      1.0  0.26652  0.57260  0.15097  1.0000
  C   C471      1.0  0.48787  0.65397  0.14559  1.0000
  C   C472      1.0  0.16092  0.37508  0.01641  1.0000
  H   H806      1.0  0.07229  0.48041  0.00261  1.0000
  H   H807      1.0  0.07506  0.48325  0.01959  1.0000
  H   H808      1.0  0.20156  0.43256  0.09098  1.0000
  H   H809      1.0  0.27754  0.54372  0.18768  1.0000
  H   H810      1.0  0.43755  0.56272  0.20844  1.0000
  C   C473      1.0  0.44130  0.63667  0.21641  1.0000
  C   C474      1.0  0.01160  0.54653  0.21678  1.0000
  S   S109      1.0  0.16613  0.37701  0.98859  1.0000
  H   H811      1.0  0.20167  0.52508  0.03168  1.0000
  H   H812      1.0  0.28075  0.42686  0.03426  1.0000
  C   C475      1.0  0.08001  0.47151  0.01181  1.0000
  H   H813      1.0  0.36428  0.62179  0.12772  1.0000
  C   C476      1.0  0.04363  0.56886  0.00527  1.0000
  H   H814      1.0  0.21820  0.61157  0.19896  1.0000
  C   C477      1.0  0.07110  0.44880  0.01729  1.0000
  H   H815      1.0  0.10017  0.43633  0.02870  1.0000
  H   H816      1.0  0.07320  0.44756  0.03819  1.0000
  H   H817      1.0  0.07607  0.43809  0.00902  1.0000
  H   H818      1.0  0.16754  0.35663  0.01694  1.0000
  H   H819      1.0  0.01786  0.59867  0.21035  1.0000
  H   H820      1.0  0.06080  0.59005  0.20228  1.0000
  H   H821      1.0  0.05131  0.38018  0.05422  1.0000
  C   C478      1.0  0.08110  0.43618  0.03044  1.0000
  H   H822      1.0  0.05174  0.45322  0.01952  1.0000
  C   C479      1.0  0.21397  0.43973  0.02328  1.0000
  H   H823      1.0  0.08672  0.36160  0.01046  1.0000
  H   H824      1.0  0.27889  0.64814  0.20171  1.0000
  H   H825      1.0  0.32654  0.50170  0.15959  1.0000
  H   H826      1.0  0.08555  0.43307  0.05722  1.0000
  H   H827      1.0  0.25809  0.46594  0.03603  1.0000
  S   S110      1.0  0.16405  0.59643  0.21608  1.0000
  C   C480      1.0  0.32820  0.65341  0.14422  1.0000
  C   C481      1.0  0.28116  0.43507  0.04314  1.0000
  N   N25       1.0  0.19958  0.46085  0.98617  1.0000
  C   C482      1.0  0.46549  0.60493  0.13472  1.0000
  H   H828      1.0  0.22799  0.53237  0.02110  1.0000
  H   H829      1.0  0.01188  0.40380  0.05922  1.0000
  H   H830      1.0  0.06361  0.41525  0.06424  1.0000
  H   H831      1.0  0.11542  0.40291  0.06763  1.0000
  H   H832      1.0  0.26969  0.53192  0.14922  1.0000
  Fe  Fe60      1.0  0.12507  0.60380  0.22297  1.0000
  H   H833      1.0  0.30091  0.53920  0.16161  1.0000
  H   H834      1.0  0.04557  0.63596  0.19164  1.0000
  H   H835      1.0  0.20926  0.47635  0.00144  1.0000
  N   N26       1.0  0.07681  0.41172  0.03556  1.0000
  C   C483      1.0  0.08961  0.40199  0.04754  1.0000
  H   H836      1.0  0.09354  0.38508  0.07493  1.0000
  H   H837      1.0  0.16554  0.45280  0.99461  1.0000
  H   H838      1.0  0.10868  0.40140  0.04412  1.0000
  H   H839      1.0  0.36718  0.62426  0.21610  1.0000
  H   H840      1.0  0.24387  0.44439  0.04727  1.0000
  H   H841      1.0  0.42776  0.61256  0.20829  1.0000
  H   H842      1.0  0.29325  0.62236  0.21065  1.0000
  C   C484      1.0  0.29271  0.52358  0.16433  1.0000
  C   C485      1.0  0.39832  0.63071  0.12215  1.0000
  C   C486      1.0  0.47928  0.56106  0.22154  1.0000
  H   H843      1.0  0.04134  0.51738  0.00406  1.0000
  H   H844      1.0  0.30656  0.64532  0.10001  1.0000
  H   H845      1.0  0.33370  0.63444  0.14456  1.0000
  H   H846      1.0  0.32264  0.62475  0.12754  1.0000
  Fe  Fe61      1.0  0.37903  0.64170  0.16959  1.0000
  S   S111      1.0  0.16650  0.64117  0.23003  1.0000
  H   H847      1.0  0.46916  0.54733  0.22186  1.0000
  C   C487      1.0  0.28456  0.64056  0.21173  1.0000
  H   H848      1.0  0.21127  0.60777  0.21730  1.0000
  H   H849      1.0  0.44262  0.64125  0.22629  1.0000
  H   H850      1.0  0.00640  0.40317  0.04236  1.0000
  C   C488      1.0  0.32320  0.65307  0.20090  1.0000
  C   C489      1.0  0.06680  0.51745  0.22313  1.0000
  C   C490      1.0  0.30617  0.63343  0.10992  1.0000
  C   C491      1.0  0.08848  0.52814  0.21716  1.0000
  H   H851      1.0  0.09745  0.53031  0.22536  1.0000
  H   H852      1.0  0.00104  0.56148  0.22153  1.0000
  H   H853      1.0  0.41149  0.61948  0.22386  1.0000
  H   H854      1.0  0.00963  0.34702  0.01957  1.0000
  H   H855      1.0  0.00517  0.54112  0.98517  1.0000
  H   H856      1.0  0.05138  0.64022  0.21425  1.0000
  C   C492      1.0  0.40906  0.54694  0.21971  1.0000
  H   H857      1.0  0.39295  0.55078  0.22719  1.0000
  S   S112      1.0  0.17995  0.65197  0.19065  1.0000
  H   H858      1.0  0.23599  0.62110  0.23075  1.0000
  H   H859      1.0  0.08310  0.64109  0.19671  1.0000
  N   N27       1.0  0.44237  0.59289  0.22585  1.0000
  H   H860      1.0  0.00660  0.64930  0.20356  1.0000
  S   S113      1.0  0.99546  0.45660  0.05579  1.0000
  H   H861      1.0  0.19763  0.42431  0.98935  1.0000
  H   H862      1.0  0.01027  0.58795  0.98847  1.0000
  H   H863      1.0  0.03470  0.34346  0.02786  1.0000
  H   H864      1.0  0.30803  0.64999  0.17147  1.0000
  H   H865      1.0  0.39856  0.63210  0.11103  1.0000
  H   H866      1.0  0.48856  0.64544  0.08813  1.0000
  H   H867      1.0  0.48452  0.57693  0.16923  1.0000
  H   H868      1.0  0.31184  0.64560  0.22233  1.0000
  C   C493      1.0  0.47993  0.64710  0.10980  1.0000
  H   H869      1.0  0.06555  0.56998  0.98538  1.0000
  H   H870      1.0  0.49356  0.60889  0.14365  1.0000
  H   H871      1.0  0.42638  0.65468  0.19830  1.0000
  H   H872      1.0  0.47671  0.65351  0.15585  1.0000
  H   H873      1.0  0.31988  0.63701  0.34337  1.0000
  C   C494      1.0  0.44741  0.59635  0.23928  1.0000
  C   C495      1.0  0.34969  0.57814  0.23793  1.0000
  H   H874      1.0  0.45543  0.57953  0.24488  1.0000
  C   C496      1.0  0.36377  0.34102  0.44633  1.0000
  H   H875      1.0  0.28390  0.61588  0.26116  1.0000
  H   H876      1.0  0.36609  0.47917  0.42235  1.0000
  H   H877      1.0  0.34385  0.35146  0.39391  1.0000
  H   H878      1.0  0.38490  0.45968  0.47181  1.0000
  H   H879      1.0  0.99983  0.50208  0.26299  1.0000
  S   S114      1.0  0.12866  0.60622  0.24438  1.0000
  C   C497      1.0  0.46473  0.36008  0.44542  1.0000
  C   C498      1.0  0.49111  0.36103  0.44303  1.0000
  H   H880      1.0  0.30521  0.59156  0.25627  1.0000
  C   C499      1.0  0.28714  0.61141  0.23991  1.0000
  C   C500      1.0  0.42195  0.48463  0.46379  1.0000
  H   H881      1.0  0.46441  0.62297  0.44672  1.0000
  S   S115      1.0  0.28422  0.60864  0.31231  1.0000
  Fe  Fe62      1.0  0.33514  0.60714  0.28259  1.0000
  S   S116      1.0  0.31161  0.58061  0.28740  1.0000
  S   S117      1.0  0.36495  0.61133  0.26535  1.0000
  Fe  Fe63      1.0  0.28259  0.61153  0.29010  1.0000
  S   S118      1.0  0.24729  0.62477  0.28307  1.0000
  Fe  Fe64      1.0  0.31551  0.58023  0.30930  1.0000
  S   S119      1.0  0.31774  0.55064  0.32720  1.0000
  S   S120      1.0  0.30600  0.63788  0.28391  1.0000
  S   S121      1.0  0.34116  0.60433  0.30409  1.0000
  Fe  Fe65      1.0  0.46795  0.47312  0.38364  1.0000
  S   S122      1.0  0.44862  0.50958  0.37945  1.0000
  H   H882      1.0  0.49154  0.39904  0.42473  1.0000
  Fe  Fe66      1.0  0.42439  0.45469  0.39818  1.0000
  S   S123      1.0  0.40121  0.48995  0.39477  1.0000
  S   S124      1.0  0.41083  0.42526  0.41322  1.0000
  Fe  Fe67      1.0  0.42152  0.49399  0.37345  1.0000
  S   S125      1.0  0.41148  0.51311  0.35296  1.0000
  Fe  Fe68      1.0  0.43004  0.50268  0.40084  1.0000
  C   C501      1.0  0.33603  0.32250  0.40873  1.0000
  S   S126      1.0  0.44243  0.45739  0.37633  1.0000
  S   S127      1.0  0.45170  0.46747  0.40563  1.0000
  S   S128      1.0  0.43636  0.56654  0.47931  1.0000
  H   H883      1.0  0.35461  0.49308  0.43717  1.0000
  C   C502      1.0  0.27107  0.63529  0.23683  1.0000
  H   H884      1.0  0.44498  0.62358  0.25944  1.0000
  N   N28       1.0  0.41390  0.46869  0.45653  1.0000
  H   H885      1.0  0.42938  0.42215  0.47228  1.0000
  H   H886      1.0  0.38219  0.45588  0.44234  1.0000
  H   H887      1.0  0.30622  0.33550  0.39792  1.0000
  H   H888      1.0  0.46069  0.60765  0.23759  1.0000
  H   H889      1.0  0.45472  0.59683  0.44591  1.0000
  H   H890      1.0  0.42267  0.34308  0.43304  1.0000
  C   C503      1.0  0.47437  0.50888  0.43705  1.0000
  C   C504      1.0  0.02143  0.54299  0.26079  1.0000
  H   H891      1.0  0.48835  0.64760  0.45893  1.0000
  H   H892      1.0  0.03787  0.55002  0.25802  1.0000
  H   H893      1.0  0.41929  0.59871  0.31059  1.0000
  H   H894      1.0  0.46554  0.49911  0.41954  1.0000
  H   H895      1.0  0.39487  0.36863  0.38156  1.0000
  H   H896      1.0  0.43754  0.46908  0.43729  1.0000
  C   C505      1.0  0.29746  0.60986  0.25280  1.0000
  H   H897      1.0  0.06829  0.64018  0.23551  1.0000
  C   C506      1.0  0.46498  0.61011  0.44006  1.0000
  C   C507      1.0  0.37377  0.33594  0.42143  1.0000
  H   H898      1.0  0.38870  0.50883  0.46857  1.0000
  C   C508      1.0  0.34367  0.54092  0.33457  1.0000
  C   C509      1.0  0.34280  0.52774  0.34773  1.0000
  C   C510      1.0  0.36326  0.51930  0.35367  1.0000
  C   C511      1.0  0.38487  0.52368  0.34638  1.0000
  C   C512      1.0  0.38565  0.53696  0.33326  1.0000
  C   C513      1.0  0.36520  0.54568  0.32743  1.0000
  H   H899      1.0  0.32624  0.52394  0.35333  1.0000
  H   H900      1.0  0.36239  0.50912  0.36376  1.0000
  H   H901      1.0  0.40227  0.54038  0.32753  1.0000
  H   H902      1.0  0.36619  0.55553  0.31725  1.0000
  C   C514      1.0  0.36102  0.60396  0.25015  1.0000
  C   C515      1.0  0.35284  0.58371  0.25021  1.0000
  Fe  Fe69      1.0  0.12774  0.64400  0.23610  1.0000
  H   H903      1.0  0.38003  0.49043  0.45427  1.0000
  C   C516      1.0  0.44783  0.54098  0.44622  1.0000
  H   H904      1.0  0.44241  0.59414  0.26750  1.0000
  H   H905      1.0  0.34883  0.57239  0.25973  1.0000
  H   H906      1.0  0.02393  0.45446  0.25509  1.0000
  H   H907      1.0  0.32330  0.62018  0.35958  1.0000
  H   H908      1.0  0.43587  0.47524  0.46975  1.0000
  H   H909      1.0  0.36206  0.38096  0.40781  1.0000
  H   H910      1.0  0.39658  0.43907  0.46078  1.0000
  H   H911      1.0  0.20699  0.63123  0.30874  1.0000
  H   H912      1.0  0.46330  0.33809  0.46537  1.0000
  H   H913      1.0  0.39521  0.48539  0.48229  1.0000
  C   C517      1.0  0.21302  0.59424  0.25558  1.0000
  C   C518      1.0  0.23294  0.58113  0.26079  1.0000
  C   C519      1.0  0.24441  0.59052  0.26877  1.0000
  C   C520      1.0  0.23600  0.61314  0.27152  1.0000
  C   C521      1.0  0.21680  0.62655  0.26578  1.0000
  C   C522      1.0  0.20526  0.61715  0.25791  1.0000
  H   H914      1.0  0.23911  0.56340  0.25900  1.0000
  H   H915      1.0  0.25925  0.58002  0.27312  1.0000
  H   H916      1.0  0.42118  0.52631  0.47206  1.0000
  H   H917      1.0  0.18996  0.62746  0.25400  1.0000
  C   C523      1.0  0.43906  0.34794  0.41202  1.0000
  C   C524      1.0  0.42676  0.35557  0.42406  1.0000
  C   C525      1.0  0.41873  0.37939  0.42437  1.0000
  C   C526      1.0  0.42356  0.39583  0.41277  1.0000
  C   C527      1.0  0.43698  0.38829  0.40093  1.0000
  C   C528      1.0  0.44449  0.36438  0.40052  1.0000
  H   H918      1.0  0.40837  0.38507  0.43357  1.0000
  H   H919      1.0  0.44069  0.40082  0.39190  1.0000
  H   H920      1.0  0.45409  0.35860  0.39117  1.0000
  C   C529      1.0  0.39652  0.48359  0.44781  1.0000
  H   H921      1.0  0.38254  0.33894  0.44709  1.0000
  C   C530      1.0  0.38936  0.47162  0.43733  1.0000
  H   H922      1.0  0.43588  0.35570  0.46196  1.0000
  Fe  Fe70      1.0  0.47111  0.54293  0.47614  1.0000
  C   C531      1.0  0.45835  0.45004  0.45203  1.0000
  C   C532      1.0  0.00387  0.55922  0.26946  1.0000
  C   C533      1.0  0.37066  0.48802  0.42987  1.0000
  H   H923      1.0  0.45676  0.61925  0.43106  1.0000
  H   H924      1.0  0.48201  0.46247  0.47372  1.0000
  C   C534      1.0  0.43424  0.45715  0.44712  1.0000
  H   H925      1.0  0.29143  0.59857  0.36106  1.0000
  H   H926      1.0  0.38372  0.41030  0.37349  1.0000
  H   H927      1.0  0.33370  0.35863  0.41037  1.0000
  S   S129      1.0  0.19751  0.58112  0.24692  1.0000
  H   H928      1.0  0.48279  0.56912  0.40305  1.0000
  H   H929      1.0  0.03101  0.60432  0.24968  1.0000
  C   C535      1.0  0.43385  0.54267  0.43627  1.0000
  C   C536      1.0  0.45495  0.35547  0.46062  1.0000
  C   C537      1.0  0.46044  0.51064  0.42703  1.0000
  Fe  Fe71      1.0  0.30978  0.63265  0.30586  1.0000
  C   C538      1.0  0.37595  0.36834  0.40264  1.0000
  H   H930      1.0  0.43016  0.49779  0.45612  1.0000
  H   H931      1.0  0.36469  0.36893  0.42965  1.0000
  H   H932      1.0  0.45732  0.44080  0.46262  1.0000
  C   C539      1.0  0.37886  0.37821  0.38714  1.0000
  H   H933      1.0  0.46575  0.46576  0.45159  1.0000
  H   H934      1.0  0.44292  0.55288  0.45348  1.0000
  C   C540      1.0  0.45160  0.65195  0.48268  1.0000
  H   H935      1.0  0.49166  0.54924  0.38335  1.0000
  H   H936      1.0  0.34049  0.35401  0.43170  1.0000
  C   C541      1.0  0.40169  0.45097  0.46638  1.0000
  C   C542      1.0  0.49180  0.58176  0.42565  1.0000
  N   N29       1.0  0.35559  0.61995  0.34517  1.0000
  C   C543      1.0  0.36561  0.61122  0.33182  1.0000
  C   C544      1.0  0.32948  0.62044  0.34845  1.0000
  H   H937      1.0  0.36515  0.41447  0.38950  1.0000
  C   C545      1.0  0.36768  0.60590  0.35672  1.0000
  C   C546      1.0  0.36698  0.57965  0.35969  1.0000
  C   C547      1.0  0.39243  0.60889  0.32733  1.0000
  H   H938      1.0  0.42982  0.44160  0.44436  1.0000
  C   C548      1.0  0.32000  0.60126  0.34399  1.0000
  C   C549      1.0  0.29413  0.60196  0.34974  1.0000
  C   C550      1.0  0.38331  0.56661  0.36975  1.0000
  C   C551      1.0  0.40004  0.60060  0.31350  1.0000
  H   H939      1.0  0.31113  0.62073  0.25076  1.0000
  H   H940      1.0  0.35701  0.62294  0.32353  1.0000
  H   H941      1.0  0.36174  0.59385  0.33191  1.0000
  H   H942      1.0  0.45776  0.36893  0.46599  1.0000
  H   H943      1.0  0.07370  0.59627  0.24155  1.0000
  C   C552      1.0  0.38116  0.40376  0.38462  1.0000
  C   C553      1.0  0.43994  0.52735  0.42676  1.0000
  H   H944      1.0  0.38623  0.60806  0.35501  1.0000
  H   H945      1.0  0.35975  0.61253  0.36643  1.0000
  H   H946      1.0  0.37241  0.57165  0.35033  1.0000
  H   H947      1.0  0.34908  0.57691  0.36439  1.0000
  H   H948      1.0  0.21055  0.64419  0.26765  1.0000
  H   H949      1.0  0.40186  0.59600  0.33480  1.0000
  H   H950      1.0  0.41634  0.62310  0.24461  1.0000
  C   C554      1.0  0.42595  0.60634  0.24929  1.0000
  H   H951      1.0  0.32156  0.60408  0.33273  1.0000
  H   H952      1.0  0.32956  0.58363  0.34724  1.0000
  H   H953      1.0  0.46145  0.34622  0.44067  1.0000
  H   H954      1.0  0.48344  0.34231  0.42063  1.0000
  H   H955      1.0  0.28370  0.61911  0.34617  1.0000
  H   H956      1.0  0.40179  0.56744  0.36522  1.0000
  H   H957      1.0  0.37886  0.57392  0.37941  1.0000
  H   H958      1.0  0.38161  0.54804  0.37214  1.0000
  H   H959      1.0  0.39521  0.58348  0.31395  1.0000
  H   H960      1.0  0.39173  0.61334  0.30549  1.0000
  H   H961      1.0  0.49269  0.42959  0.44652  1.0000
  C   C555      1.0  0.00898  0.49119  0.25514  1.0000
  Fe  Fe72      1.0  0.16747  0.60303  0.23667  1.0000
  C   C556      1.0  0.06162  0.59689  0.23469  1.0000
  H   H962      1.0  0.37726  0.50388  0.42431  1.0000
  N   N30       1.0  0.19286  0.58762  0.31010  1.0000
  C   C557      1.0  0.18386  0.56992  0.30475  1.0000
  C   C558      1.0  0.18344  0.58659  0.32510  1.0000
  C   C559      1.0  0.18502  0.61131  0.30220  1.0000
  C   C560      1.0  0.21921  0.58271  0.30829  1.0000
  C   C561      1.0  0.23083  0.55783  0.31411  1.0000
  C   C562      1.0  0.19388  0.56682  0.28975  1.0000
  C   C563      1.0  0.03743  0.60140  0.23928  1.0000
  C   C564      1.0  0.15648  0.59308  0.32886  1.0000
  C   C565      1.0  0.14924  0.59419  0.34408  1.0000
  C   C566      1.0  0.25745  0.55502  0.31137  1.0000
  C   C567      1.0  0.18361  0.54857  0.28540  1.0000
  H   H963      1.0  0.00049  0.57703  0.26361  1.0000
  H   H964      1.0  0.16458  0.57477  0.30526  1.0000
  H   H965      1.0  0.18687  0.55265  0.31131  1.0000
  H   H966      1.0  0.18838  0.56873  0.33064  1.0000
  H   H967      1.0  0.19167  0.59770  0.32968  1.0000
  H   H968      1.0  0.16633  0.61387  0.30106  1.0000
  H   H969      1.0  0.19461  0.61269  0.29159  1.0000
  H   H970      1.0  0.22674  0.58608  0.29734  1.0000
  H   H971      1.0  0.22557  0.59492  0.31308  1.0000
  H   H972      1.0  0.22623  0.54456  0.30936  1.0000
  H   H973      1.0  0.22548  0.55398  0.32531  1.0000
  H   H974      1.0  0.18952  0.58330  0.28277  1.0000
  H   H975      1.0  0.21310  0.56114  0.28827  1.0000
  C   C568      1.0  0.46787  0.52382  0.44679  1.0000
  C   C569      1.0  0.36642  0.61843  0.23780  1.0000
  H   H976      1.0  0.14937  0.61017  0.32323  1.0000
  H   H977      1.0  0.14800  0.57981  0.32650  1.0000
  H   H978      1.0  0.12989  0.59846  0.34656  1.0000
  H   H979      1.0  0.15536  0.57720  0.35024  1.0000
  H   H980      1.0  0.15659  0.60786  0.34692  1.0000
  H   H981      1.0  0.26324  0.56662  0.31683  1.0000
  H   H982      1.0  0.26546  0.53687  0.31509  1.0000
  H   H983      1.0  0.26393  0.55905  0.30027  1.0000
  H   H984      1.0  0.19116  0.54679  0.27462  1.0000
  H   H985      1.0  0.18786  0.53143  0.29186  1.0000
  H   H986      1.0  0.16436  0.55387  0.28608  1.0000
  H   H987      1.0  0.39249  0.33399  0.42226  1.0000
  C   C570      1.0  0.35948  0.35166  0.43184  1.0000
  S   S130      1.0  0.44862  0.62922  0.47468  1.0000
  H   H988      1.0  0.40351  0.49914  0.44190  1.0000
  H   H989      1.0  0.28789  0.58833  0.34611  1.0000
  C   C571      1.0  0.43332  0.61058  0.26210  1.0000
  H   H990      1.0  0.41374  0.59394  0.25265  1.0000
  H   H991      1.0  0.41811  0.55574  0.43604  1.0000
  C   C572      1.0  0.01539  0.46639  0.26252  1.0000
  S   S131      1.0  0.42117  0.52922  0.41501  1.0000
  N   N31       1.0  0.02685  0.52442  0.23896  1.0000
  H   H992      1.0  0.40449  0.46655  0.42944  1.0000
  H   H993      1.0  0.45470  0.37688  0.44105  1.0000
  C   C573      1.0  0.47559  0.43441  0.44289  1.0000
  H   H994      1.0  0.48474  0.59257  0.41660  1.0000
  H   H995      1.0  0.46895  0.41828  0.44320  1.0000
  H   H996      1.0  0.05993  0.53057  0.24206  1.0000
  H   H997      1.0  0.35585  0.65063  0.36453  1.0000
  H   H998      1.0  0.47378  0.38295  0.41979  1.0000
  H   H999      1.0  0.39237  0.36910  0.40611  1.0000
  H   H1000     1.0  0.01098  0.56010  0.27867  1.0000
  H   H1001     1.0  0.02481  0.52580  0.26726  1.0000
  H   H1002     1.0  0.42360  0.44506  0.48257  1.0000
  C   C574      1.0  0.03108  0.50027  0.24698  1.0000
  C   C575      1.0  0.38776  0.32848  0.39772  1.0000
  C   C576      1.0  0.40287  0.49773  0.47382  1.0000
  H   H1003     1.0  0.36374  0.37712  0.38257  1.0000
  N   N32       1.0  0.37059  0.34406  0.40672  1.0000
  H   H1004     1.0  0.35350  0.35256  0.45362  1.0000
  H   H1005     1.0  0.41753  0.61736  0.26911  1.0000
  S   S132      1.0  0.48481  0.52040  0.45969  1.0000
  C   C577      1.0  0.01205  0.54153  0.24777  1.0000
  H   H1006     1.0  0.01020  0.55926  0.24185  1.0000
  H   H1007     1.0  0.39640  0.40597  0.38873  1.0000
  H   H1008     1.0  0.49012  0.49585  0.43727  1.0000
  C   C578      1.0  0.35951  0.64464  0.34334  1.0000
  C   C579      1.0  0.49367  0.41223  0.39797  1.0000
  H   H1009     1.0  0.47928  0.56985  0.43038  1.0000
  H   H1010     1.0  0.25562  0.63500  0.24499  1.0000
  C   C580      1.0  0.41562  0.43507  0.47719  1.0000
  H   H1011     1.0  0.27957  0.64911  0.23855  1.0000
  C   C581      1.0  0.34577  0.34533  0.40477  1.0000
  H   H1012     1.0  0.30009  0.33839  0.41582  1.0000
  H   H1013     1.0  0.99931  0.46033  0.26829  1.0000
  H   H1014     1.0  0.47439  0.41460  0.39890  1.0000
  C   C582      1.0  0.18840  0.63241  0.30795  1.0000
  S   S133      1.0  0.49079  0.56898  0.47934  1.0000
  H   H1015     1.0  0.14517  0.65035  0.25976  1.0000
  H   H1016     1.0  0.03994  0.48758  0.24001  1.0000
  C   C583      1.0  0.49032  0.59884  0.43570  1.0000
  H   H1017     1.0  0.38182  0.33022  0.38773  1.0000
  H   H1018     1.0  0.35841  0.32380  0.44937  1.0000
  C   C584      1.0  0.30983  0.32709  0.40827  1.0000
  H   H1019     1.0  0.25419  0.65184  0.32430  1.0000
  H   H1020     1.0  0.47819  0.44356  0.43219  1.0000
  H   H1021     1.0  0.40506  0.33408  0.39532  1.0000
  H   H1022     1.0  0.37257  0.63422  0.23777  1.0000
  H   H1023     1.0  0.27688  0.59731  0.24162  1.0000
  H   H1024     1.0  0.17785  0.63348  0.31820  1.0000
  H   H1025     1.0  0.43481  0.55890  0.23517  1.0000
  H   H1026     1.0  0.02733  0.46568  0.26984  1.0000
  H   H1027     1.0  0.49097  0.52836  0.39875  1.0000
  H   H1028     1.0  0.04346  0.49892  0.25417  1.0000
  H   H1029     1.0  0.34320  0.56251  0.23801  1.0000
  C   C585      1.0  0.41309  0.51374  0.48012  1.0000
  H   H1030     1.0  0.39816  0.62570  0.32622  1.0000
  H   H1031     1.0  0.40985  0.58105  0.23451  1.0000
  H   H1032     1.0  0.99658  0.49104  0.24828  1.0000
  H   H1033     1.0  0.03751  0.65207  0.23978  1.0000
  H   H1034     1.0  0.37843  0.64517  0.34182  1.0000
  H   H1035     1.0  0.22552  0.64483  0.32677  1.0000
  H   H1036     1.0  0.49226  0.37662  0.44711  1.0000
  C   C586      1.0  0.49232  0.38354  0.42000  1.0000
  C   C587      1.0  0.05012  0.53179  0.23357  1.0000
  C   C588      1.0  0.00537  0.36148  0.67958  1.0000
  H   H1037     1.0  0.32078  0.34530  0.69623  1.0000
  C   C589      1.0  0.40072  0.36453  0.63298  1.0000
  H   H1038     1.0  0.39572  0.34634  0.66964  1.0000
  H   H1039     1.0  0.38520  0.34176  0.62402  1.0000
  C   C590      1.0  0.39983  0.62942  0.50228  1.0000
  H   H1040     1.0  0.45239  0.59152  0.54179  1.0000
  S   S134      1.0  0.06652  0.35223  0.69333  1.0000
  H   H1041     1.0  0.09844  0.42797  0.65334  1.0000
  C   C591      1.0  0.37802  0.47982  0.51853  1.0000
  H   H1042     1.0  0.39165  0.34888  0.49232  1.0000
  Fe  Fe73      1.0  0.42445  0.40659  0.53070  1.0000
  S   S135      1.0  0.44682  0.41043  0.54535  1.0000
  C   C592      1.0  0.33598  0.36358  0.55460  1.0000
  H   H1043     1.0  0.40501  0.36742  0.72920  1.0000
  H   H1044     1.0  0.14332  0.36768  0.68107  1.0000
  S   S136      1.0  0.42669  0.33782  0.68933  1.0000
  Fe  Fe74      1.0  0.43514  0.55031  0.50130  1.0000
  S   S137      1.0  0.40193  0.53985  0.51311  1.0000
  C   C593      1.0  0.12029  0.35467  0.66289  1.0000
  C   C594      1.0  0.39155  0.61119  0.49665  1.0000
  H   H1045     1.0  0.41548  0.35382  0.50889  1.0000
  C   C595      1.0  0.46213  0.36558  0.61112  1.0000
  H   H1046     1.0  0.30332  0.34096  0.72312  1.0000
  S   S138      1.0  0.43967  0.35508  0.57624  1.0000
  H   H1047     1.0  0.19300  0.34069  0.64733  1.0000
  H   H1048     1.0  0.03420  0.36214  0.73223  1.0000
  Fe  Fe75      1.0  0.47640  0.39531  0.53014  1.0000
  C   C596      1.0  0.17762  0.37113  0.69423  1.0000
  H   H1049     1.0  0.37580  0.33735  0.55890  1.0000
  H   H1050     1.0  0.12264  0.39576  0.64170  1.0000
  C   C597      1.0  0.39760  0.46263  0.52077  1.0000
  H   H1051     1.0  0.12228  0.44392  0.64838  1.0000
  H   H1052     1.0  0.42732  0.36817  0.60751  1.0000
  H   H1053     1.0  0.12456  0.39775  0.66688  1.0000
  H   H1054     1.0  0.21744  0.36563  0.63025  1.0000
  H   H1055     1.0  0.45943  0.60913  0.52554  1.0000
  N   N33       1.0  0.35074  0.34837  0.71461  1.0000
  H   H1056     1.0  0.39457  0.59404  0.50328  1.0000
  H   H1057     1.0  0.34877  0.33032  0.68945  1.0000
  C   C598      1.0  0.37040  0.35304  0.58723  1.0000
  H   H1058     1.0  0.40437  0.39491  0.71808  1.0000
  H   H1059     1.0  0.34353  0.37775  0.69866  1.0000
  H   H1060     1.0  0.41178  0.32453  0.56214  1.0000
  C   C599      1.0  0.14012  0.39811  0.65871  1.0000
  H   H1061     1.0  0.42639  0.50362  0.48638  1.0000
  H   H1062     1.0  0.18713  0.35290  0.69510  1.0000
  C   C600      1.0  0.37325  0.33460  0.54882  1.0000
  C   C601      1.0  0.40097  0.50996  0.51588  1.0000
  C   C602      1.0  0.43151  0.33091  0.62688  1.0000
  C   C603      1.0  0.42079  0.49280  0.51787  1.0000
  H   H1063     1.0  0.43415  0.45591  0.52236  1.0000
  H   H1064     1.0  0.43725  0.49776  0.51782  1.0000
  Fe  Fe76      1.0  0.45101  0.35849  0.52636  1.0000
  Fe  Fe77      1.0  0.44365  0.37321  0.55421  1.0000
  H   H1065     1.0  0.23026  0.32445  0.68892  1.0000
  H   H1066     1.0  0.42273  0.65297  0.53209  1.0000
  H   H1067     1.0  0.36930  0.35766  0.69417  1.0000
  H   H1068     1.0  0.41040  0.40976  0.49552  1.0000
  H   H1069     1.0  0.48150  0.48992  0.52378  1.0000
  S   S139      1.0  0.46856  0.52499  0.49782  1.0000
  H   H1070     1.0  0.38508  0.61619  0.52265  1.0000
  S   S140      1.0  0.47572  0.35876  0.54038  1.0000
  H   H1071     1.0  0.39158  0.37448  0.57247  1.0000
  H   H1072     1.0  0.18567  0.39201  0.65154  1.0000
  C   C604      1.0  0.41904  0.46912  0.52048  1.0000
  C   C605      1.0  0.03410  0.32462  0.69335  1.0000
  C   C606      1.0  0.11412  0.43074  0.64563  1.0000
  C   C607      1.0  0.43537  0.37057  0.61607  1.0000
  C   C608      1.0  0.04029  0.34668  0.69002  1.0000
  C   C609      1.0  0.02547  0.36513  0.68349  1.0000
  C   C610      1.0  0.48740  0.47101  0.52693  1.0000
  H   H1073     1.0  0.33081  0.37983  0.72165  1.0000
  H   H1074     1.0  0.41345  0.61657  0.54561  1.0000
  H   H1075     1.0  0.02997  0.38224  0.68099  1.0000
  H   H1076     1.0  0.39004  0.36807  0.61278  1.0000
  H   H1077     1.0  0.37270  0.61641  0.49584  1.0000
  H   H1078     1.0  0.14899  0.41137  0.66079  1.0000
  H   H1079     1.0  0.48697  0.47875  0.48565  1.0000
  S   S141      1.0  0.13023  0.32951  0.70114  1.0000
  H   H1080     1.0  0.43027  0.34825  0.65049  1.0000
  H   H1081     1.0  0.46908  0.37182  0.65363  1.0000
  H   H1082     1.0  0.33797  0.65369  0.55763  1.0000
  C   C611      1.0  0.34692  0.34235  0.54768  1.0000
  H   H1083     1.0  0.37673  0.61628  0.54578  1.0000
  H   H1084     1.0  0.31760  0.36961  0.55287  1.0000
  C   C612      1.0  0.40200  0.37673  0.71891  1.0000
  C   C613      1.0  0.42135  0.33981  0.50295  1.0000
  H   H1085     1.0  0.23435  0.34432  0.64141  1.0000
  H   H1086     1.0  0.48825  0.37909  0.59519  1.0000
  H   H1087     1.0  0.36426  0.51647  0.51480  1.0000
  C   C614      1.0  0.37620  0.65340  0.53670  1.0000
  H   H1088     1.0  0.46728  0.62990  0.49920  1.0000
  C   C615      1.0  0.43879  0.38209  0.64308  1.0000
  C   C616      1.0  0.19662  0.33378  0.72624  1.0000
  C   C617      1.0  0.33853  0.34770  0.69114  1.0000
  C   C618      1.0  0.17864  0.37710  0.64990  1.0000
  H   H1089     1.0  0.41792  0.60321  0.53046  1.0000
  H   H1090     1.0  0.47216  0.36608  0.61917  1.0000
  H   H1091     1.0  0.14639  0.41149  0.63671  1.0000
  S   S142      1.0  0.45112  0.57740  0.50679  1.0000
  H   H1092     1.0  0.34575  0.37798  0.55038  1.0000
  H   H1093     1.0  0.41526  0.36837  0.71112  1.0000
  H   H1094     1.0  0.41855  0.62317  0.50304  1.0000
  C   C619      1.0  0.17478  0.38084  0.67941  1.0000
  H   H1095     1.0  0.16605  0.39928  0.67904  1.0000
  N   N34       1.0  0.15613  0.37473  0.65951  1.0000
  H   H1096     1.0  0.37541  0.38587  0.70624  1.0000
  C   C620      1.0  0.41257  0.32673  0.59397  1.0000
  C   C621      1.0  0.44214  0.32416  0.50477  1.0000
  H   H1097     1.0  0.22734  0.37405  0.64411  1.0000
  C   C622      1.0  0.13153  0.40793  0.64484  1.0000
  C   C623      1.0  0.33634  0.36244  0.67716  1.0000
  H   H1098     1.0  0.44840  0.39185  0.63409  1.0000
  H   H1099     1.0  0.35408  0.36347  0.58469  1.0000
  C   C624      1.0  0.39767  0.32819  0.67405  1.0000
  C   C625      1.0  0.35098  0.35883  0.69969  1.0000
  H   H1100     1.0  0.32840  0.35343  0.67112  1.0000
  H   H1101     1.0  0.39424  0.35672  0.64359  1.0000
  H   H1102     1.0  0.47000  0.45032  0.50489  1.0000
  H   H1103     1.0  0.10773  0.37120  0.66119  1.0000
  H   H1104     1.0  0.38830  0.34086  0.71296  1.0000
  C   C626      1.0  0.33039  0.36096  0.72346  1.0000
  Fe  Fe78      1.0  0.09468  0.32288  0.70013  1.0000
  H   H1105     1.0  0.30269  0.36766  0.71098  1.0000
  H   H1106     1.0  0.16879  0.34815  0.67563  1.0000
  H   H1107     1.0  0.12000  0.34943  0.67401  1.0000
  H   H1108     1.0  0.33601  0.35909  0.56577  1.0000
  C   C627      1.0  0.30574  0.35925  0.72139  1.0000
  S   S143      1.0  0.45873  0.32600  0.51695  1.0000
  C   C628      1.0  0.35133  0.63752  0.55850  1.0000
  C   C629      1.0  0.19832  0.35529  0.65049  1.0000
  C   C630      1.0  0.44891  0.60928  0.53588  1.0000
  C   C631      1.0  0.46919  0.38350  0.59886  1.0000
  C   C632      1.0  0.45072  0.38123  0.65530  1.0000
  H   H1109     1.0  0.39894  0.52367  0.48678  1.0000
  H   H1110     1.0  0.18786  0.38151  0.69790  1.0000
  C   C633      1.0  0.37010  0.33387  0.59773  1.0000
  H   H1111     1.0  0.44119  0.37244  0.66476  1.0000
  C   C634      1.0  0.38475  0.36052  0.62355  1.0000
  H   H1112     1.0  0.46757  0.34825  0.60785  1.0000
  H   H1113     1.0  0.28807  0.39079  0.72968  1.0000
  C   C635      1.0  0.04385  0.33356  0.65361  1.0000
  C   C636      1.0  0.40789  0.33699  0.49361  1.0000
  C   C637      1.0  0.35933  0.37166  0.62786  1.0000
  H   H1114     1.0  0.39729  0.38355  0.63310  1.0000
  C   C638      1.0  0.39988  0.42135  0.48807  1.0000
  H   H1115     1.0  0.40150  0.60943  0.48630  1.0000
  H   H1116     1.0  0.35375  0.36518  0.67148  1.0000
  H   H1117     1.0  0.42977  0.38935  0.61684  1.0000
  C   C639      1.0  0.22065  0.36024  0.64096  1.0000
  Fe  Fe79      1.0  0.45576  0.59140  0.48440  1.0000
  S   S144      1.0  0.39444  0.43334  0.52384  1.0000
  H   H1118     1.0  0.14525  0.36014  0.64427  1.0000
  C   C640      1.0  0.46118  0.64759  0.49469  1.0000
  H   H1119     1.0  0.35747  0.39082  0.62666  1.0000
  C   C641      1.0  0.37735  0.37650  0.71665  1.0000
  C   C642      1.0  0.17538  0.32659  0.72684  1.0000
  H   H1120     1.0  0.02493  0.33281  0.65556  1.0000
  H   H1121     1.0  0.10840  0.43757  0.63557  1.0000
  N   N35       1.0  0.42658  0.35581  0.62915  1.0000
  H   H1122     1.0  0.42075  0.39195  0.64522  1.0000
  H   H1123     1.0  0.45704  0.34771  0.63930  1.0000
  S   S145      1.0  0.46428  0.33702  0.71829  1.0000
  H   H1124     1.0  0.38238  0.34727  0.54132  1.0000
  H   H1125     1.0  0.17544  0.38134  0.63916  1.0000
  H   H1126     1.0  0.34819  0.36765  0.62132  1.0000
  H   H1127     1.0  0.35304  0.36477  0.63864  1.0000
  S   S146      1.0  0.34287  0.32713  0.60629  1.0000
  H   H1128     1.0  0.36141  0.47492  0.51878  1.0000
  C   C643      1.0  0.39163  0.35930  0.58029  1.0000
  H   H1129     1.0  0.33693  0.32830  0.55227  1.0000
  C   C644      1.0  0.14538  0.35689  0.65545  1.0000
  C   C645      1.0  0.16029  0.36679  0.67405  1.0000
  H   H1130     1.0  0.19257  0.38018  0.67339  1.0000
  H   H1131     1.0  0.34485  0.34718  0.53675  1.0000
  C   C646      1.0  0.41764  0.64098  0.52654  1.0000
  S   S147      1.0  0.45405  0.39396  0.51498  1.0000
  C   C647      1.0  0.37297  0.35126  0.71869  1.0000
  H   H1132     1.0  0.32493  0.37954  0.67830  1.0000
  H   H1133     1.0  0.15633  0.33933  0.65745  1.0000
  S   S148      1.0  0.41896  0.37067  0.54070  1.0000
  C   C648      1.0  0.41280  0.34641  0.58382  1.0000
  H   H1134     1.0  0.36495  0.38632  0.72416  1.0000
  H   H1135     1.0  0.04743  0.34592  0.64409  1.0000
  H   H1136     1.0  0.04832  0.34015  0.66209  1.0000
  H   H1137     1.0  0.20276  0.34958  0.66088  1.0000
  C   C649      1.0  0.37962  0.50334  0.51629  1.0000
  H   H1138     1.0  0.45983  0.38362  0.59035  1.0000
  Fe  Fe80      1.0  0.48487  0.55328  0.50142  1.0000
  H   H1139     1.0  0.42498  0.32963  0.61757  1.0000
  H   H1140     1.0  0.38604  0.43329  0.49374  1.0000
  H   H1141     1.0  0.44992  0.46540  0.49349  1.0000
  H   H1142     1.0  0.47195  0.46330  0.53218  1.0000
  H   H1143     1.0  0.09368  0.33449  0.66377  1.0000
  C   C650      1.0  0.02077  0.37365  0.72651  1.0000
  C   C651      1.0  0.28684  0.37215  0.73123  1.0000
  H   H1144     1.0  0.16033  0.37181  0.70090  1.0000
  C   C652      1.0  0.43866  0.35726  0.64068  1.0000
  H   H1145     1.0  0.45081  0.39915  0.65677  1.0000
  H   H1146     1.0  0.02985  0.38129  0.71652  1.0000
  H   H1147     1.0  0.10964  0.34150  0.64689  1.0000
  H   H1148     1.0  0.37337  0.34453  0.72969  1.0000
  C   C653      1.0  0.36419  0.63284  0.54440  1.0000
  H   H1149     1.0  0.45067  0.32439  0.62485  1.0000
  H   H1150     1.0  0.26931  0.37086  0.72948  1.0000
  H   H1151     1.0  0.46520  0.40113  0.60172  1.0000
  C   C654      1.0  0.42284  0.61653  0.53502  1.0000
  H   H1152     1.0  0.43010  0.64118  0.51688  1.0000
  C   C655      1.0  0.35075  0.32264  0.71659  1.0000
  H   H1153     1.0  0.35107  0.63039  0.53859  1.0000
  C   C656      1.0  0.46634  0.45256  0.49432  1.0000
  C   C657      1.0  0.38526  0.63357  0.51636  1.0000
  H   H1154     1.0  0.34238  0.62286  0.56359  1.0000
  H   H1155     1.0  0.49455  0.59374  0.50905  1.0000
  H   H1156     1.0  0.45463  0.62139  0.54105  1.0000
  C   C658      1.0  0.99940  0.33945  0.68246  1.0000
  H   H1157     1.0  0.16817  0.32815  0.71764  1.0000
  H   H1158     1.0  0.20580  0.34088  0.71655  1.0000
  H   H1159     1.0  0.01155  0.38795  0.73224  1.0000
  H   H1160     1.0  0.46373  0.43572  0.49236  1.0000
  H   H1161     1.0  0.36684  0.64042  0.51472  1.0000
  C   C659      1.0  0.00350  0.35981  0.72410  1.0000
  H   H1162     1.0  0.39804  0.64554  0.49469  1.0000
  H   H1163     1.0  0.38399  0.32313  0.52463  1.0000
  C   C660      1.0  0.48637  0.46108  0.48402  1.0000
  N   N36       1.0  0.39303  0.64967  0.52365  1.0000
  H   H1164     1.0  0.48021  0.35462  0.48969  1.0000
  H   H1165     1.0  0.01377  0.34637  0.71808  1.0000
  C   C661      1.0  0.11122  0.33631  0.65785  1.0000
  H   H1166     1.0  0.48724  0.38325  0.48683  1.0000
  H   H1167     1.0  0.36383  0.63914  0.56496  1.0000
  S   S149      1.0  0.27062  0.32160  0.66785  1.0000
  H   H1168     1.0  0.39164  0.41047  0.48338  1.0000
  Fe  Fe81      1.0  0.12690  0.58568  0.94100  1.0000
  S   S150      1.0  0.16410  0.58923  0.93329  1.0000
  S   S151      1.0  0.11208  0.56684  0.96128  1.0000
  Fe  Fe82      1.0  0.11089  0.61248  0.91478  1.0000
  S   S152      1.0  0.14688  0.61834  0.90475  1.0000
  S   S153      1.0  0.07867  0.62467  0.90491  1.0000
  Fe  Fe83      1.0  0.15820  0.58077  0.91366  1.0000
  S   S154      1.0  0.18109  0.55061  0.90413  1.0000
  Fe  Fe84      1.0  0.14927  0.62639  0.92530  1.0000
  H   H1169     1.0  0.07186  0.34873  0.94970  1.0000
  S   S155      1.0  0.12209  0.57461  0.92202  1.0000
  S   S156      1.0  0.11233  0.62323  0.93452  1.0000
  Fe  Fe85      1.0  0.16421  0.42401  0.87399  1.0000
  S   S157      1.0  0.13022  0.44679  0.88046  1.0000
  S   S158      1.0  0.18510  0.40313  0.88996  1.0000
  Fe  Fe86      1.0  0.15972  0.43569  0.84404  1.0000
  S   S159      1.0  0.12497  0.45958  0.84810  1.0000
  S   S160      1.0  0.17727  0.43092  0.82247  1.0000
  Fe  Fe87      1.0  0.14158  0.47266  0.86265  1.0000
  S   S161      1.0  0.13331  0.51076  0.86494  1.0000
  Fe  Fe88      1.0  0.11667  0.43171  0.86566  1.0000
  S   S162      1.0  0.08431  0.41611  0.87327  1.0000
  S   S163      1.0  0.17704  0.45106  0.85720  1.0000
  S   S164      1.0  0.15000  0.40685  0.86049  1.0000
  C   C662      1.0  0.04964  0.37430  0.97227  1.0000
  H   H1170     1.0  0.06421  0.39926  0.97936  1.0000
  H   H1171     1.0  0.19443  0.35441  0.85586  1.0000
  C   C663      1.0  0.06412  0.52410  0.86826  1.0000
  C   C664      1.0  0.28507  0.40235  0.84871  1.0000
  C   C665      1.0  0.01869  0.44408  0.85379  1.0000
  H   H1172     1.0  0.18800  0.36400  0.87222  1.0000
  S   S165      1.0  0.31581  0.36184  0.76377  1.0000
  C   C666      1.0  0.15703  0.37520  0.92779  1.0000
  S   S166      1.0  0.25323  0.35434  0.76886  1.0000
  C   C667      1.0  0.18883  0.40311  0.81796  1.0000
  C   C668      1.0  0.20285  0.40128  0.80519  1.0000
  C   C669      1.0  0.21335  0.37941  0.80154  1.0000
  C   C670      1.0  0.20970  0.35919  0.81061  1.0000
  C   C671      1.0  0.19536  0.36101  0.82327  1.0000
  C   C672      1.0  0.18507  0.38289  0.82697  1.0000
  H   H1173     1.0  0.20593  0.41687  0.79818  1.0000
  H   H1174     1.0  0.22440  0.37822  0.79178  1.0000
  H   H1175     1.0  0.16371  0.49917  0.97497  1.0000
  H   H1176     1.0  0.17423  0.38406  0.83680  1.0000
  C   C673      1.0  0.06024  0.42621  0.86465  1.0000
  C   C674      1.0  0.04205  0.41360  0.86760  1.0000
  C   C675      1.0  0.02141  0.42240  0.86209  1.0000
  H   H1177     1.0  0.35042  0.38857  0.76210  1.0000
  C   C676      1.0  0.03719  0.45639  0.85044  1.0000
  C   C677      1.0  0.05801  0.44742  0.85582  1.0000
  H   H1178     1.0  0.04373  0.39715  0.87440  1.0000
  H   H1179     1.0  0.18906  0.41136  0.75110  1.0000
  H   H1180     1.0  0.03523  0.47307  0.84389  1.0000
  H   H1181     1.0  0.07203  0.45716  0.85348  1.0000
  C   C678      1.0  0.16831  0.53960  0.89299  1.0000
  C   C679      1.0  0.17590  0.51647  0.89080  1.0000
  C   C680      1.0  0.16528  0.50723  0.88230  1.0000
  C   C681      1.0  0.14783  0.52148  0.87540  1.0000
  C   C682      1.0  0.14123  0.54490  0.87705  1.0000
  C   C683      1.0  0.15083  0.55376  0.88612  1.0000
  H   H1182     1.0  0.18996  0.50571  0.89574  1.0000
  H   H1183     1.0  0.17081  0.48928  0.88088  1.0000
  H   H1184     1.0  0.12856  0.55622  0.87130  1.0000
  H   H1185     1.0  0.14522  0.57175  0.88750  1.0000
  C   C684      1.0  0.02374  0.58212  0.92735  1.0000
  C   C685      1.0  0.01933  0.59861  0.91588  1.0000
  C   C686      1.0  0.03622  0.61168  0.90900  1.0000
  C   C687      1.0  0.05711  0.60917  0.91397  1.0000
  C   C688      1.0  0.06099  0.59354  0.92585  1.0000
  C   C689      1.0  0.04474  0.57941  0.93221  1.0000
  H   H1186     1.0  0.10902  0.38529  0.91241  1.0000
  H   H1187     1.0  0.03324  0.62333  0.89970  1.0000
  H   H1188     1.0  0.07652  0.59218  0.93015  1.0000
  H   H1189     1.0  0.04843  0.56647  0.94091  1.0000
  H   H1190     1.0  0.29883  0.38711  0.84645  1.0000
  H   H1191     1.0  0.03566  0.52355  0.89318  1.0000
  H   H1192     1.0  0.16165  0.37389  0.80511  1.0000
  C   C690      1.0  0.03071  0.53978  0.89757  1.0000
  C   C691      1.0  0.17300  0.38299  0.91652  1.0000
  C   C692      1.0  0.16574  0.39186  0.90386  1.0000
  C   C693      1.0  0.14265  0.39252  0.90245  1.0000
  H   H1193     1.0  0.27780  0.35946  0.79896  1.0000
  H   H1194     1.0  0.03302  0.48385  0.87935  1.0000
  H   H1195     1.0  0.13702  0.39866  0.89266  1.0000
  C   C694      1.0  0.16820  0.34754  0.78699  1.0000
  C   C695      1.0  0.00538  0.42606  0.89790  1.0000
  C   C696      1.0  0.21104  0.41207  0.96355  1.0000
  C   C697      1.0  0.15973  0.48141  0.97813  1.0000
  C   C698      1.0  0.04745  0.54784  0.97061  1.0000
  C   C699      1.0  0.06029  0.46653  0.89073  1.0000
  H   H1196     1.0  0.11681  0.36017  0.75057  1.0000
  H   H1197     1.0  0.12128  0.42883  0.81410  1.0000
  C   C700      1.0  0.06916  0.52801  0.97147  1.0000
  N   N37       1.0  0.15547  0.46226  0.93071  1.0000
  C   C701      1.0  0.15876  0.43865  0.93946  1.0000
  C   C702      1.0  0.17597  0.46406  0.91922  1.0000
  C   C703      1.0  0.15487  0.48001  0.93962  1.0000
  C   C704      1.0  0.13275  0.46785  0.92515  1.0000
  C   C705      1.0  0.12783  0.44935  0.91785  1.0000
  C   C706      1.0  0.13977  0.43495  0.95217  1.0000
  C   C707      1.0  0.15377  0.50552  0.93234  1.0000
  C   C708      1.0  0.18874  0.44155  0.91357  1.0000
  C   C709      1.0  0.20663  0.44678  0.90085  1.0000
  C   C710      1.0  0.10360  0.45641  0.91367  1.0000
  C   C711      1.0  0.14290  0.40955  0.95888  1.0000
  C   C712      1.0  0.15515  0.52121  0.94231  1.0000
  H   H1198     1.0  0.17583  0.43513  0.94314  1.0000
  H   H1199     1.0  0.15996  0.42460  0.93346  1.0000
  H   H1200     1.0  0.17051  0.47715  0.91047  1.0000
  H   H1201     1.0  0.19000  0.47051  0.92246  1.0000
  H   H1202     1.0  0.17060  0.47521  0.94475  1.0000
  H   H1203     1.0  0.13942  0.48031  0.94785  1.0000
  H   H1204     1.0  0.11769  0.47154  0.93339  1.0000
  H   H1205     1.0  0.13195  0.48417  0.91765  1.0000
  H   H1206     1.0  0.12830  0.43221  0.92448  1.0000
  H   H1207     1.0  0.14068  0.44753  0.90843  1.0000
  H   H1208     1.0  0.14102  0.44523  0.95994  1.0000
  H   H1209     1.0  0.12196  0.43996  0.94947  1.0000
  H   H1210     1.0  0.13714  0.51219  0.92827  1.0000
  H   H1211     1.0  0.16840  0.50729  0.92376  1.0000
  H   H1212     1.0  0.19831  0.42948  0.92130  1.0000
  H   H1213     1.0  0.17640  0.43248  0.91085  1.0000
  H   H1214     1.0  0.19768  0.45701  0.89234  1.0000
  H   H1215     1.0  0.21915  0.45653  0.90295  1.0000
  H   H1216     1.0  0.21661  0.43025  0.89759  1.0000
  H   H1217     1.0  0.08984  0.45846  0.92273  1.0000
  H   H1218     1.0  0.10240  0.47289  0.90631  1.0000
  H   H1219     1.0  0.10050  0.44260  0.90867  1.0000
  H   H1220     1.0  0.13084  0.40779  0.96873  1.0000
  H   H1221     1.0  0.13883  0.39867  0.95224  1.0000
  H   H1222     1.0  0.16105  0.40298  0.96093  1.0000
  H   H1223     1.0  0.17152  0.51532  0.94676  1.0000
  H   H1224     1.0  0.15519  0.53917  0.93683  1.0000
  H   H1225     1.0  0.13988  0.52151  0.95063  1.0000
  H   H1226     1.0  0.03477  0.54212  0.96578  1.0000
  H   H1227     1.0  0.09020  0.51564  0.85066  1.0000
  H   H1228     1.0  0.15980  0.40468  0.77211  1.0000
  C   C713      1.0  0.28387  0.36403  0.80764  1.0000
  C   C714      1.0  0.23621  0.41180  0.83399  1.0000
  H   H1229     1.0  0.18079  0.39348  0.78318  1.0000
  H   H1230     1.0  0.03815  0.53667  0.90714  1.0000
  C   C715      1.0  0.29057  0.41098  0.86077  1.0000
  H   H1231     1.0  0.27780  0.42683  0.86310  1.0000
  C   C716      1.0  0.23265  0.45096  0.81878  1.0000
  H   H1232     1.0  0.09382  0.50584  0.95846  1.0000
  H   H1233     1.0  0.29485  0.37747  0.80350  1.0000
  H   H1234     1.0  0.24812  0.40873  0.85728  1.0000
  C   C717      1.0  0.13787  0.40556  0.79952  1.0000
  S   S167      1.0  0.16275  0.33666  0.96345  1.0000
  C   C718      1.0  0.18919  0.37858  0.76504  1.0000
  H   H1235     1.0  0.22662  0.40741  0.82679  1.0000
  H   H1236     1.0  0.22231  0.41949  0.84177  1.0000
  H   H1237     1.0  0.01788  0.35875  0.93603  1.0000
  S   S168      1.0  0.22267  0.33138  0.80655  1.0000
  H   H1238     1.0  0.20245  0.39407  0.85441  1.0000
  C   C719      1.0  0.21537  0.37892  0.85810  1.0000
  H   H1239     1.0  0.20164  0.48249  0.96620  1.0000
  H   H1240     1.0  0.19237  0.34543  0.83031  1.0000
  C   C720      1.0  0.13305  0.37413  0.77897  1.0000
  C   C721      1.0  0.38289  0.32626  0.75746  1.0000
  H   H1241     1.0  0.00189  0.62230  0.96489  1.0000
  H   H1242     1.0  0.21522  0.38987  0.74832  1.0000
  H   H1243     1.0  0.22678  0.44426  0.81077  1.0000
  H   H1244     1.0  0.21704  0.45786  0.82589  1.0000
  H   H1245     1.0  0.99933  0.40033  0.93909  1.0000
  H   H1246     1.0  0.06471  0.51336  0.95419  1.0000
  H   H1247     1.0  0.28308  0.39117  0.82586  1.0000
  N   N38       1.0  0.03591  0.36708  0.95072  1.0000
  C   C722      1.0  0.01406  0.36376  0.94632  1.0000
  H   H1248     1.0  0.01995  0.35896  0.97170  1.0000
  H   H1249     1.0  0.99859  0.53039  0.90933  1.0000
  C   C723      1.0  0.04597  0.38709  0.94189  1.0000
  C   C724      1.0  0.05377  0.38521  0.92660  1.0000
  H   H1250     1.0  0.12493  0.41320  0.79260  1.0000
  H   H1251     1.0  0.07406  0.51075  0.87524  1.0000
  S   S169      1.0  0.11292  0.36784  0.94029  1.0000
  S   S170      1.0  0.11270  0.36321  0.97867  1.0000
  C   C725      1.0  0.06005  0.40798  0.91846  1.0000
  N   N39       1.0  0.25095  0.39016  0.84045  1.0000
  C   C726      1.0  0.20163  0.39752  0.75626  1.0000
  H   H1252     1.0  0.20271  0.36495  0.76954  1.0000
  H   H1253     1.0  0.28643  0.41622  0.83977  1.0000
  C   C727      1.0  0.26072  0.39514  0.85210  1.0000
  H   H1254     1.0  0.26296  0.49106  0.95719  1.0000
  C   C728      1.0  0.13117  0.55498  0.97321  1.0000
  C   C729      1.0  0.02922  0.37249  0.96510  1.0000
  H   H1255     1.0  0.03361  0.40373  0.94291  1.0000
  H   H1256     1.0  0.06182  0.38909  0.94554  1.0000
  H   H1257     1.0  0.03997  0.38104  0.92209  1.0000
  H   H1258     1.0  0.06966  0.37157  0.92529  1.0000
  H   H1259     1.0  0.01683  0.49057  0.90241  1.0000
  H   H1260     1.0  0.01622  0.38885  0.96552  1.0000
  C   C730      1.0  0.12615  0.40987  0.81389  1.0000
  H   H1261     1.0  0.16267  0.36855  0.93754  1.0000
  S   S171      1.0  0.23312  0.33995  0.73706  1.0000
  C   C731      1.0  0.17008  0.54249  0.97933  1.0000
  H   H1262     1.0  0.28855  0.36446  0.74195  1.0000
  C   C732      1.0  0.01692  0.47280  0.90058  1.0000
  H   H1263     1.0  0.07436  0.41264  0.92239  1.0000
  H   H1264     1.0  0.06613  0.40600  0.90757  1.0000
  H   H1265     1.0  0.04460  0.42219  0.91908  1.0000
  H   H1266     1.0  0.25479  0.43964  0.83398  1.0000
  H   H1267     1.0  0.30833  0.41535  0.85822  1.0000
  C   C733      1.0  0.23622  0.47494  0.97124  1.0000
  H   H1268     1.0  0.39355  0.37941  0.75877  1.0000
  H   H1269     1.0  0.99560  0.57138  0.97016  1.0000
  C   C734      1.0  0.24900  0.43173  0.82648  1.0000
  Fe  Fe89      1.0  0.24685  0.32634  0.78660  1.0000
  C   C735      1.0  0.35938  0.37112  0.76086  1.0000
  H   H1270     1.0  0.12347  0.39234  0.77771  1.0000
  H   H1271     1.0  0.03482  0.45343  0.88363  1.0000
  H   H1272     1.0  0.05912  0.63601  0.86016  1.0000
  H   H1273     1.0  0.22668  0.36919  0.83829  1.0000
  C   C736      1.0  0.13381  0.37629  0.92638  1.0000
  H   H1274     1.0  0.99539  0.54671  0.89258  1.0000
  H   H1275     1.0  0.19088  0.38234  0.91764  1.0000
  H   H1276     1.0  0.25220  0.35919  0.82101  1.0000
  H   H1277     1.0  0.12411  0.49476  0.97454  1.0000
  H   H1278     1.0  0.12050  0.36419  0.78604  1.0000
  H   H1279     1.0  0.05166  0.33350  0.96096  1.0000
  C   C737      1.0  0.07834  0.51995  0.95764  1.0000
  H   H1280     1.0  0.01821  0.58308  0.95820  1.0000
  H   H1281     1.0  0.06191  0.48143  0.89530  1.0000
  H   H1282     1.0  0.02362  0.46104  0.90948  1.0000
  H   H1283     1.0  0.08361  0.53415  0.97430  1.0000
  H   H1284     1.0  0.29004  0.39735  0.86995  1.0000
  H   H1285     1.0  0.00732  0.41269  0.86459  1.0000
  Fe  Fe90      1.0  0.29093  0.33681  0.76741  1.0000
  H   H1286     1.0  0.16296  0.55878  0.95923  1.0000
  H   H1287     1.0  0.07298  0.46582  0.88110  1.0000
  H   H1288     1.0  0.06562  0.51277  0.97906  1.0000
  C   C738      1.0  0.15544  0.55275  0.96955  1.0000
  H   H1289     1.0  0.11168  0.52235  0.90919  1.0000
  H   H1290     1.0  0.14963  0.33264  0.80669  1.0000
  H   H1291     1.0  0.04515  0.52417  0.87130  1.0000
  H   H1292     1.0  0.23820  0.51140  0.96381  1.0000
  H   H1293     1.0  0.09472  0.53630  0.92318  1.0000
  C   C739      1.0  0.12675  0.38485  0.91368  1.0000
  H   H1294     1.0  0.26419  0.42572  0.81892  1.0000
  H   H1295     1.0  0.99870  0.56085  0.90618  1.0000
  H   H1296     1.0  0.14791  0.34943  0.76456  1.0000
  H   H1297     1.0  0.06484  0.45012  0.89775  1.0000
  C   C740      1.0  0.20597  0.43731  0.98166  1.0000
  H   H1298     1.0  0.29460  0.34819  0.81259  1.0000
  H   H1299     1.0  0.18410  0.34697  0.79142  1.0000
  C   C741      1.0  0.00420  0.54477  0.90157  1.0000
  C   C742      1.0  0.38380  0.36597  0.75895  1.0000
  H   H1300     1.0  0.24606  0.35546  0.84999  1.0000
  C   C743      1.0  0.00690  0.58456  0.96818  1.0000
  C   C744      1.0  0.26274  0.37311  0.81775  1.0000
  N   N40       1.0  0.06507  0.55713  0.88147  1.0000
  C   C745      1.0  0.08039  0.54050  0.89074  1.0000
  C   C746      1.0  0.06925  0.54854  0.86794  1.0000
  C   C747      1.0  0.07278  0.58036  0.87882  1.0000
  C   C748      1.0  0.03942  0.56048  0.88756  1.0000
  C   C749      1.0  0.08252  0.54923  0.90382  1.0000
  C   C750      1.0  0.06106  0.59931  0.86817  1.0000
  H   H1301     1.0  0.17489  0.34130  0.77710  1.0000
  C   C751      1.0  0.06704  0.62295  0.86817  1.0000
  H   H1302     1.0  0.09835  0.53611  0.88515  1.0000
  H   H1303     1.0  0.07466  0.52352  0.89383  1.0000
  H   H1304     1.0  0.05823  0.56038  0.86083  1.0000
  H   H1305     1.0  0.08778  0.54858  0.86297  1.0000
  H   H1306     1.0  0.09201  0.57823  0.87545  1.0000
  H   H1307     1.0  0.06929  0.58791  0.88840  1.0000
  H   H1308     1.0  0.03462  0.57527  0.89340  1.0000
  H   H1309     1.0  0.02845  0.56563  0.87933  1.0000
  H   H1310     1.0  0.09382  0.56258  0.90121  1.0000
  H   H1311     1.0  0.06519  0.55714  0.90891  1.0000
  H   H1312     1.0  0.04176  0.60104  0.87033  1.0000
  H   H1313     1.0  0.06746  0.59502  0.85774  1.0000
  H   H1314     1.0  0.06685  0.49939  0.85465  1.0000
  H   H1315     1.0  0.11006  0.40225  0.81703  1.0000
  H   H1316     1.0  0.18182  0.37070  0.75824  1.0000
  C   C752      1.0  0.27034  0.37953  0.83016  1.0000
  H   H1317     1.0  0.06011  0.62884  0.87817  1.0000
  H   H1318     1.0  0.05435  0.56209  0.96313  1.0000
  C   C753      1.0  0.19912  0.43541  0.96801  1.0000
  H   H1319     1.0  0.24236  0.45838  0.96712  1.0000
  H   H1320     1.0  0.06148  0.52928  0.84662  1.0000
  C   C754      1.0  0.07110  0.51678  0.85416  1.0000
  H   H1321     1.0  0.23576  0.49536  0.95087  1.0000
  N   N41       1.0  0.15473  0.37214  0.78512  1.0000
  H   H1322     1.0  0.08377  0.53456  0.94990  1.0000
  C   C755      1.0  0.34647  0.35385  0.76142  1.0000
  H   H1323     1.0  0.24528  0.47438  0.97992  1.0000
  H   H1324     1.0  0.25249  0.38845  0.81212  1.0000
  H   H1325     1.0  0.01242  0.64925  0.88278  1.0000
  H   H1326     1.0  0.14458  0.37967  0.75689  1.0000
  H   H1327     1.0  0.24192  0.46543  0.81380  1.0000
  S   S172      1.0  0.42644  0.33801  0.75496  1.0000
  C   C756      1.0  0.03559  0.46900  0.88770  1.0000
  C   C757      1.0  0.13670  0.36669  0.76479  1.0000
  H   H1328     1.0  0.06715  0.36724  0.96702  1.0000
  H   H1329     1.0  0.26277  0.37947  0.86011  1.0000
  C   C758      1.0  0.09370  0.52953  0.91390  1.0000
  H   H1330     1.0  0.13293  0.36994  0.80504  1.0000
  H   H1331     1.0  0.10149  0.38229  0.76065  1.0000
  H   H1332     1.0  0.21032  0.40521  0.76260  1.0000
  H   H1333     1.0  0.28056  0.36344  0.83532  1.0000
  C   C759      1.0  0.39568  0.34364  0.75712  1.0000
  H   H1334     1.0  0.22202  0.38314  0.86664  1.0000
  C   C760      1.0  0.05402  0.34488  0.95089  1.0000
  Fe  Fe91      1.0  0.12591  0.34808  0.95948  1.0000
  C   C761      1.0  0.17045  0.38826  0.77660  1.0000
  H   H1335     1.0  0.13819  0.40221  0.82137  1.0000
  H   H1336     1.0  0.02391  0.42509  0.89871  1.0000
  H   H1337     1.0  0.13918  0.32816  0.79196  1.0000
  C   C762      1.0  0.20936  0.47940  0.97566  1.0000
  C   C763      1.0  0.23538  0.37247  0.84628  1.0000
  C   C764      1.0  0.35822  0.33129  0.75983  1.0000
  H   H1338     1.0  0.15255  0.41525  0.79648  1.0000
  C   C765      1.0  0.20228  0.35886  0.86389  1.0000
  C   C766      1.0  0.02212  0.58148  0.97950  1.0000
  H   H1339     1.0  0.08316  0.51557  0.91695  1.0000
  H   H1340     1.0  0.08627  0.62201  0.86604  1.0000
  C   C767      1.0  0.24365  0.49441  0.96009  1.0000
  H   H1341     1.0  0.20629  0.39747  0.97151  1.0000
  H   H1342     1.0  0.16430  0.47273  0.96907  1.0000
  C   C768      1.0  0.11354  0.36524  0.76088  1.0000
  C   C769      1.0  0.19448  0.32209  0.75063  1.0000
  H   H1343     1.0  0.18001  0.43608  0.96938  1.0000
  H   H1344     1.0  0.10515  0.35186  0.76819  1.0000
  H   H1345     1.0  0.03454  0.59381  0.97581  1.0000
  H   H1346     1.0  0.18882  0.54076  0.97647  1.0000
  C   C770      1.0  0.14699  0.37921  0.79912  1.0000
  H   H1347     1.0  0.20546  0.41039  0.95401  1.0000
  H   H1348     1.0  0.05154  0.41066  0.96410  1.0000
  H   H1349     1.0  0.00023  0.50943  0.88150  1.0000
  H   H1350     1.0  0.47754  0.32199  0.76655  1.0000
  H   H1351     1.0  0.20428  0.49631  0.97957  1.0000
  H   H1352     1.0  0.20423  0.44923  0.95968  1.0000
  H   H1353     1.0  0.23033  0.41057  0.96162  1.0000
  H   H1354     1.0  0.05446  0.33925  0.92977  1.0000
  H   H1355     1.0  0.00332  0.60078  0.91197  1.0000
  S   S173      1.0  0.00335  0.56466  0.93559  1.0000
  H   H1356     1.0  0.00090  0.49811  0.85897  1.0000
  H   H1357     1.0  0.00723  0.34888  0.95323  1.0000
  C   C771      1.0  0.05470  0.32928  0.94017  1.0000
  C   C772      1.0  0.15491  0.32896  0.79608  1.0000
  C   C773      1.0  0.99961  0.40209  0.90392  1.0000
  H   H1358     1.0  0.00284  0.34113  0.74479  1.0000
  H   H1359     1.0  0.03292  0.40607  0.98048  1.0000
  H   H1360     1.0  0.33183  0.35525  0.73444  1.0000
  H   H1361     1.0  0.99802  0.46621  0.87864  1.0000
  Fe  Fe92      1.0  0.25004  0.32901  0.75596  1.0000
  H   H1362     1.0  0.99518  0.47591  0.92632  1.0000
  H   H1363     1.0  0.00378  0.39690  0.91439  1.0000
  C   C774      1.0  0.13336  0.48393  0.98277  1.0000
  H   H1364     1.0  0.01017  0.38911  0.89757  1.0000
  H   H1365     1.0  0.22506  0.43060  0.98119  1.0000
  H   H1366     1.0  0.04778  0.36379  0.98261  1.0000
  C   C775      1.0  0.20626  0.33139  0.73812  1.0000
  H   H1367     1.0  0.21422  0.34331  0.86815  1.0000
  H   H1368     1.0  0.00328  0.42947  0.88709  1.0000
  C   C776      1.0  0.04948  0.39917  0.97410  1.0000
  H   H1369     1.0  0.99530  0.65426  0.90704  1.0000
  H   H1370     1.0  0.36011  0.82043  0.19469  1.0000
  C   C777      1.0  0.22232  0.74563  0.08842  1.0000
  S   S174      1.0  0.23144  0.74861  0.20884  1.0000
  H   H1371     1.0  0.22374  0.79881  0.20545  1.0000
  Fe  Fe93      1.0  0.44390  0.75515  0.17461  1.0000
  S   S175      1.0  0.45067  0.79082  0.16500  1.0000
  S   S176      1.0  0.45623  0.72267  0.16530  1.0000
  H   H1372     1.0  0.35348  0.70256  0.11231  1.0000
  S   S177      1.0  0.42076  0.80755  0.19335  1.0000
  H   H1373     1.0  0.40358  0.70747  0.19318  1.0000
  Fe  Fe94      1.0  0.41268  0.80187  0.17359  1.0000
  S   S178      1.0  0.38361  0.82609  0.16378  1.0000
  Fe  Fe95      1.0  0.45833  0.79279  0.18574  1.0000
  H   H1374     1.0  0.37030  0.67137  0.12869  1.0000
  S   S179      1.0  0.40577  0.76612  0.18179  1.0000
  S   S180      1.0  0.45432  0.75611  0.19454  1.0000
  Fe  Fe96      1.0  0.15423  0.93346  0.01499  1.0000
  S   S181      1.0  0.14007  0.90356  0.01157  1.0000
  S   S182      1.0  0.14123  0.96530  0.00043  1.0000
  Fe  Fe97      1.0  0.18526  0.90155  0.03478  1.0000
  S   S183      1.0  0.17376  0.86941  0.03219  1.0000
  S   S184      1.0  0.21114  0.90189  0.04864  1.0000
  Fe  Fe98      1.0  0.17684  0.88444  0.00989  1.0000
  H   H1375     1.0  0.03881  0.93993  0.99468  1.0000
  Fe  Fe99      1.0  0.13806  0.89191  0.03404  1.0000
  S   S185      1.0  0.10659  0.87916  0.04685  1.0000
  S   S186      1.0  0.19144  0.91485  0.01218  1.0000
  S   S187      1.0  0.14913  0.92337  0.03782  1.0000
  Fe  Fe100     1.0  0.25902  0.80351  0.10884  1.0000
  S   S188      1.0  0.23815  0.78926  0.12845  1.0000
  S   S189      1.0  0.23851  0.81095  0.09121  1.0000
  Fe  Fe101     1.0  0.30348  0.79315  0.12171  1.0000
  S   S190      1.0  0.28596  0.77812  0.14204  1.0000
  S   S191      1.0  0.34251  0.79017  0.11995  1.0000
  Fe  Fe102     1.0  0.26868  0.76034  0.13041  1.0000
  S   S192      1.0  0.26085  0.72482  0.13962  1.0000
  Fe  Fe103     1.0  0.25682  0.80814  0.13850  1.0000
  S   S193      1.0  0.23701  0.82536  0.15619  1.0000
  S   S194      1.0  0.28853  0.77276  0.11004  1.0000
  S   S195      1.0  0.27552  0.82515  0.11884  1.0000
  H   H1376     1.0  0.02229  0.89701  0.04599  1.0000
  C   C778      1.0  0.03883  0.90266  0.04228  1.0000
  H   H1377     1.0  0.27767  0.72761  0.11070  1.0000
  C   C779      1.0  0.26912  0.71282  0.11410  1.0000
  C   C780      1.0  0.21930  0.87662  0.06038  1.0000
  C   C781      1.0  0.23519  0.87636  0.06909  1.0000
  C   C782      1.0  0.24157  0.85639  0.07860  1.0000
  C   C783      1.0  0.23208  0.83657  0.07940  1.0000
  C   C784      1.0  0.21616  0.83702  0.07076  1.0000
  C   C785      1.0  0.20977  0.85685  0.06135  1.0000
  H   H1378     1.0  0.24262  0.89162  0.06846  1.0000
  H   H1379     1.0  0.25381  0.85632  0.08525  1.0000
  H   H1380     1.0  0.20842  0.82205  0.07145  1.0000
  H   H1381     1.0  0.19732  0.85682  0.05491  1.0000
  C   C786      1.0  0.08087  0.89624  0.04165  1.0000
  C   C787      1.0  0.05950  0.88869  0.04613  1.0000
  C   C788      1.0  0.08161  0.91752  0.03307  1.0000
  H   H1382     1.0  0.05889  0.87218  0.05271  1.0000
  H   H1383     1.0  0.09803  0.92337  0.02953  1.0000
  H   H1384     1.0  0.00667  0.80950  0.00720  1.0000
  H   H1385     1.0  0.18470  0.75443  0.09562  1.0000
  H   H1386     1.0  0.07666  0.75108  0.22712  1.0000
  H   H1387     1.0  0.49447  0.78237  0.14408  1.0000
  H   H1388     1.0  0.25169  0.84207  0.23187  1.0000
  H   H1389     1.0  0.02661  0.66274  0.21546  1.0000
  H   H1390     1.0  0.27657  0.73461  0.06903  1.0000
  H   H1391     1.0  0.35511  0.85084  0.18772  1.0000
  H   H1392     1.0  0.33797  0.65791  0.15138  1.0000
  H   H1393     1.0  0.44862  0.81177  0.21508  1.0000
  H   H1394     1.0  0.47798  0.69303  0.19750  1.0000
  H   H1395     1.0  0.24311  0.94426  0.03059  1.0000
  H   H1396     1.0  0.38879  0.72761  0.20455  1.0000
  H   H1397     1.0  0.25542  0.70825  0.07452  1.0000
  C   C789      1.0  0.21191  0.69322  0.22900  1.0000
  C   C790      1.0  0.37162  0.81485  0.15233  1.0000
  C   C791      1.0  0.38418  0.79597  0.14609  1.0000
  C   C792      1.0  0.37497  0.78831  0.13632  1.0000
  C   C793      1.0  0.35286  0.79901  0.13300  1.0000
  C   C794      1.0  0.33993  0.81733  0.13962  1.0000
  C   C795      1.0  0.34943  0.82542  0.14910  1.0000
  H   H1398     1.0  0.40134  0.78779  0.14844  1.0000
  H   H1399     1.0  0.38510  0.77417  0.13123  1.0000
  H   H1400     1.0  0.32294  0.82577  0.13709  1.0000
  H   H1401     1.0  0.33963  0.84005  0.15386  1.0000
  C   C796      1.0  0.43191  0.71126  0.16426  1.0000
  C   C797      1.0  0.41202  0.72561  0.15972  1.0000
  H   H1402     1.0  0.13922  0.69176  0.22014  1.0000
  H   H1403     1.0  0.10408  0.86762  0.00188  1.0000
  H   H1404     1.0  0.41161  0.74404  0.15661  1.0000
  H   H1405     1.0  0.03857  0.69787  0.18290  1.0000
  C   C798      1.0  0.25940  0.70757  0.12779  1.0000
  H   H1406     1.0  0.31216  0.73379  0.22441  1.0000
  H   H1407     1.0  0.20852  0.96288  0.00090  1.0000
  C   C799      1.0  0.05142  0.84018  0.99143  1.0000
  Fe  Fe104     1.0  0.41653  0.77076  0.20084  1.0000
  H   H1408     1.0  0.11694  0.85759  0.02343  1.0000
  C   C800      1.0  0.04344  0.69338  0.19330  1.0000
  H   H1409     1.0  0.45191  0.69233  0.14017  1.0000
  C   C801      1.0  0.42684  0.69529  0.12702  1.0000
  C   C802      1.0  0.43380  0.85718  0.20563  1.0000
  H   H1410     1.0  0.26778  0.74564  0.08509  1.0000
  C   C803      1.0  0.39271  0.71605  0.15898  1.0000
  H   H1411     1.0  0.06158  0.94815  0.02288  1.0000
  C   C804      1.0  0.23344  0.77010  0.19432  1.0000
  C   C805      1.0  0.23986  0.76359  0.18138  1.0000
  C   C806      1.0  0.24028  0.78052  0.16968  1.0000
  C   C807      1.0  0.23515  0.80411  0.17084  1.0000
  C   C808      1.0  0.22895  0.81065  0.18380  1.0000
  C   C809      1.0  0.22813  0.79365  0.19551  1.0000
  H   H1412     1.0  0.24410  0.74548  0.18033  1.0000
  H   H1413     1.0  0.24421  0.77524  0.15976  1.0000
  H   H1414     1.0  0.22487  0.82886  0.18475  1.0000
  C   C810      1.0  0.29627  0.84673  0.23226  1.0000
  N   N42       1.0  0.32235  0.73648  0.19418  1.0000
  C   C811      1.0  0.30059  0.73635  0.20480  1.0000
  C   C812      1.0  0.32175  0.72152  0.18387  1.0000
  C   C813      1.0  0.34307  0.72535  0.20134  1.0000
  C   C814      1.0  0.32549  0.76066  0.18713  1.0000
  C   C815      1.0  0.30291  0.77908  0.18541  1.0000
  C   C816      1.0  0.02057  0.81471  0.99880  1.0000
  C   C817      1.0  0.36677  0.71950  0.19197  1.0000
  C   C818      1.0  0.30072  0.72837  0.17610  1.0000
  C   C819      1.0  0.30124  0.71034  0.16720  1.0000
  C   C820      1.0  0.30830  0.80067  0.17545  1.0000
  H   H1415     1.0  0.03328  0.79888  0.99643  1.0000
  H   H1416     1.0  0.24376  0.78133  0.07235  1.0000
  H   H1417     1.0  0.20173  0.78506  0.07674  1.0000
  H   H1418     1.0  0.28471  0.74567  0.20050  1.0000
  H   H1419     1.0  0.33741  0.72161  0.17577  1.0000
  H   H1420     1.0  0.32251  0.70312  0.18891  1.0000
  H   H1421     1.0  0.02505  0.91959  0.00751  1.0000
  H   H1422     1.0  0.24831  0.70197  0.18965  1.0000
  H   H1423     1.0  0.33579  0.76824  0.19265  1.0000
  H   H1424     1.0  0.33634  0.75990  0.17684  1.0000
  H   H1425     1.0  0.29459  0.78459  0.19536  1.0000
  H   H1426     1.0  0.28975  0.77251  0.18161  1.0000
  H   H1427     1.0  0.19320  0.72783  0.08862  1.0000
  H   H1428     1.0  0.30835  0.76266  0.21491  1.0000
  H   H1429     1.0  0.37001  0.73448  0.18393  1.0000
  H   H1430     1.0  0.36686  0.70437  0.18712  1.0000
  H   H1431     1.0  0.28388  0.72958  0.18313  1.0000
  H   H1432     1.0  0.30157  0.74510  0.16917  1.0000
  H   H1433     1.0  0.28647  0.71604  0.16140  1.0000
  H   H1434     1.0  0.31776  0.70852  0.15983  1.0000
  H   H1435     1.0  0.37740  0.72719  0.15546  1.0000
  H   H1436     1.0  0.32148  0.80821  0.17870  1.0000
  H   H1437     1.0  0.31504  0.79617  0.16507  1.0000
  H   H1438     1.0  0.29207  0.81393  0.17490  1.0000
  C   C821      1.0  0.25697  0.67948  0.10909  1.0000
  C   C822      1.0  0.09152  0.79737  0.23039  1.0000
  H   H1439     1.0  0.99954  0.85375  0.08383  1.0000
  H   H1440     1.0  0.15196  0.84845  0.00399  1.0000
  H   H1441     1.0  0.28163  0.84684  0.20893  1.0000
  C   C823      1.0  0.10378  0.84816  0.02183  1.0000
  N   N43       1.0  0.17701  0.85925  0.10947  1.0000
  C   C824      1.0  0.20056  0.85872  0.11321  1.0000
  C   C825      1.0  0.17577  0.83528  0.10727  1.0000
  C   C826      1.0  0.17546  0.87529  0.09599  1.0000
  C   C827      1.0  0.15684  0.86803  0.11997  1.0000
  C   C828      1.0  0.16062  0.86233  0.13512  1.0000
  C   C829      1.0  0.20650  0.88280  0.11315  1.0000
  C   C830      1.0  0.15425  0.87557  0.08905  1.0000
  C   C831      1.0  0.17745  0.81564  0.11969  1.0000
  C   C832      1.0  0.18081  0.79183  0.11538  1.0000
  C   C833      1.0  0.13777  0.86865  0.14472  1.0000
  C   C834      1.0  0.22743  0.88058  0.12032  1.0000
  C   C835      1.0  0.15170  0.89575  0.07725  1.0000
  H   H1442     1.0  0.21475  0.84978  0.10605  1.0000
  H   H1443     1.0  0.20258  0.84815  0.12334  1.0000
  H   H1444     1.0  0.15895  0.83522  0.10406  1.0000
  H   H1445     1.0  0.18966  0.82999  0.09876  1.0000
  H   H1446     1.0  0.19148  0.87086  0.08850  1.0000
  H   H1447     1.0  0.17483  0.89353  0.09723  1.0000
  H   H1448     1.0  0.15186  0.88730  0.11778  1.0000
  H   H1449     1.0  0.14097  0.86151  0.11926  1.0000
  H   H1450     1.0  0.17313  0.87241  0.13686  1.0000
  H   H1451     1.0  0.16771  0.84378  0.13824  1.0000
  H   H1452     1.0  0.21115  0.89135  0.10247  1.0000
  H   H1453     1.0  0.19145  0.89434  0.11821  1.0000
  H   H1454     1.0  0.13773  0.87716  0.09643  1.0000
  H   H1455     1.0  0.15670  0.85938  0.08467  1.0000
  H   H1456     1.0  0.19223  0.81536  0.12488  1.0000
  H   H1457     1.0  0.16098  0.81781  0.12710  1.0000
  H   H1458     1.0  0.16616  0.79082  0.11032  1.0000
  H   H1459     1.0  0.19755  0.78844  0.10829  1.0000
  H   H1460     1.0  0.18149  0.77810  0.12450  1.0000
  H   H1461     1.0  0.12485  0.85824  0.14388  1.0000
  H   H1462     1.0  0.14112  0.86489  0.15543  1.0000
  H   H1463     1.0  0.13033  0.88742  0.14233  1.0000
  H   H1464     1.0  0.24320  0.87042  0.11488  1.0000
  H   H1465     1.0  0.23099  0.89808  0.12030  1.0000
  H   H1466     1.0  0.22398  0.87191  0.13108  1.0000
  H   H1467     1.0  0.13691  0.89498  0.07220  1.0000
  H   H1468     1.0  0.14816  0.91265  0.08098  1.0000
  H   H1469     1.0  0.16781  0.89469  0.06952  1.0000
  C   C836      1.0  0.19842  0.73861  0.09487  1.0000
  C   C837      1.0  0.19905  0.72498  0.10925  1.0000
  H   H1470     1.0  0.22427  0.75980  0.09362  1.0000
  H   H1471     1.0  0.23614  0.73086  0.09141  1.0000
  H   H1472     1.0  0.18133  0.72162  0.11395  1.0000
  H   H1473     1.0  0.21104  0.70798  0.10887  1.0000
  H   H1474     1.0  0.20502  0.73483  0.11574  1.0000
  N   N44       1.0  0.17735  0.72687  0.18565  1.0000
  C   C838      1.0  0.16996  0.71716  0.17483  1.0000
  C   C839      1.0  0.16696  0.71566  0.19950  1.0000
  C   C840      1.0  0.16909  0.75288  0.18355  1.0000
  C   C841      1.0  0.20357  0.72200  0.18465  1.0000
  C   C842      1.0  0.21580  0.69619  0.18504  1.0000
  C   C843      1.0  0.18232  0.72380  0.16001  1.0000
  C   C844      1.0  0.16992  0.76537  0.19548  1.0000
  C   C845      1.0  0.13991  0.71940  0.20253  1.0000
  C   C846      1.0  0.13149  0.71039  0.21747  1.0000
  H   H1475     1.0  0.43653  0.87535  0.20220  1.0000
  C   C847      1.0  0.03951  0.92436  0.03413  1.0000
  C   C848      1.0  0.16554  0.79171  0.19126  1.0000
  H   H1476     1.0  0.15087  0.72297  0.17478  1.0000
  H   H1477     1.0  0.17242  0.69793  0.17721  1.0000
  H   H1478     1.0  0.17302  0.69654  0.20083  1.0000
  H   H1479     1.0  0.17333  0.72142  0.20770  1.0000
  H   H1480     1.0  0.15083  0.75751  0.18140  1.0000
  H   H1481     1.0  0.17970  0.76115  0.17431  1.0000
  H   H1482     1.0  0.21171  0.73230  0.17524  1.0000
  H   H1483     1.0  0.20861  0.72796  0.19319  1.0000
  C   C849      1.0  0.23446  0.94546  0.02158  1.0000
  H   H1484     1.0  0.21111  0.68601  0.19523  1.0000
  H   H1485     1.0  0.17940  0.74291  0.15689  1.0000
  H   H1486     1.0  0.15416  0.72049  0.14994  1.0000
  H   H1487     1.0  0.18703  0.76020  0.19899  1.0000
  H   H1488     1.0  0.15632  0.76118  0.20431  1.0000
  H   H1489     1.0  0.13177  0.73797  0.20042  1.0000
  H   H1490     1.0  0.13342  0.70970  0.19619  1.0000
  C   C850      1.0  0.45363  0.77011  0.22829  1.0000
  C   C851      1.0  0.08642  0.66262  0.17697  1.0000
  C   C852      1.0  0.17496  0.85386  0.98491  1.0000
  C   C853      1.0  0.06096  0.93161  0.02938  1.0000
  H   H1491     1.0  0.24801  0.70269  0.17171  1.0000
  H   H1492     1.0  0.24565  0.67124  0.21097  1.0000
  H   H1493     1.0  0.17943  0.79701  0.18288  1.0000
  H   H1494     1.0  0.14819  0.79794  0.18797  1.0000
  H   H1495     1.0  0.16576  0.80012  0.20008  1.0000
  H   H1496     1.0  0.01230  0.82311  0.98972  1.0000
  H   H1497     1.0  0.31937  0.73937  0.12729  1.0000
  H   H1498     1.0  0.30180  0.66883  0.12319  1.0000
  S   S196      1.0  0.39701  0.75753  0.22125  1.0000
  H   H1499     1.0  0.06475  0.82476  0.98876  1.0000
  H   H1500     1.0  0.35050  0.73144  0.12710  1.0000
  H   H1501     1.0  0.29951  0.69326  0.17355  1.0000
  H   H1502     1.0  0.44156  0.84726  0.19711  1.0000
  H   H1503     1.0  0.33984  0.70881  0.20805  1.0000
  N   N45       1.0  0.22470  0.97056  0.01640  1.0000
  H   H1504     1.0  0.27226  0.90930  0.02627  1.0000
  H   H1505     1.0  0.18268  0.71782  0.13954  1.0000
  C   C854      1.0  0.06336  0.74280  0.22456  1.0000
  H   H1506     1.0  0.12858  0.82624  0.99531  1.0000
  N   N46       1.0  0.06314  0.85855  0.99418  1.0000
  H   H1507     1.0  0.43522  0.67319  0.20761  1.0000
  C   C855      1.0  0.07464  0.84835  0.00662  1.0000
  H   H1508     1.0  0.06716  0.90422  0.99815  1.0000
  H   H1509     1.0  0.07735  0.77273  0.98966  1.0000
  H   H1510     1.0  0.22472  0.69094  0.05893  1.0000
  H   H1511     1.0  0.28421  0.78081  0.07479  1.0000
  H   H1512     1.0  0.08259  0.79764  0.21072  1.0000
  C   C856      1.0  0.09065  0.86250  0.01052  1.0000
  H   H1513     1.0  0.47177  0.77150  0.22334  1.0000
  C   C857      1.0  0.23984  0.98649  0.01840  1.0000
  H   H1514     1.0  0.29315  0.77003  0.05867  1.0000
  C   C858      1.0  0.30101  0.74651  0.21771  1.0000
  H   H1515     1.0  0.29745  0.71825  0.20833  1.0000
  H   H1516     1.0  0.20712  0.95466  0.04444  1.0000
  H   H1517     1.0  0.20963  0.73219  0.06379  1.0000
  C   C859      1.0  0.24727  0.67421  0.12281  1.0000
  H   H1518     1.0  0.33694  0.66194  0.20236  1.0000
  C   C860      1.0  0.11299  0.66036  0.17383  1.0000
  H   H1519     1.0  0.10673  0.96093  0.02981  1.0000
  H   H1520     1.0  0.27426  0.89732  0.01096  1.0000
  H   H1521     1.0  0.11326  0.83113  0.01908  1.0000
  H   H1522     1.0  0.08008  0.87822  0.01447  1.0000
  C   C861      1.0  0.28941  0.76492  0.06991  1.0000
  H   H1523     1.0  0.07435  0.67224  0.21783  1.0000
  C   C862      1.0  0.04868  0.73494  0.19180  1.0000
  H   H1524     1.0  0.32526  0.67256  0.10990  1.0000
  H   H1525     1.0  0.29437  0.67575  0.15090  1.0000
  H   H1526     1.0  0.21097  0.68805  0.17732  1.0000
  C   C863      1.0  0.38702  0.71271  0.20006  1.0000
  H   H1527     1.0  0.04305  0.66043  0.17847  1.0000
  H   H1528     1.0  0.11401  0.93129  0.98757  1.0000
  H   H1529     1.0  0.34569  0.73679  0.20817  1.0000
  H   H1530     1.0  0.30566  0.75465  0.07349  1.0000
  H   H1531     1.0  0.36321  0.84174  0.20444  1.0000
  N   N47       1.0  0.22579  0.75320  0.07317  1.0000
  C   C864      1.0  0.27014  0.75040  0.07384  1.0000
  H   H1532     1.0  0.08910  0.98504  0.01081  1.0000
  H   H1533     1.0  0.31758  0.83845  0.19548  1.0000
  C   C865      1.0  0.20506  0.77179  0.06988  1.0000
  H   H1534     1.0  0.18887  0.76430  0.07194  1.0000
  H   H1535     1.0  0.25230  0.81364  0.22809  1.0000
  H   H1536     1.0  0.11900  0.66144  0.16267  1.0000
  H   H1537     1.0  0.26553  0.76643  0.22037  1.0000
  C   C866      1.0  0.32907  0.69195  0.13113  1.0000
  C   C867      1.0  0.03251  0.92322  0.99657  1.0000
  C   C868      1.0  0.24731  0.76419  0.06884  1.0000
  C   C869      1.0  0.33625  0.73253  0.12121  1.0000
  H   H1538     1.0  0.06130  0.84565  0.01586  1.0000
  H   H1539     1.0  0.17853  0.81363  0.05924  1.0000
  H   H1540     1.0  0.09178  0.74447  0.98536  1.0000
  C   C870      1.0  0.20699  0.78472  0.05495  1.0000
  C   C871      1.0  0.18391  0.80057  0.05223  1.0000
  H   H1541     1.0  0.22042  0.79588  0.05286  1.0000
  H   H1542     1.0  0.16991  0.79027  0.05352  1.0000
  H   H1543     1.0  0.25155  0.76797  0.05753  1.0000
  C   C872      1.0  0.22732  0.73363  0.06532  1.0000
  H   H1544     1.0  0.11221  0.71214  0.21936  1.0000
  S   S197      1.0  0.18600  0.79848  0.22640  1.0000
  H   H1545     1.0  0.18602  0.80998  0.04159  1.0000
  H   H1546     1.0  0.46448  0.68886  0.12303  1.0000
  H   H1547     1.0  0.22666  0.70251  0.08097  1.0000
  C   C873      1.0  0.07586  0.79873  0.22134  1.0000
  H   H1548     1.0  0.20900  0.69877  0.21827  1.0000
  H   H1549     1.0  0.41233  0.69036  0.13505  1.0000
  H   H1550     1.0  0.02705  0.69901  0.20028  1.0000
  C   C874      1.0  0.09957  0.97447  0.03640  1.0000
  H   H1551     1.0  0.21180  0.77223  0.04761  1.0000
  H   H1552     1.0  0.17375  0.97499  0.05879  1.0000
  C   C875      1.0  0.05591  0.67063  0.22147  1.0000
  C   C876      1.0  0.05157  0.80122  0.22594  1.0000
  H   H1553     1.0  0.41471  0.85727  0.20806  1.0000
  H   H1554     1.0  0.06375  0.97979  0.03379  1.0000
  S   S198      1.0  0.36894  0.67990  0.16263  1.0000
  S   S199      1.0  0.01377  0.94308  0.03015  1.0000
  S   S200      1.0  0.12194  0.79426  0.22396  1.0000
  C   C877      1.0  0.17305  0.71343  0.14996  1.0000
  H   H1555     1.0  0.23705  0.73747  0.05481  1.0000
  C   C878      1.0  0.43252  0.68743  0.16797  1.0000
  H   H1556     1.0  0.18857  0.96678  0.02246  1.0000
  C   C879      1.0  0.24169  0.69164  0.06175  1.0000
  C   C880      1.0  0.03913  0.65508  0.18969  1.0000
  H   H1557     1.0  0.38417  0.69799  0.20835  1.0000
  H   H1558     1.0  0.31006  0.69793  0.13423  1.0000
  C   C881      1.0  0.35299  0.83813  0.19726  1.0000
  H   H1559     1.0  0.24195  0.83244  0.20494  1.0000
  H   H1560     1.0  0.08782  0.66906  0.19702  1.0000
  H   H1561     1.0  0.32301  0.71105  0.11094  1.0000
  H   H1562     1.0  0.09150  0.84527  0.03153  1.0000
  C   C882      1.0  0.04481  0.87983  0.99666  1.0000
  H   H1563     1.0  0.08523  0.83083  0.00531  1.0000
  H   H1564     1.0  0.45799  0.73430  0.22535  1.0000
  H   H1565     1.0  0.22004  0.93551  0.02540  1.0000
  H   H1566     1.0  0.07193  0.73277  0.21624  1.0000
  C   C883      1.0  0.17423  0.97768  0.04758  1.0000
  N   N48       1.0  0.33464  0.66641  0.13008  1.0000
  C   C884      1.0  0.33595  0.70875  0.11790  1.0000
  H   H1567     1.0  0.16409  0.96569  0.04531  1.0000
  C   C885      1.0  0.23829  0.70886  0.07165  1.0000
  H   H1568     1.0  0.04893  0.75632  0.22090  1.0000
  C   C886      1.0  0.14266  0.83333  0.98854  1.0000
  C   C887      1.0  0.38695  0.77775  0.23249  1.0000
  H   H1569     1.0  0.29614  0.67216  0.21401  1.0000
  C   C888      1.0  0.25552  0.83141  0.22359  1.0000
  H   H1570     1.0  0.20901  0.98460  0.04348  1.0000
  H   H1571     1.0  0.24112  0.68404  0.14278  1.0000
  C   C889      1.0  0.24898  0.66513  0.22163  1.0000
  C   C890      1.0  0.24870  0.68812  0.13218  1.0000
  C   C891      1.0  0.26815  0.69861  0.10480  1.0000
  H   H1572     1.0  0.27606  0.70243  0.09426  1.0000
  H   H1573     1.0  0.22011  0.84051  0.21914  1.0000
  H   H1574     1.0  0.25867  0.67778  0.22364  1.0000
  H   H1575     1.0  0.27550  0.96720  0.01432  1.0000
  H   H1576     1.0  0.49181  0.66300  0.19913  1.0000
  H   H1577     1.0  0.03451  0.73810  0.20055  1.0000
  H   H1578     1.0  0.44211  0.77565  0.22038  1.0000
  H   H1579     1.0  0.03647  0.87805  0.00755  1.0000
  C   C892      1.0  0.05271  0.90371  0.99286  1.0000
  C   C893      1.0  0.24235  0.69400  0.18222  1.0000
  S   S201      1.0  0.19283  0.86812  0.99108  1.0000
  H   H1580     1.0  0.06153  0.74614  0.19145  1.0000
  C   C894      1.0  0.22135  0.97354  0.00170  1.0000
  C   C895      1.0  0.45046  0.68426  0.13147  1.0000
  C   C896      1.0  0.15591  0.84581  0.99346  1.0000
  C   C897      1.0  0.19956  0.97278  0.04045  1.0000
  H   H1581     1.0  0.32584  0.80477  0.21236  1.0000
  H   H1582     1.0  0.32082  0.85816  0.20603  1.0000
  H   H1583     1.0  0.28907  0.86298  0.22576  1.0000
  H   H1584     1.0  0.24191  0.92782  0.00371  1.0000
  H   H1585     1.0  0.33758  0.81955  0.22200  1.0000
  H   H1586     1.0  0.20143  0.71718  0.15894  1.0000
  H   H1587     1.0  0.40896  0.66145  0.21431  1.0000
  C   C898      1.0  0.06071  0.70944  0.19347  1.0000
  H   H1588     1.0  0.42489  0.71450  0.12526  1.0000
  Fe  Fe105     1.0  0.20488  0.76183  0.22615  1.0000
  C   C899      1.0  0.41327  0.67796  0.16731  1.0000
  C   C900      1.0  0.45264  0.65758  0.13585  1.0000
  C   C901      1.0  0.32315  0.82162  0.21616  1.0000
  C   C902      1.0  0.32074  0.66227  0.12012  1.0000
  H   H1589     1.0  0.04071  0.82199  0.01218  1.0000
  C   C903      1.0  0.03270  0.83151  0.00319  1.0000
  H   H1590     1.0  0.03980  0.80202  0.21888  1.0000
  H   H1591     1.0  0.24218  0.98377  0.02926  1.0000
  H   H1592     1.0  0.23879  0.86048  0.21003  1.0000
  N   N49       1.0  0.29964  0.82596  0.22512  1.0000
  H   H1593     1.0  0.26595  0.93989  0.00576  1.0000
  C   C904      1.0  0.39325  0.69216  0.16291  1.0000
  H   H1594     1.0  0.07835  0.67962  0.17165  1.0000
  H   H1595     1.0  0.33930  0.74489  0.11161  1.0000
  H   H1596     1.0  0.23769  0.96694  0.99512  1.0000
  H   H1597     1.0  0.26813  0.73625  0.22821  1.0000
  H   H1598     1.0  0.04115  0.73996  0.18220  1.0000
  H   H1599     1.0  0.09513  0.96575  0.04705  1.0000
  C   C905      1.0  0.38383  0.80157  0.22767  1.0000
  C   C906      1.0  0.04578  0.65935  0.21197  1.0000
  C   C907      1.0  0.26223  0.90731  0.01852  1.0000
  H   H1600     1.0  0.38689  0.80772  0.21687  1.0000
  H   H1601     1.0  0.25402  0.69653  0.05239  1.0000
  C   C908      1.0  0.27660  0.75172  0.22602  1.0000
  H   H1602     1.0  0.06797  0.70549  0.20306  1.0000
  H   H1603     1.0  0.07556  0.70753  0.18497  1.0000
  H   H1604     1.0  0.24835  0.89723  0.02361  1.0000
  H   H1605     1.0  0.11862  0.67444  0.17739  1.0000
  C   C909      1.0  0.20082  0.97682  0.02471  1.0000
  H   H1606     1.0  0.04531  0.68816  0.22228  1.0000
  H   H1607     1.0  0.29703  0.78987  0.22973  1.0000
  C   C910      1.0  0.32716  0.84042  0.20346  1.0000
  H   H1608     1.0  0.13638  0.72052  0.22424  1.0000
  H   H1609     1.0  0.17569  0.69421  0.15265  1.0000
  H   H1610     1.0  0.25068  0.67539  0.18310  1.0000
  H   H1611     1.0  0.03032  0.88135  0.99084  1.0000
  C   C911      1.0  0.28110  0.83022  0.21611  1.0000
  H   H1612     1.0  0.44773  0.67625  0.17158  1.0000
  H   H1613     1.0  0.01910  0.84626  0.00636  1.0000
  C   C912      1.0  0.25153  0.93103  0.01132  1.0000
  H   H1614     1.0  0.33775  0.69508  0.13925  1.0000
  H   H1615     1.0  0.42551  0.68964  0.11743  1.0000
  H   H1616     1.0  0.28460  0.81644  0.20958  1.0000
  C   C913      1.0  0.23809  0.84187  0.21377  1.0000
  C   C914      1.0  0.49008  0.67966  0.19199  1.0000
  S   S202      1.0  0.48632  0.80601  0.19319  1.0000
  H   H1617     1.0  0.31639  0.66195  0.19141  1.0000
  H   H1618     1.0  0.01851  0.92493  0.99040  1.0000
  H   H1619     1.0  0.33011  0.85835  0.22741  1.0000
  H   H1620     1.0  0.11315  0.98483  0.03608  1.0000
  H   H1621     1.0  0.20269  0.65831  0.16263  1.0000
  N   N50       1.0  0.05168  0.66747  0.19685  1.0000
  C   C915      1.0  0.22500  0.66816  0.23120  1.0000
  C   C916      1.0  0.07761  0.65982  0.19256  1.0000
  H   H1622     1.0  0.24907  0.67400  0.06669  1.0000
  H   H1623     1.0  0.00464  0.67800  0.19366  1.0000
  C   C917      1.0  0.26479  0.98371  0.01011  1.0000
  H   H1624     1.0  0.48242  0.67766  0.18321  1.0000
  H   H1625     1.0  0.42192  0.82218  0.22514  1.0000
  H   H1626     1.0  0.46457  0.84626  0.21482  1.0000
  C   C918      1.0  0.44557  0.84655  0.21813  1.0000
  H   H1627     1.0  0.48858  0.67258  0.14170  1.0000
  H   H1628     1.0  0.36430  0.66377  0.11375  1.0000
  H   H1629     1.0  0.44192  0.65484  0.14615  1.0000
  H   H1630     1.0  0.22183  0.70511  0.23161  1.0000
  C   C919      1.0  0.44105  0.82161  0.22363  1.0000
  H   H1631     1.0  0.01624  0.98357  0.99735  1.0000
  H   H1632     1.0  0.12362  0.90089  0.98579  1.0000
  H   H1633     1.0  0.26476  0.98387  0.99916  1.0000
  C   C920      1.0  0.01204  0.65937  0.19342  1.0000
  H   H1634     1.0  0.00603  0.66086  0.17262  1.0000
  H   H1635     1.0  0.48432  0.80553  0.22351  1.0000
  S   S203      1.0  0.25501  0.66281  0.09705  1.0000
  C   C921      1.0  0.42702  0.65775  0.20869  1.0000
  H   H1636     1.0  0.05269  0.98600  0.00546  1.0000
  C   C922      1.0  0.30185  0.65723  0.15041  1.0000
  H   H1637     1.0  0.41416  0.65959  0.17026  1.0000
  H   H1638     1.0  0.21363  0.65702  0.22933  1.0000
  C   C923      1.0  0.36065  0.66018  0.12510  1.0000
  H   H1639     1.0  0.23824  0.65975  0.12614  1.0000
  H   H1640     1.0  0.46900  0.66455  0.10770  1.0000
  H   H1641     1.0  0.43864  0.85818  0.22586  1.0000
  H   H1642     1.0  0.37396  0.83594  0.23307  1.0000
  Fe  Fe106     1.0  0.19350  0.79280  0.24789  1.0000
  S   S204      1.0  0.45110  0.77016  0.44084  1.0000
  S   S205      1.0  0.21262  0.81798  0.25328  1.0000
  H   H1643     1.0  0.40869  0.91546  0.41132  1.0000
  C   C924      1.0  0.13689  0.71670  0.25915  1.0000
  H   H1644     1.0  0.09221  0.68285  0.28062  1.0000
  S   S206      1.0  0.15892  0.78153  0.25699  1.0000
  H   H1645     1.0  0.04952  0.68525  0.28299  1.0000
  Fe  Fe107     1.0  0.30517  0.79866  0.30127  1.0000
  S   S207      1.0  0.33300  0.78108  0.28651  1.0000
  S   S208      1.0  0.26786  0.79340  0.30345  1.0000
  Fe  Fe108     1.0  0.34037  0.81654  0.31355  1.0000
  S   S209      1.0  0.37124  0.79997  0.29968  1.0000
  S   S210      1.0  0.33950  0.83658  0.33079  1.0000
  Fe  Fe109     1.0  0.34868  0.81298  0.28335  1.0000
  S   S211      1.0  0.36203  0.82980  0.26220  1.0000
  Fe  Fe110     1.0  0.35313  0.76929  0.30391  1.0000
  S   S212      1.0  0.37215  0.73222  0.30638  1.0000
  S   S213      1.0  0.31893  0.83201  0.29674  1.0000
  S   S214      1.0  0.32414  0.78450  0.31915  1.0000
  H   H1646     1.0  0.43857  0.86348  0.43623  1.0000
  C   C925      1.0  0.05829  0.71549  0.26811  1.0000
  H   H1647     1.0  0.01124  0.72958  0.28123  1.0000
  S   S215      1.0  0.44914  0.90058  0.39276  1.0000
  Fe  Fe111     1.0  0.43058  0.88798  0.36046  1.0000
  S   S216      1.0  0.44702  0.85985  0.37577  1.0000
  S   S217      1.0  0.42499  0.87623  0.34138  1.0000
  Fe  Fe112     1.0  0.42324  0.87934  0.39146  1.0000
  S   S218      1.0  0.40233  0.86555  0.41112  1.0000
  Fe  Fe113     1.0  0.47130  0.88393  0.37555  1.0000
  C   C926      1.0  0.42280  0.89747  0.46583  1.0000
  S   S219      1.0  0.40480  0.90578  0.37634  1.0000
  S   S220      1.0  0.45682  0.91116  0.35918  1.0000
  C   C927      1.0  0.41574  0.83886  0.41924  1.0000
  C   C928      1.0  0.43306  0.82413  0.41188  1.0000
  C   C929      1.0  0.44336  0.80262  0.41850  1.0000
  C   C930      1.0  0.43690  0.79623  0.43256  1.0000
  C   C931      1.0  0.41984  0.81111  0.43996  1.0000
  C   C932      1.0  0.40893  0.83223  0.43324  1.0000
  H   H1648     1.0  0.43836  0.82919  0.40109  1.0000
  H   H1649     1.0  0.46540  0.82515  0.43385  1.0000
  H   H1650     1.0  0.21980  0.85990  0.28795  1.0000
  H   H1651     1.0  0.39555  0.84364  0.43895  1.0000
  C   C933      1.0  0.41383  0.92060  0.44308  1.0000
  H   H1652     1.0  0.31083  0.80742  0.25310  1.0000
  H   H1653     1.0  0.47001  0.95476  0.38213  1.0000
  Fe  Fe114     1.0  0.45588  0.77368  0.46176  1.0000
  H   H1654     1.0  0.26198  0.69609  0.24452  1.0000
  C   C934      1.0  0.43073  0.91511  0.45363  1.0000
  C   C935      1.0  0.36336  0.84779  0.33344  1.0000
  C   C936      1.0  0.38522  0.84421  0.32520  1.0000
  C   C937      1.0  0.40378  0.85319  0.32773  1.0000
  C   C938      1.0  0.40085  0.86558  0.33861  1.0000
  C   C939      1.0  0.37894  0.86932  0.34680  1.0000
  C   C940      1.0  0.36029  0.86049  0.34421  1.0000
  H   H1655     1.0  0.38783  0.83458  0.31685  1.0000
  H   H1656     1.0  0.42060  0.85039  0.32125  1.0000
  H   H1657     1.0  0.37631  0.87938  0.35495  1.0000
  H   H1658     1.0  0.34340  0.86355  0.35057  1.0000
  C   C941      1.0  0.35276  0.71272  0.30914  1.0000
  C   C942      1.0  0.36023  0.69095  0.30488  1.0000
  C   C943      1.0  0.34478  0.67526  0.30720  1.0000
  C   C944      1.0  0.32215  0.68103  0.31425  1.0000
  C   C945      1.0  0.31478  0.70267  0.31859  1.0000
  C   C946      1.0  0.32990  0.71863  0.31583  1.0000
  H   H1659     1.0  0.37787  0.68638  0.29964  1.0000
  S   S221      1.0  0.17710  0.71329  0.26925  1.0000
  H   H1660     1.0  0.29727  0.70719  0.32403  1.0000
  H   H1661     1.0  0.32402  0.73533  0.31916  1.0000
  C   C947      1.0  0.37196  0.80963  0.25088  1.0000
  C   C948      1.0  0.08252  0.79917  0.24405  1.0000
  C   C949      1.0  0.38246  0.76987  0.24652  1.0000
  C   C950      1.0  0.37528  0.78579  0.25571  1.0000
  C   C951      1.0  0.35150  0.68358  0.35147  1.0000
  H   H1662     1.0  0.38504  0.75143  0.25032  1.0000
  H   H1663     1.0  0.37274  0.77951  0.26652  1.0000
  C   C952      1.0  0.22921  0.80910  0.26673  1.0000
  C   C953      1.0  0.24844  0.81950  0.26636  1.0000
  C   C954      1.0  0.26139  0.81370  0.27718  1.0000
  C   C955      1.0  0.25425  0.79852  0.28885  1.0000
  C   C956      1.0  0.23493  0.78824  0.28928  1.0000
  C   C957      1.0  0.22278  0.79302  0.27813  1.0000
  H   H1664     1.0  0.25302  0.83239  0.25777  1.0000
  H   H1665     1.0  0.27618  0.82182  0.27678  1.0000
  H   H1666     1.0  0.22912  0.77687  0.29839  1.0000
  H   H1667     1.0  0.20777  0.78519  0.27861  1.0000
  C   C958      1.0  0.15572  0.70178  0.26449  1.0000
  C   C959      1.0  0.15835  0.67782  0.26502  1.0000
  H   H1668     1.0  0.43187  0.82073  0.34569  1.0000
  C   C960      1.0  0.12415  0.68382  0.25414  1.0000
  H   H1669     1.0  0.40527  0.90449  0.47120  1.0000
  H   H1670     1.0  0.41415  0.90382  0.43976  1.0000
  H   H1671     1.0  0.00397  0.72443  0.24538  1.0000
  H   H1672     1.0  0.27769  0.75651  0.23590  1.0000
  C   C961      1.0  0.31159  0.86994  0.24599  1.0000
  H   H1673     1.0  0.05289  0.75216  0.24961  1.0000
  H   H1674     1.0  0.34758  0.82135  0.37323  1.0000
  C   C962      1.0  0.45301  0.74454  0.23387  1.0000
  S   S222      1.0  0.42035  0.96325  0.38079  1.0000
  H   H1675     1.0  0.28537  0.85844  0.33711  1.0000
  Fe  Fe115     1.0  0.17965  0.74601  0.25438  1.0000
  H   H1676     1.0  0.47067  0.96775  0.46017  1.0000
  C   C963      1.0  0.27326  0.81839  0.34107  1.0000
  H   H1677     1.0  0.13483  0.73527  0.25867  1.0000
  C   C964      1.0  0.26931  0.79334  0.34501  1.0000
  C   C965      1.0  0.30264  0.89649  0.32722  1.0000
  H   H1678     1.0  0.48509  0.79100  0.24034  1.0000
  H   H1679     1.0  0.00362  0.74960  0.26676  1.0000
  C   C966      1.0  0.28131  0.89062  0.32321  1.0000
  C   C967      1.0  0.28154  0.86411  0.32652  1.0000
  H   H1680     1.0  0.39575  0.92530  0.44859  1.0000
  H   H1681     1.0  0.37041  0.68441  0.34912  1.0000
  C   C968      1.0  0.44474  0.78540  0.23969  1.0000
  C   C969      1.0  0.23945  0.86649  0.33500  1.0000
  C   C970      1.0  0.49009  0.87555  0.47781  1.0000
  S   S223      1.0  0.30297  0.66123  0.31844  1.0000
  H   H1682     1.0  0.46548  0.73760  0.24119  1.0000
  H   H1683     1.0  0.08747  0.70961  0.28744  1.0000
  N   N51       1.0  0.25970  0.85630  0.32502  1.0000
  C   C971      1.0  0.40914  0.81559  0.37288  1.0000
  H   H1684     1.0  0.40716  0.74568  0.41214  1.0000
  H   H1685     1.0  0.42048  0.82465  0.37670  1.0000
  H   H1686     1.0  0.42327  0.76400  0.41737  1.0000
  H   H1687     1.0  0.48935  0.92485  0.46299  1.0000
  N   N52       1.0  0.45060  0.80945  0.23646  1.0000
  S   S224      1.0  0.43074  0.77339  0.48148  1.0000
  H   H1688     1.0  0.43706  0.67855  0.46738  1.0000
  H   H1689     1.0  0.41299  0.77298  0.39037  1.0000
  H   H1690     1.0  0.27737  0.78329  0.33658  1.0000
  H   H1691     1.0  0.04202  0.75136  0.28294  1.0000
  H   H1692     1.0  0.38807  0.82982  0.39932  1.0000
  H   H1693     1.0  0.27734  0.78488  0.35419  1.0000
  C   C972      1.0  0.37796  0.82641  0.39197  1.0000
  H   H1694     1.0  0.37920  0.94472  0.39982  1.0000
  H   H1695     1.0  0.20309  0.87246  0.35675  1.0000
  H   H1696     1.0  0.32364  0.76617  0.26079  1.0000
  C   C973      1.0  0.35335  0.86711  0.39115  1.0000
  H   H1697     1.0  0.36214  0.77857  0.35878  1.0000
  H   H1698     1.0  0.49358  0.97652  0.39101  1.0000
  C   C974      1.0  0.43793  0.82209  0.24811  1.0000
  H   H1699     1.0  0.42213  0.88096  0.46255  1.0000
  H   H1700     1.0  0.32887  0.65874  0.35773  1.0000
  H   H1701     1.0  0.22715  0.66383  0.24208  1.0000
  N   N53       1.0  0.41870  0.93887  0.43084  1.0000
  C   C975      1.0  0.44402  0.81073  0.26248  1.0000
  H   H1702     1.0  0.47067  0.68790  0.42859  1.0000
  S   S225      1.0  0.48293  0.74544  0.47017  1.0000
  H   H1703     1.0  0.03738  0.69317  0.25531  1.0000
  C   C976      1.0  0.47477  0.98162  0.39235  1.0000
  C   C977      1.0  0.42435  0.79953  0.27164  1.0000
  H   H1704     1.0  0.03696  0.76997  0.26726  1.0000
  H   H1705     1.0  0.38492  0.98007  0.43872  1.0000
  H   H1706     1.0  0.43157  0.93085  0.45764  1.0000
  C   C978      1.0  0.14272  0.66884  0.25970  1.0000
  H   H1707     1.0  0.31648  0.75861  0.24597  1.0000
  H   H1708     1.0  0.00067  0.76549  0.29333  1.0000
  H   H1709     1.0  0.45186  0.77547  0.24891  1.0000
  C   C979      1.0  0.34796  0.65838  0.35523  1.0000
  C   C980      1.0  0.23550  0.65923  0.32378  1.0000
  C   C981      1.0  0.05816  0.80248  0.24854  1.0000
  H   H1710     1.0  0.00648  0.68354  0.24415  1.0000
  H   H1711     1.0  0.46050  0.79779  0.26197  1.0000
  H   H1712     1.0  0.05966  0.66626  0.24271  1.0000
  C   C982      1.0  0.48481  0.85871  0.46976  1.0000
  H   H1713     1.0  0.22898  0.67162  0.33116  1.0000
  H   H1714     1.0  0.46450  0.95349  0.41977  1.0000
  C   C983      1.0  0.12094  0.70770  0.25411  1.0000
  H   H1715     1.0  0.37037  0.91692  0.40517  1.0000
  H   H1716     1.0  0.43526  0.89353  0.47320  1.0000
  C   C984      1.0  0.18072  0.65519  0.29871  1.0000
  C   C985      1.0  0.04149  0.74005  0.24886  1.0000
  C   C986      1.0  0.34914  0.79183  0.36392  1.0000
  C   C987      1.0  0.48439  0.92145  0.41399  1.0000
  H   H1717     1.0  0.42038  0.78559  0.26714  1.0000
  H   H1718     1.0  0.42952  0.79184  0.28175  1.0000
  H   H1719     1.0  0.40822  0.81279  0.27325  1.0000
  H   H1720     1.0  0.44686  0.82445  0.26767  1.0000
  H   H1721     1.0  0.38166  0.95073  0.42990  1.0000
  H   H1722     1.0  0.45670  0.79116  0.41281  1.0000
  H   H1723     1.0  0.10684  0.71938  0.24961  1.0000
  H   H1724     1.0  0.43630  0.78409  0.37136  1.0000
  C   C988      1.0  0.46409  0.93468  0.42294  1.0000
  C   C989      1.0  0.39812  0.94440  0.42325  1.0000
  C   C990      1.0  0.02473  0.70548  0.26131  1.0000
  N   N54       1.0  0.24354  0.70591  0.29103  1.0000
  C   C991      1.0  0.25653  0.72573  0.28910  1.0000
  C   C992      1.0  0.21813  0.71579  0.29031  1.0000
  C   C993      1.0  0.24671  0.69119  0.30468  1.0000
  C   C994      1.0  0.25292  0.69094  0.28007  1.0000
  C   C995      1.0  0.25173  0.70343  0.26522  1.0000
  C   C996      1.0  0.28363  0.71915  0.28658  1.0000
  N   N55       1.0  0.03577  0.72531  0.26256  1.0000
  C   C997      1.0  0.20446  0.72875  0.30214  1.0000
  C   C998      1.0  0.17931  0.73878  0.29989  1.0000
  C   C999      1.0  0.26364  0.68703  0.25504  1.0000
  C   C1000     1.0  0.29476  0.73894  0.28837  1.0000
  H   H1725     1.0  0.34338  0.69308  0.36012  1.0000
  H   H1726     1.0  0.25154  0.73462  0.29823  1.0000
  H   H1727     1.0  0.25132  0.73943  0.28052  1.0000
  H   H1728     1.0  0.21637  0.72845  0.28075  1.0000
  H   H1729     1.0  0.20869  0.70197  0.28960  1.0000
  H   H1730     1.0  0.24291  0.70220  0.31284  1.0000
  H   H1731     1.0  0.26523  0.68259  0.30459  1.0000
  H   H1732     1.0  0.27126  0.68216  0.28083  1.0000
  H   H1733     1.0  0.24296  0.67664  0.28155  1.0000
  H   H1734     1.0  0.26027  0.71882  0.26277  1.0000
  H   H1735     1.0  0.23327  0.70913  0.26361  1.0000
  H   H1736     1.0  0.29019  0.70368  0.29371  1.0000
  H   H1737     1.0  0.29000  0.71535  0.27605  1.0000
  H   H1738     1.0  0.25521  0.67154  0.25706  1.0000
  C   C1001     1.0  0.31430  0.79568  0.24538  1.0000
  H   H1739     1.0  0.20380  0.71700  0.31207  1.0000
  H   H1740     1.0  0.21266  0.74334  0.30285  1.0000
  H   H1741     1.0  0.16983  0.74809  0.30841  1.0000
  H   H1742     1.0  0.17898  0.75126  0.29020  1.0000
  H   H1743     1.0  0.46752  0.84732  0.41912  1.0000
  C   C1002     1.0  0.42532  0.79713  0.36475  1.0000
  H   H1744     1.0  0.09428  0.79861  0.25108  1.0000
  H   H1745     1.0  0.31406  0.73438  0.28570  1.0000
  H   H1746     1.0  0.28838  0.75526  0.28176  1.0000
  H   H1747     1.0  0.29049  0.74194  0.29914  1.0000
  H   H1748     1.0  0.04415  0.71152  0.29020  1.0000
  H   H1749     1.0  0.30073  0.86348  0.25564  1.0000
  H   H1750     1.0  0.33657  0.86069  0.39402  1.0000
  H   H1751     1.0  0.28206  0.89681  0.31210  1.0000
  H   H1752     1.0  0.48135  0.92614  0.48058  1.0000
  H   H1753     1.0  0.48223  0.92626  0.40310  1.0000
  H   H1754     1.0  0.40043  0.82896  0.36534  1.0000
  H   H1755     1.0  0.26439  0.82797  0.34956  1.0000
  H   H1756     1.0  0.26540  0.90042  0.32874  1.0000
  S   S226      1.0  0.10570  0.67279  0.24659  1.0000
  H   H1757     1.0  0.48108  0.86787  0.45959  1.0000
  H   H1758     1.0  0.07001  0.70356  0.26151  1.0000
  H   H1759     1.0  0.05140  0.80464  0.25902  1.0000
  H   H1760     1.0  0.36160  0.82153  0.39822  1.0000
  H   H1761     1.0  0.02019  0.69513  0.27149  1.0000
  H   H1762     1.0  0.42549  0.78644  0.24227  1.0000
  H   H1763     1.0  0.33263  0.79449  0.24020  1.0000
  H   H1764     1.0  0.17991  0.67016  0.30387  1.0000
  H   H1765     1.0  0.25084  0.85889  0.28480  1.0000
  H   H1766     1.0  0.41495  0.80624  0.45085  1.0000
  H   H1767     1.0  0.46930  0.85147  0.47524  1.0000
  H   H1768     1.0  0.99626  0.78460  0.27742  1.0000
  H   H1769     1.0  0.39630  0.75792  0.42761  1.0000
  H   H1770     1.0  0.45668  0.85292  0.44920  1.0000
  H   H1771     1.0  0.44201  0.91079  0.42155  1.0000
  H   H1772     1.0  0.43839  0.93760  0.41044  1.0000
  H   H1773     1.0  0.38715  0.91056  0.42616  1.0000
  H   H1774     1.0  0.02553  0.75165  0.24556  1.0000
  Fe  Fe116     1.0  0.43245  0.92618  0.37667  1.0000
  H   H1775     1.0  0.17006  0.72469  0.29945  1.0000
  S   S227      1.0  0.47200  0.80226  0.46512  1.0000
  H   H1776     1.0  0.35933  0.86900  0.40053  1.0000
  C   C1003     1.0  0.01882  0.74034  0.27185  1.0000
  H   H1777     1.0  0.48542  0.90242  0.41700  1.0000
  C   C1004     1.0  0.39305  0.92387  0.41766  1.0000
  C   C1005     1.0  0.04255  0.80306  0.23959  1.0000
  C   C1006     1.0  0.46146  0.96923  0.38736  1.0000
  H   H1778     1.0  0.32770  0.87349  0.24856  1.0000
  H   H1779     1.0  0.37464  0.77859  0.40869  1.0000
  H   H1780     1.0  0.40053  0.95875  0.41450  1.0000
  S   S228      1.0  0.21425  0.75696  0.24698  1.0000
  H   H1781     1.0  0.36284  0.78824  0.38896  1.0000
  H   H1782     1.0  0.21802  0.86642  0.31167  1.0000
  H   H1783     1.0  0.37258  0.81573  0.36002  1.0000
  H   H1784     1.0  0.06818  0.72951  0.26779  1.0000
  C   C1007     1.0  0.37579  0.79409  0.38017  1.0000
  H   H1785     1.0  0.38587  0.77781  0.37657  1.0000
  C   C1008     1.0  0.23416  0.86607  0.29095  1.0000
  H   H1786     1.0  0.23113  0.88532  0.28857  1.0000
  C   C1009     1.0  0.36143  0.80775  0.36900  1.0000
  C   C1010     1.0  0.40554  0.76124  0.41698  1.0000
  C   C1011     1.0  0.37378  0.93204  0.40885  1.0000
  H   H1787     1.0  0.46779  0.96867  0.47821  1.0000
  C   C1012     1.0  0.39184  0.78258  0.40908  1.0000
  H   H1788     1.0  0.23574  0.83888  0.30807  1.0000
  C   C1013     1.0  0.05393  0.72660  0.23700  1.0000
  H   H1789     1.0  0.29232  0.81806  0.33998  1.0000
  H   H1790     1.0  0.38883  0.79700  0.41506  1.0000
  C   C1014     1.0  0.07993  0.69412  0.28744  1.0000
  C   C1015     1.0  0.44024  0.92982  0.42120  1.0000
  H   H1791     1.0  0.45371  0.79483  0.34763  1.0000
  H   H1792     1.0  0.49362  0.67174  0.47390  1.0000
  C   C1016     1.0  0.23474  0.85793  0.30618  1.0000
  C   C1017     1.0  0.40547  0.78937  0.39457  1.0000
  H   H1793     1.0  0.49168  0.81276  0.41028  1.0000
  C   C1018     1.0  0.44602  0.69358  0.48292  1.0000
  H   H1794     1.0  0.39443  0.96061  0.45342  1.0000
  C   C1019     1.0  0.45688  0.85973  0.43818  1.0000
  C   C1020     1.0  0.39994  0.97293  0.44427  1.0000
  H   H1795     1.0  0.24563  0.86885  0.34426  1.0000
  H   H1796     1.0  0.31901  0.88769  0.32150  1.0000
  H   H1797     1.0  0.29697  0.85563  0.31989  1.0000
  H   H1798     1.0  0.28249  0.68130  0.25583  1.0000
  H   H1799     1.0  0.21355  0.84656  0.33213  1.0000
  C   C1021     1.0  0.05610  0.70138  0.28272  1.0000
  H   H1800     1.0  0.07803  0.68422  0.29795  1.0000
  H   H1801     1.0  0.33809  0.80225  0.35640  1.0000
  H   H1802     1.0  0.33773  0.78307  0.37249  1.0000
  H   H1803     1.0  0.23164  0.88431  0.33045  1.0000
  H   H1804     1.0  0.24915  0.82304  0.32673  1.0000
  H   H1805     1.0  0.27158  0.85894  0.30331  1.0000
  N   N56       1.0  0.39176  0.80668  0.38466  1.0000
  H   H1806     1.0  0.42075  0.79612  0.39603  1.0000
  C   C1022     1.0  0.25558  0.86489  0.31048  1.0000
  H   H1807     1.0  0.27828  0.82359  0.31915  1.0000
  H   H1808     1.0  0.25231  0.88417  0.30833  1.0000
  H   H1809     1.0  0.18446  0.85610  0.35210  1.0000
  H   H1810     1.0  0.19087  0.88227  0.34111  1.0000
  C   C1023     1.0  0.42118  0.96118  0.43483  1.0000
  C   C1024     1.0  0.26460  0.83011  0.32742  1.0000
  C   C1025     1.0  0.21942  0.85243  0.34038  1.0000
  H   H1811     1.0  0.25032  0.79292  0.34735  1.0000
  C   C1026     1.0  0.19821  0.86678  0.34805  1.0000
  H   H1812     1.0  0.22529  0.83669  0.34759  1.0000
  H   H1813     1.0  0.29349  0.77148  0.25837  1.0000
  C   C1027     1.0  0.37170  0.85049  0.38313  1.0000
  C   C1028     1.0  0.44188  0.80838  0.35310  1.0000
  H   H1814     1.0  0.35033  0.88449  0.38476  1.0000
  H   H1815     1.0  0.30293  0.89098  0.33833  1.0000
  H   H1816     1.0  0.30213  0.91551  0.32477  1.0000
  H   H1817     1.0  0.38758  0.85842  0.37968  1.0000
  H   H1818     1.0  0.36483  0.84933  0.37399  1.0000
  H   H1819     1.0  0.35735  0.94017  0.41482  1.0000
  H   H1820     1.0  0.41494  0.78813  0.36021  1.0000
  H   H1821     1.0  0.34317  0.69240  0.34245  1.0000
  H   H1822     1.0  0.45267  0.81786  0.35704  1.0000
  C   C1029     1.0  0.31173  0.77149  0.25308  1.0000
  H   H1823     1.0  0.44844  0.90732  0.44903  1.0000
  S   S229      1.0  0.01205  0.80609  0.24593  1.0000
  H   H1824     1.0  0.21357  0.67798  0.30937  1.0000
  H   H1825     1.0  0.44111  0.84009  0.24639  1.0000
  H   H1826     1.0  0.06882  0.71309  0.23990  1.0000
  C   C1030     1.0  0.02872  0.75922  0.27625  1.0000
  C   C1031     1.0  0.47981  0.96984  0.46831  1.0000
  H   H1827     1.0  0.23839  0.65806  0.30254  1.0000
  H   H1828     1.0  0.43515  0.74235  0.23906  1.0000
  H   H1829     1.0  0.46382  0.87611  0.43549  1.0000
  C   C1032     1.0  0.47147  0.84166  0.42965  1.0000
  C   C1033     1.0  0.00182  0.71249  0.25515  1.0000
  H   H1830     1.0  0.01705  0.78864  0.28708  1.0000
  C   C1034     1.0  0.44429  0.67500  0.47674  1.0000
  H   H1831     1.0  0.43655  0.95858  0.44003  1.0000
  H   H1832     1.0  0.41864  0.82457  0.24850  1.0000
  C   C1035     1.0  0.23244  0.67137  0.30933  1.0000
  C   C1036     1.0  0.31821  0.85171  0.23652  1.0000
  H   H1833     1.0  0.17296  0.66631  0.26901  1.0000
  H   H1834     1.0  0.44014  0.71129  0.47831  1.0000
  H   H1835     1.0  0.46732  0.92982  0.43359  1.0000
  H   H1836     1.0  0.48154  0.65711  0.42973  1.0000
  C   C1037     1.0  0.00941  0.77539  0.28403  1.0000
  H   H1837     1.0  0.49030  0.69013  0.44711  1.0000
  H   H1838     1.0  0.41996  0.98730  0.45545  1.0000
  H   H1839     1.0  0.47455  0.88952  0.47910  1.0000
  H   H1840     1.0  0.42466  0.97413  0.42548  1.0000
  H   H1841     1.0  0.48492  0.82527  0.24933  1.0000
  H   H1842     1.0  0.28285  0.84512  0.24155  1.0000
  C   C1038     1.0  0.43725  0.97635  0.38853  1.0000
  H   H1843     1.0  0.27919  0.80664  0.24184  1.0000
  H   H1844     1.0  0.35054  0.65858  0.30379  1.0000
  H   H1845     1.0  0.32816  0.83603  0.24189  1.0000
  H   H1846     1.0  0.19464  0.69465  0.23574  1.0000
  H   H1847     1.0  0.49245  0.79462  0.43321  1.0000
  C   C1039     1.0  0.47617  0.67175  0.43563  1.0000
  H   H1848     1.0  0.30187  0.88640  0.24098  1.0000
  C   C1040     1.0  0.48638  0.82713  0.23809  1.0000
  H   H1849     1.0  0.47675  0.84457  0.23450  1.0000
  H   H1850     1.0  0.46095  0.66860  0.44362  1.0000
  C   C1041     1.0  0.37642  0.81751  0.23685  1.0000
  H   H1851     1.0  0.49185  0.98650  0.36250  1.0000
  H   H1852     1.0  0.19342  0.65686  0.28911  1.0000
  C   C1042     1.0  0.05509  0.65640  0.23574  1.0000
  H   H1853     1.0  0.16309  0.65615  0.29623  1.0000
  Fe  Fe117     1.0  0.15341  0.78360  0.23524  1.0000
  C   C1043     1.0  0.29661  0.80429  0.23528  1.0000
  H   H1854     1.0  0.04145  0.71813  0.23385  1.0000
  C   C1044     1.0  0.47685  0.80733  0.23433  1.0000
  H   H1855     1.0  0.35305  0.65488  0.33393  1.0000
  S   S230      1.0  0.17223  0.74720  0.23341  1.0000
  H   H1856     1.0  0.48436  0.98742  0.46592  1.0000
  Fe  Fe118     1.0  0.44952  0.79985  0.48576  1.0000
  H   H1857     1.0  0.37432  0.72113  0.50992  1.0000
  S   S231      1.0  0.45536  0.71226  0.50370  1.0000
  S   S232      1.0  0.48084  0.93987  0.54125  1.0000
  C   C1045     1.0  0.36747  0.97442  0.66545  1.0000
  S   S233      1.0  0.43087  0.83444  0.49222  1.0000
  H   H1858     1.0  0.38663  0.69511  0.53040  1.0000
  S   S234      1.0  0.46334  0.94812  0.51130  1.0000
  H   H1859     1.0  0.38503  0.65886  0.54398  1.0000
  C   C1046     1.0  0.38124  0.96918  0.65164  1.0000
  S   S235      1.0  0.47606  0.77306  0.49620  1.0000
  H   H1860     1.0  0.48582  0.93562  0.57234  1.0000
  S   S236      1.0  0.42562  0.94503  0.54028  1.0000
  H   H1861     1.0  0.46952  0.66272  0.51046  1.0000
  C   C1047     1.0  0.40175  0.92178  0.60891  1.0000
  H   H1862     1.0  0.39750  0.97628  0.65005  1.0000
  S   S237      1.0  0.46915  0.88494  0.53092  1.0000
  H   H1863     1.0  0.35106  0.96733  0.66779  1.0000
  H   H1864     1.0  0.37815  0.96635  0.67359  1.0000
  C   C1048     1.0  0.44275  0.84867  0.50234  1.0000
  C   C1049     1.0  0.46182  0.83751  0.50885  1.0000
  C   C1050     1.0  0.46998  0.84896  0.51739  1.0000
  C   C1051     1.0  0.45946  0.87178  0.51932  1.0000
  C   C1052     1.0  0.44102  0.88328  0.51236  1.0000
  C   C1053     1.0  0.43258  0.87169  0.50402  1.0000
  H   H1865     1.0  0.46988  0.81986  0.50761  1.0000
  H   H1866     1.0  0.43271  0.90082  0.51379  1.0000
  H   H1867     1.0  0.41779  0.88044  0.49906  1.0000
  Fe  Fe119     1.0  0.48335  0.96527  0.52189  1.0000
  N   N57       1.0  0.37902  0.97795  0.62576  1.0000
  Fe  Fe120     1.0  0.44766  0.96392  0.54828  1.0000
  C   C1054     1.0  0.34020  0.98271  0.61648  1.0000
  H   H1868     1.0  0.40579  0.67127  0.50498  1.0000
  H   H1869     1.0  0.41161  0.95510  0.60530  1.0000
  H   H1870     1.0  0.48968  0.97640  0.56023  1.0000
  H   H1871     1.0  0.40360  0.71476  0.50056  1.0000
  H   H1872     1.0  0.36145  0.66801  0.53461  1.0000
  Fe  Fe121     1.0  0.45933  0.74674  0.49020  1.0000
  S   S238      1.0  0.44220  0.97564  0.56903  1.0000
  H   H1873     1.0  0.39858  0.94330  0.63057  1.0000
  C   C1055     1.0  0.36648  0.97973  0.64009  1.0000
  H   H1874     1.0  0.37523  0.67873  0.51083  1.0000
  H   H1875     1.0  0.39831  0.72973  0.51496  1.0000
  C   C1056     1.0  0.45470  0.68924  0.49523  1.0000
  H   H1876     1.0  0.41490  0.97592  0.62831  1.0000
  C   C1057     1.0  0.38532  0.95272  0.62406  1.0000
  Fe  Fe122     1.0  0.45910  0.92380  0.53110  1.0000
  H   H1877     1.0  0.38607  0.95004  0.65226  1.0000
  H   H1878     1.0  0.40895  0.91883  0.59827  1.0000
  H   H1879     1.0  0.36996  0.94402  0.62784  1.0000
  H   H1880     1.0  0.41518  0.91327  0.61544  1.0000
  H   H1881     1.0  0.38599  0.91368  0.61239  1.0000
  Fe  Fe123     1.0  0.43160  0.97059  0.52103  1.0000
  C   C1058     1.0  0.46245  0.66619  0.50104  1.0000
  H   H1882     1.0  0.32898  0.98359  0.62656  1.0000
  H   H1883     1.0  0.38271  0.95543  0.60225  1.0000
  H   H1884     1.0  0.41625  0.68950  0.52176  1.0000
  C   C1059     1.0  0.39766  0.69286  0.52040  1.0000
  H   H1885     1.0  0.34384  0.96457  0.61450  1.0000
  H   H1886     1.0  0.48472  0.96733  0.58524  1.0000
  C   C1060     1.0  0.39548  0.94784  0.60932  1.0000
  H   H1887     1.0  0.48430  0.83995  0.52269  1.0000
  C   C1061     1.0  0.39253  0.67282  0.51435  1.0000
  H   H1888     1.0  0.35131  0.97070  0.64242  1.0000
  H   H1889     1.0  0.49296  0.86591  0.48807  1.0000
  C   C1062     1.0  0.39313  0.71597  0.51085  1.0000
  C   C1063     1.0  0.40121  0.98774  0.62287  1.0000
  S   S239      1.0  0.39888  0.98740  0.51246  1.0000
  H   H1890     1.0  0.33841  0.98706  0.54594  1.0000
  Fe  Fe124     1.0  0.10068  0.84019  0.92620  1.0000
  S   S240      1.0  0.12595  0.82739  0.90871  1.0000
  S   S241      1.0  0.06571  0.86230  0.92374  1.0000
  Fe  Fe125     1.0  0.13346  0.81778  0.94637  1.0000
  S   S242      1.0  0.16194  0.80298  0.93038  1.0000
  H   H1891     1.0  0.24124  0.93488  0.96533  1.0000
  Fe  Fe126     1.0  0.15259  0.83822  0.91774  1.0000
  S   S243      1.0  0.17616  0.85981  0.90289  1.0000
  Fe  Fe127     1.0  0.13253  0.79340  0.92275  1.0000
  S   S244      1.0  0.12964  0.76271  0.91336  1.0000
  S   S245      1.0  0.12662  0.85340  0.93431  1.0000
  S   S246      1.0  0.10498  0.80570  0.93961  1.0000
  C   C1064     1.0  0.02017  0.67804  0.89938  1.0000
  S   S247      1.0  0.15922  0.96598  0.90922  1.0000
  C   C1065     1.0  0.17028  0.88953  0.90438  1.0000
  C   C1066     1.0  0.16078  0.89674  0.91695  1.0000
  C   C1067     1.0  0.15692  0.92028  0.91818  1.0000
  C   C1068     1.0  0.16262  0.93688  0.90690  1.0000
  C   C1069     1.0  0.17176  0.92982  0.89423  1.0000
  C   C1070     1.0  0.17573  0.90616  0.89300  1.0000
  H   H1892     1.0  0.15722  0.88411  0.92587  1.0000
  H   H1893     1.0  0.14945  0.92560  0.92791  1.0000
  H   H1894     1.0  0.17652  0.94244  0.88548  1.0000
  H   H1895     1.0  0.18328  0.90071  0.88325  1.0000
  C   C1071     1.0  0.13600  0.73275  0.91982  1.0000
  C   C1072     1.0  0.14700  0.72431  0.93127  1.0000
  C   C1073     1.0  0.15498  0.70029  0.93474  1.0000
  C   C1074     1.0  0.13887  0.69288  0.91622  1.0000
  C   C1075     1.0  0.13149  0.71692  0.91251  1.0000
  H   H1896     1.0  0.15024  0.73632  0.93709  1.0000
  C   C1076     1.0  0.01892  0.76217  0.96199  1.0000
  H   H1897     1.0  0.12295  0.72332  0.90365  1.0000
  C   C1077     1.0  0.05007  0.84510  0.91825  1.0000
  C   C1078     1.0  0.02660  0.85318  0.91687  1.0000
  C   C1079     1.0  0.01377  0.83852  0.91352  1.0000
  C   C1080     1.0  0.02441  0.81587  0.91152  1.0000
  C   C1081     1.0  0.04824  0.80843  0.91200  1.0000
  C   C1082     1.0  0.06095  0.82288  0.91558  1.0000
  H   H1898     1.0  0.01822  0.87052  0.91868  1.0000
  H   H1899     1.0  0.09939  0.93725  0.92532  1.0000
  H   H1900     1.0  0.05676  0.79122  0.91003  1.0000
  H   H1901     1.0  0.07916  0.81663  0.91632  1.0000
  N   N58       1.0  0.04328  0.76741  0.95788  1.0000
  H   H1902     1.0  0.07943  0.91817  0.92555  1.0000
  H   H1903     1.0  0.01782  0.72431  0.91574  1.0000
  H   H1904     1.0  0.09902  0.91798  0.97827  1.0000
  C   C1083     1.0  0.08915  0.76347  0.98169  1.0000
  C   C1084     1.0  0.20907  0.76515  0.89307  1.0000
  H   H1905     1.0  0.15263  0.94175  0.97701  1.0000
  H   H1906     1.0  0.22002  0.77317  0.89782  1.0000
  C   C1085     1.0  0.16640  0.83834  0.96625  1.0000
  H   H1907     1.0  0.10054  0.84814  0.87431  1.0000
  H   H1908     1.0  0.17537  0.73866  0.89507  1.0000
  C   C1086     1.0  0.11637  0.91839  0.98061  1.0000
  H   H1909     1.0  0.07775  0.78832  0.96504  1.0000
  H   H1910     1.0  0.18715  0.95487  0.96884  1.0000
  H   H1911     1.0  0.02489  0.90610  0.95832  1.0000
  C   C1087     1.0  0.19405  0.73055  0.89233  1.0000
  H   H1912     1.0  0.07010  0.86013  0.87304  1.0000
  H   H1913     1.0  0.16450  0.69389  0.94321  1.0000
  C   C1088     1.0  0.05775  0.75290  0.94747  1.0000
  H   H1914     1.0  0.19793  0.88307  0.93197  1.0000
  H   H1915     1.0  0.23742  0.71998  0.88669  1.0000
  C   C1089     1.0  0.08382  0.87331  0.88789  1.0000
  H   H1916     1.0  0.03183  0.74134  0.93874  1.0000
  C   C1090     1.0  0.04584  0.75181  0.93534  1.0000
  H   H1917     1.0  0.07425  0.75952  0.94305  1.0000
  S   S248      1.0  0.13094  0.81378  0.96915  1.0000
  H   H1918     1.0  0.12718  0.91863  0.87695  1.0000
  H   H1919     1.0  0.05458  0.74006  0.91566  1.0000
  H   H1920     1.0  0.20591  0.94817  0.95375  1.0000
  H   H1921     1.0  0.02704  0.95919  0.89518  1.0000
  H   H1922     1.0  0.10748  0.87631  0.95759  1.0000
  H   H1923     1.0  0.16689  0.98403  0.95617  1.0000
  H   H1924     1.0  0.05876  0.79640  0.94629  1.0000
  H   H1925     1.0  0.19533  0.85563  0.96476  1.0000
  H   H1926     1.0  0.21695  0.76633  0.88208  1.0000
  H   H1927     1.0  0.17599  0.78141  0.90455  1.0000
  C   C1091     1.0  0.01130  0.92925  0.94112  1.0000
  H   H1928     1.0  0.09047  0.87721  0.98323  1.0000
  H   H1929     1.0  0.07754  0.75096  0.92016  1.0000
  C   C1092     1.0  0.06347  0.74065  0.92423  1.0000
  H   H1930     1.0  0.12907  0.94868  0.84106  1.0000
  H   H1931     1.0  0.13501  0.91113  0.96114  1.0000
  C   C1093     1.0  0.03142  0.91362  0.94769  1.0000
  H   H1932     1.0  0.22004  0.87721  0.94281  1.0000
  H   H1933     1.0  0.03785  0.76932  0.93072  1.0000
  H   H1934     1.0  0.08338  0.90000  0.90507  1.0000
  H   H1935     1.0  0.12623  0.96419  0.85496  1.0000
  H   H1936     1.0  0.08240  0.94498  0.90389  1.0000
  C   C1094     1.0  0.18027  0.84996  0.97133  1.0000
  C   C1095     1.0  0.04591  0.92417  0.89284  1.0000
  C   C1096     1.0  0.09202  0.89441  0.87806  1.0000
  S   S249      1.0  0.00789  0.79610  0.90951  1.0000
  H   H1937     1.0  0.04179  0.90903  0.88962  1.0000
  C   C1097     1.0  0.03094  0.81049  0.96147  1.0000
  H   H1938     1.0  0.07147  0.72272  0.92837  1.0000
  C   C1098     1.0  0.15116  0.68451  0.92713  1.0000
  C   C1099     1.0  0.27782  0.72157  0.89621  1.0000
  H   H1939     1.0  0.13629  0.68087  0.91017  1.0000
  H   H1940     1.0  0.12347  0.94135  0.96196  1.0000
  H   H1941     1.0  0.19854  0.73513  0.88104  1.0000
  C   C1100     1.0  0.16412  0.95341  0.94790  1.0000
  H   H1942     1.0  0.16255  0.70622  0.88769  1.0000
  H   H1943     1.0  0.19759  0.81310  0.89350  1.0000
  C   C1101     1.0  0.18719  0.80635  0.88768  1.0000
  H   H1944     1.0  0.19571  0.80745  0.87684  1.0000
  H   H1945     1.0  0.10851  0.94571  0.87887  1.0000
  C   C1102     1.0  0.09618  0.90987  0.89834  1.0000
  C   C1103     1.0  0.19406  0.94066  0.96264  1.0000
  H   H1946     1.0  0.11046  0.88757  0.87374  1.0000
  H   H1947     1.0  0.09187  0.76032  0.96068  1.0000
  H   H1948     1.0  0.04865  0.91981  0.90362  1.0000
  H   H1949     1.0  0.17061  0.83537  0.95577  1.0000
  C   C1104     1.0  0.20889  0.92128  0.97159  1.0000
  H   H1950     1.0  0.05811  0.74292  0.97406  1.0000
  C   C1105     1.0  0.18478  0.78135  0.89385  1.0000
  H   H1951     1.0  0.10203  0.68961  0.89632  1.0000
  H   H1952     1.0  0.07778  0.83894  0.88747  1.0000
  H   H1953     1.0  0.07369  0.85358  0.96399  1.0000
  H   H1954     1.0  0.11061  0.91840  0.85547  1.0000
  H   H1955     1.0  0.06314  0.93495  0.87271  1.0000
  H   H1956     1.0  0.05506  0.87958  0.96884  1.0000
  C   C1106     1.0  0.23407  0.72612  0.89674  1.0000
  H   H1957     1.0  0.17995  0.67752  0.89012  1.0000
  H   H1958     1.0  0.09624  0.86601  0.89518  1.0000
  H   H1959     1.0  0.01959  0.94738  0.88177  1.0000
  H   H1960     1.0  0.06636  0.87795  0.89386  1.0000
  H   H1961     1.0  0.16333  0.91190  0.97692  1.0000
  H   H1962     1.0  0.17328  0.77606  0.88806  1.0000
  H   H1963     1.0  0.21270  0.69373  0.89406  1.0000
  C   C1107     1.0  0.04594  0.68446  0.91391  1.0000
  H   H1964     1.0  0.27742  0.70902  0.90587  1.0000
  H   H1965     1.0  0.06364  0.73472  0.95231  1.0000
  H   H1966     1.0  0.11375  0.93702  0.90113  1.0000
  C   C1108     1.0  0.09725  0.93044  0.90536  1.0000
  H   H1967     1.0  0.01819  0.93571  0.93042  1.0000
  C   C1109     1.0  0.01362  0.71555  0.90803  1.0000
  C   C1110     1.0  0.21221  0.88985  0.93460  1.0000
  H   H1968     1.0  0.08599  0.90216  0.96014  1.0000
  C   C1111     1.0  0.13259  0.92503  0.96740  1.0000
  C   C1112     1.0  0.08879  0.88440  0.95764  1.0000
  C   C1113     1.0  0.05503  0.76196  0.97036  1.0000
  C   C1114     1.0  0.02414  0.94321  0.89222  1.0000
  C   C1115     1.0  0.07911  0.76938  0.96839  1.0000
  N   N59       1.0  0.02097  0.68955  0.91132  1.0000
  C   C1116     1.0  0.10888  0.93442  0.85986  1.0000
  H   H1969     1.0  0.14597  0.93649  0.85461  1.0000
  C   C1117     1.0  0.99712  0.66296  0.88533  1.0000
  H   H1970     1.0  0.09233  0.94609  0.85769  1.0000
  C   C1118     1.0  0.04143  0.79268  0.95159  1.0000
  H   H1971     1.0  0.28141  0.71192  0.88746  1.0000
  C   C1119     1.0  0.03267  0.83514  0.95431  1.0000
  H   H1972     1.0  0.21803  0.91904  0.94185  1.0000
  H   H1973     1.0  0.05114  0.83644  0.95015  1.0000
  C   C1120     1.0  0.08305  0.85402  0.88013  1.0000
  H   H1974     1.0  0.25634  0.75143  0.88655  1.0000
  H   H1975     1.0  0.04773  0.69385  0.92200  1.0000
  C   C1121     1.0  0.19471  0.70389  0.89571  1.0000
  H   H1976     1.0  0.08210  0.89847  0.86936  1.0000
  C   C1122     1.0  0.12884  0.94663  0.85221  1.0000
  H   H1977     1.0  0.16965  0.81762  0.88809  1.0000
  C   C1123     1.0  0.08902  0.68484  0.90535  1.0000
  C   C1124     1.0  0.20308  0.91356  0.93915  1.0000
  H   H1978     1.0  0.08998  0.69443  0.91351  1.0000
  H   H1979     1.0  0.02383  0.72244  0.89823  1.0000
  H   H1980     1.0  0.18910  0.69878  0.87593  1.0000
  H   H1981     1.0  0.19715  0.92599  0.93029  1.0000
  H   H1982     1.0  0.17778  0.95767  0.93907  1.0000
  H   H1983     1.0  0.02452  0.68960  0.88956  1.0000
  H   H1984     1.0  0.06127  0.70988  0.89763  1.0000
  H   H1985     1.0  0.02605  0.84749  0.96166  1.0000
  C   C1125     1.0  0.15321  0.97647  0.95347  1.0000
  C   C1126     1.0  0.18263  0.91230  0.95127  1.0000
  N   N60       1.0  0.09078  0.91617  0.88397  1.0000
  H   H1986     1.0  0.00931  0.76730  0.95316  1.0000
  H   H1987     1.0  0.11056  0.90757  0.92281  1.0000
  C   C1127     1.0  0.06460  0.69099  0.90147  1.0000
  H   H1988     1.0  0.04521  0.92353  0.94773  1.0000
  H   H1989     1.0  0.13983  0.97392  0.96266  1.0000
  C   C1128     1.0  0.09661  0.92285  0.92072  1.0000
  H   H1990     1.0  0.01229  0.80983  0.96536  1.0000
  S   S250      1.0  0.14911  0.98504  0.87068  1.0000
  C   C1129     1.0  0.10950  0.92884  0.87546  1.0000
  H   H1991     1.0  0.02312  0.97176  0.92292  1.0000
  C   C1130     1.0  0.22927  0.92990  0.97484  1.0000
  N   N61       1.0  0.20950  0.73998  0.89930  1.0000
  H   H1992     1.0  0.05858  0.90776  0.98174  1.0000
  C   C1131     1.0  0.19989  0.73727  0.91433  1.0000
  C   C1132     1.0  0.21311  0.74581  0.92353  1.0000
  H   H1993     1.0  0.23608  0.71008  0.90449  1.0000
  C   C1133     1.0  0.25467  0.73874  0.89614  1.0000
  H   H1994     1.0  0.03925  0.89912  0.94184  1.0000
  C   C1134     1.0  0.20072  0.74318  0.93832  1.0000
  H   H1995     1.0  0.21064  0.74919  0.94476  1.0000
  H   H1996     1.0  0.18762  0.89680  0.95890  1.0000
  H   H1997     1.0  0.16820  0.90816  0.94722  1.0000
  H   H1998     1.0  0.18137  0.74613  0.91601  1.0000
  H   H1999     1.0  0.19961  0.71870  0.91857  1.0000
  H   H2000     1.0  0.21432  0.76437  0.92017  1.0000
  H   H2001     1.0  0.23084  0.73510  0.92356  1.0000
  C   C1135     1.0  0.15631  0.92817  0.97037  1.0000
  N   N62       1.0  0.17428  0.93366  0.95803  1.0000
  C   C1136     1.0  0.18070  0.69623  0.88678  1.0000
  H   H2002     1.0  0.25226  0.74838  0.90474  1.0000
  H   H2003     1.0  0.22582  0.89146  0.92541  1.0000
  H   H2004     1.0  0.21642  0.90591  0.96648  1.0000
  H   H2005     1.0  0.02889  0.72415  0.96210  1.0000
  H   H2006     1.0  0.19952  0.72472  0.94234  1.0000
  H   H2007     1.0  0.01337  0.95760  0.95111  1.0000
  H   H2008     1.0  0.18286  0.75378  0.93914  1.0000
  H   H2009     1.0  0.04099  0.98011  0.87114  1.0000
  C   C1137     1.0  0.07323  0.86976  0.96801  1.0000
  H   H2010     1.0  0.08443  0.88574  0.94731  1.0000
  H   H2011     1.0  0.10635  0.76900  0.97994  1.0000
  H   H2012     1.0  0.15079  0.94828  0.94337  1.0000
  H   H2013     1.0  0.06819  0.94974  0.88491  1.0000
  H   H2014     1.0  0.29229  0.73111  0.89536  1.0000
  H   H2015     1.0  0.11336  0.89778  0.89848  1.0000
  H   H2016     1.0  0.03041  0.79698  0.94338  1.0000
  H   H2017     1.0  0.00853  0.77298  0.96966  1.0000
  C   C1138     1.0  0.14778  0.82968  0.97493  1.0000
  H   H2018     1.0  0.00908  0.93720  0.89933  1.0000
  C   C1139     1.0  0.00593  0.68912  0.93725  1.0000
  H   H2019     1.0  0.02330  0.68411  0.94059  1.0000
  H   H2020     1.0  0.04026  0.80728  0.97028  1.0000
  C   C1140     1.0  0.06740  0.93212  0.88319  1.0000
  H   H2021     1.0  0.02211  0.84019  0.94593  1.0000
  H   H2022     1.0  0.18700  0.69889  0.90648  1.0000
  H   H2023     1.0  0.06493  0.68156  0.89299  1.0000
  H   H2024     1.0  0.19799  0.91575  0.98138  1.0000
  H   H2025     1.0  0.09376  0.66595  0.90899  1.0000
  C   C1141     1.0  0.01732  0.73666  0.96838  1.0000
  H   H2026     1.0  0.04336  0.76968  0.97899  1.0000
  H   H2027     1.0  0.99790  0.97342  0.91501  1.0000
  C   C1142     1.0  0.99938  0.94929  0.94931  1.0000
  H   H2028     1.0  0.22273  0.94505  0.98025  1.0000
  C   C1143     1.0  0.00606  0.98244  0.92085  1.0000
  H   H2029     1.0  0.03393  0.66213  0.89899  1.0000
  C   C1144     1.0  0.00634  0.67929  0.92408  1.0000
  H   H2030     1.0  0.09588  0.84781  0.98145  1.0000
  H   H2031     1.0  0.00083  0.70831  0.93572  1.0000
  C   C1145     1.0  0.08169  0.86331  0.98206  1.0000
  H   H2032     1.0  0.05123  0.66559  0.91778  1.0000
  H   H2033     1.0  0.99742  0.67831  0.87716  1.0000
  H   H2034     1.0  0.02239  0.73277  0.97869  1.0000
  H   H2035     1.0  0.99861  0.91809  0.94106  1.0000
  C   C1146     1.0  0.99719  0.66977  0.89911  1.0000
  H   H2036     1.0  0.04236  0.84677  0.98243  1.0000
  H   H2037     1.0  0.23922  0.91581  0.98150  1.0000
  H   H2038     1.0  0.01253  0.66012  0.92617  1.0000
  S   S251      1.0  0.16441  0.65496  0.93040  1.0000
  H   H2039     1.0  0.99571  0.84482  0.91236  1.0000
  Fe  Fe128     1.0  0.92388  0.07663  0.98663  1.0000
  C   C1147     1.0  0.92752  0.17982  0.98806  1.0000
  C   C1148     1.0  0.91880  0.99451  0.01174  1.0000
  H   H2040     1.0  0.98674  0.19621  0.99545  1.0000
  H   H2041     1.0  0.94640  0.13906  0.01039  1.0000
  C   C1149     1.0  0.97145  0.27663  0.03265  1.0000
  C   C1150     1.0  0.94759  0.28875  0.03974  1.0000
  H   H2042     1.0  0.98114  0.31813  0.03652  1.0000
  H   H2043     1.0  0.99006  0.15297  0.01604  1.0000
  H   H2044     1.0  0.93260  0.02539  0.00212  1.0000
  S   S252      1.0  0.91632  0.31265  0.98948  1.0000
  Fe  Fe129     1.0  0.93859  0.27750  0.98689  1.0000
  C   C1151     1.0  0.92712  0.19807  0.99511  1.0000
  H   H2045     1.0  0.97848  0.23607  0.08059  1.0000
  C   C1152     1.0  0.92751  0.28543  0.03332  1.0000
  S   S253      1.0  0.89223  0.05989  0.99399  1.0000
  C   C1153     1.0  0.89551  0.03078  0.00225  1.0000
  C   C1154     1.0  0.91719  0.01764  0.00497  1.0000
  H   H2046     1.0  0.92416  0.19516  0.00614  1.0000
  H   H2047     1.0  0.97177  0.28250  0.02153  1.0000
  H   H2048     1.0  0.92721  0.26669  0.03409  1.0000
  H   H2049     1.0  0.85879  0.03070  0.00426  1.0000
  H   H2050     1.0  0.97195  0.24827  0.05678  1.0000
  C   C1155     1.0  0.97657  0.15498  0.00951  1.0000
  H   H2051     1.0  0.92463  0.16307  0.99364  1.0000
  S   S254      1.0  0.92970  0.24249  0.99729  1.0000
  Fe  Fe130     1.0  0.96928  0.08583  0.99083  1.0000
  H   H2052     1.0  0.94438  0.28144  0.05073  1.0000
  C   C1156     1.0  0.87714  0.99775  0.01310  1.0000
  H   H2053     1.0  0.97137  0.25769  0.03415  1.0000
  H   H2054     1.0  0.95225  0.14184  0.02671  1.0000
  H   H2055     1.0  0.96591  0.17268  0.00942  1.0000
  S   S255      1.0  0.96859  0.28618  0.99399  1.0000
  S   S256      1.0  0.93246  0.10501  0.99553  1.0000
  C   C1157     1.0  0.96047  0.13785  0.01640  1.0000
  H   H2056     1.0  0.97050  0.11981  0.01752  1.0000
  C   C1158     1.0  0.87558  0.02065  0.00627  1.0000
  H   H2057     1.0  0.86152  0.99028  0.01631  1.0000
  H   H2058     1.0  0.97270  0.15359  0.98909  1.0000
  C   C1159     1.0  0.93021  0.22012  0.98798  1.0000
  H   H2059     1.0  0.92928  0.29349  0.02240  1.0000
  H   H2060     1.0  0.96460  0.26616  0.07784  1.0000
  H   H2061     1.0  0.91061  0.29394  0.03867  1.0000
  H   H2062     1.0  0.97689  0.29143  0.05633  1.0000
  C   C1160     1.0  0.98097  0.25366  0.07525  1.0000
  C   C1161     1.0  0.98756  0.15067  0.99476  1.0000
  C   C1162     1.0  0.98663  0.25365  0.05986  1.0000
  S   S257      1.0  0.96028  0.05607  0.98375  1.0000
  H   H2063     1.0  0.94686  0.30765  0.03886  1.0000
  H   H2064     1.0  0.99210  0.00779  0.99764  1.0000
  C   C1163     1.0  0.99092  0.27784  0.05209  1.0000
  H   H2065     1.0  0.99263  0.31049  0.02028  1.0000
  H   H2066     1.0  0.96364  0.00162  0.98381  1.0000
  C   C1164     1.0  0.99365  0.19022  0.98546  1.0000
  N   N63       1.0  0.99293  0.28116  0.03679  1.0000
  Fe  Fe131     1.0  0.65051  0.08461  0.43915  1.0000
  S   S258      1.0  0.65584  0.09822  0.41664  1.0000
  S   S259      1.0  0.67830  0.06379  0.45125  1.0000
  Fe  Fe132     1.0  0.59875  0.10209  0.44265  1.0000
  S   S260      1.0  0.59886  0.11740  0.42063  1.0000
  S   S261      1.0  0.56873  0.10211  0.45980  1.0000
  Fe  Fe133     1.0  0.62361  0.08426  0.41659  1.0000
  S   S262      1.0  0.61863  0.06598  0.40009  1.0000
  Fe  Fe134     1.0  0.63091  0.13034  0.42236  1.0000
  S   S263      1.0  0.63699  0.16652  0.41248  1.0000
  S   S264      1.0  0.62045  0.06797  0.43856  1.0000
  S   S265      1.0  0.62844  0.11784  0.44476  1.0000
  S   S266      1.0  0.61255  0.29469  0.46514  1.0000
  S   S267      1.0  0.63250  0.24362  0.44859  1.0000
  H   H2067     1.0  0.57206  0.04700  0.39329  1.0000
  H   H2068     1.0  0.70470  0.07029  0.42301  1.0000
  N   N64       1.0  0.55963  0.00387  0.40722  1.0000
  H   H2069     1.0  0.71588  0.09931  0.44041  1.0000
  C   C1165     1.0  0.70685  0.11103  0.43228  1.0000
  C   C1166     1.0  0.59840  0.03376  0.48089  1.0000
  H   H2070     1.0  0.64920  0.00781  0.47173  1.0000
  H   H2071     1.0  0.70037  0.12778  0.46274  1.0000
  C   C1167     1.0  0.55044  0.28539  0.45934  1.0000
  H   H2072     1.0  0.51079  0.15575  0.43940  1.0000
  C   C1168     1.0  0.55892  0.01140  0.38117  1.0000
  H   H2073     1.0  0.64434  0.09399  0.46746  1.0000
  H   H2074     1.0  0.50289  0.16672  0.47577  1.0000
  C   C1169     1.0  0.51594  0.26873  0.46109  1.0000
  C   C1170     1.0  0.49883  0.02144  0.36145  1.0000
  C   C1171     1.0  0.63154  0.03641  0.40045  1.0000
  C   C1172     1.0  0.64471  0.02453  0.41054  1.0000
  H   H2075     1.0  0.53736  0.98913  0.47668  1.0000
  H   H2076     1.0  0.52560  0.15546  0.46300  1.0000
  H   H2077     1.0  0.50381  0.05062  0.37701  1.0000
  C   C1173     1.0  0.62813  0.02447  0.39059  1.0000
  H   H2078     1.0  0.64792  0.03384  0.41791  1.0000
  C   C1174     1.0  0.52689  0.05467  0.47159  1.0000
  H   H2079     1.0  0.68230  0.18753  0.40145  1.0000
  H   H2080     1.0  0.61844  0.03375  0.38256  1.0000
  C   C1175     1.0  0.63547  0.18814  0.42245  1.0000
  C   C1176     1.0  0.63327  0.18282  0.43661  1.0000
  C   C1177     1.0  0.63268  0.20005  0.44436  1.0000
  C   C1178     1.0  0.63362  0.22298  0.43808  1.0000
  C   C1179     1.0  0.63569  0.22849  0.42388  1.0000
  C   C1180     1.0  0.63674  0.21104  0.41608  1.0000
  H   H2081     1.0  0.63186  0.16546  0.44164  1.0000
  H   H2082     1.0  0.63112  0.19569  0.45535  1.0000
  H   H2083     1.0  0.63661  0.24610  0.41894  1.0000
  H   H2084     1.0  0.63850  0.21530  0.40509  1.0000
  C   C1181     1.0  0.54051  0.07100  0.47173  1.0000
  C   C1182     1.0  0.55333  0.08038  0.45960  1.0000
  C   C1183     1.0  0.55292  0.07309  0.44736  1.0000
  C   C1184     1.0  0.53646  0.30555  0.46359  1.0000
  H   H2085     1.0  0.56304  0.08014  0.43798  1.0000
  H   H2086     1.0  0.73117  0.12679  0.44709  1.0000
  H   H2087     1.0  0.60793  0.02137  0.45551  1.0000
  H   H2088     1.0  0.69478  0.21011  0.40514  1.0000
  H   H2089     1.0  0.55116  0.25155  0.45476  1.0000
  H   H2090     1.0  0.68999  0.02806  0.47389  1.0000
  H   H2091     1.0  0.49774  0.07497  0.36385  1.0000
  H   H2092     1.0  0.59033  0.00842  0.41417  1.0000
  C   C1185     1.0  0.75070  0.13572  0.42746  1.0000
  C   C1186     1.0  0.57671  0.99737  0.41719  1.0000
  C   C1187     1.0  0.49553  0.20545  0.42124  1.0000
  C   C1188     1.0  0.52476  0.12805  0.42809  1.0000
  H   H2093     1.0  0.76604  0.16195  0.43303  1.0000
  C   C1189     1.0  0.66809  0.06130  0.46891  1.0000
  C   C1190     1.0  0.77035  0.14312  0.43236  1.0000
  H   H2094     1.0  0.53838  0.07406  0.41430  1.0000
  N   N65       1.0  0.70596  0.13621  0.43324  1.0000
  H   H2095     1.0  0.71544  0.14653  0.41135  1.0000
  C   C1191     1.0  0.51695  0.13684  0.44178  1.0000
  H   H2096     1.0  0.53208  0.03294  0.40220  1.0000
  H   H2097     1.0  0.71361  0.18611  0.39780  1.0000
  H   H2098     1.0  0.56915  0.28398  0.45681  1.0000
  H   H2099     1.0  0.64700  0.13822  0.46434  1.0000
  C   C1192     1.0  0.50259  0.13068  0.47374  1.0000
  H   H2100     1.0  0.72946  0.07107  0.40959  1.0000
  H   H2101     1.0  0.54014  0.13542  0.42237  1.0000
  S   S268      1.0  0.65190  0.30676  0.43832  1.0000
  H   H2102     1.0  0.68521  0.14881  0.41712  1.0000
  C   C1193     1.0  0.64081  0.01617  0.46269  1.0000
  S   S269      1.0  0.59755  0.30856  0.43482  1.0000
  H   H2103     1.0  0.74889  0.14596  0.41724  1.0000
  H   H2104     1.0  0.50406  0.03249  0.33165  1.0000
  S   S270      1.0  0.50311  0.24726  0.45741  1.0000
  H   H2105     1.0  0.67428  0.01517  0.44932  1.0000
  H   H2106     1.0  0.66888  0.14330  0.44032  1.0000
  C   C1194     1.0  0.70161  0.15149  0.41989  1.0000
  C   C1195     1.0  0.54726  0.07179  0.40382  1.0000
  H   H2107     1.0  0.55873  0.08493  0.40021  1.0000
  C   C1196     1.0  0.50783  0.29736  0.42374  1.0000
  C   C1197     1.0  0.68469  0.12811  0.45826  1.0000
  C   C1198     1.0  0.56209  0.04751  0.40372  1.0000
  H   H2108     1.0  0.53737  0.05253  0.43761  1.0000
  C   C1199     1.0  0.53841  0.05755  0.44712  1.0000
  H   H2109     1.0  0.50833  0.23598  0.42218  1.0000
  N   N66       1.0  0.60110  0.00979  0.47727  1.0000
  H   H2110     1.0  0.75639  0.11704  0.42662  1.0000
  H   H2111     1.0  0.53839  0.02988  0.41882  1.0000
  C   C1200     1.0  0.57297  0.00173  0.39310  1.0000
  H   H2112     1.0  0.55157  0.03015  0.38089  1.0000
  C   C1201     1.0  0.52524  0.04855  0.45923  1.0000
  H   H2113     1.0  0.51266  0.28044  0.43026  1.0000
  N   N67       1.0  0.55634  0.21085  0.42742  1.0000
  C   C1202     1.0  0.53197  0.20561  0.43077  1.0000
  C   C1203     1.0  0.56853  0.20098  0.43961  1.0000
  C   C1204     1.0  0.55401  0.23696  0.42534  1.0000
  C   C1205     1.0  0.57021  0.20194  0.41466  1.0000
  C   C1206     1.0  0.56490  0.17937  0.41144  1.0000
  C   C1207     1.0  0.51573  0.21796  0.42023  1.0000
  C   C1208     1.0  0.57708  0.24633  0.42311  1.0000
  C   C1209     1.0  0.57297  0.17423  0.44374  1.0000
  C   C1210     1.0  0.58008  0.16718  0.45789  1.0000
  C   C1211     1.0  0.57999  0.17253  0.39828  1.0000
  H   H2114     1.0  0.77333  0.13307  0.44251  1.0000
  C   C1212     1.0  0.57316  0.27254  0.41837  1.0000
  H   H2115     1.0  0.52314  0.21064  0.44082  1.0000
  H   H2116     1.0  0.53229  0.18674  0.43213  1.0000
  H   H2117     1.0  0.58610  0.20563  0.43782  1.0000
  H   H2118     1.0  0.55861  0.20898  0.44863  1.0000
  H   H2119     1.0  0.54235  0.24413  0.43416  1.0000
  H   H2120     1.0  0.54543  0.24512  0.41630  1.0000
  H   H2121     1.0  0.56759  0.21531  0.40548  1.0000
  H   H2122     1.0  0.58927  0.19900  0.41499  1.0000
  H   H2123     1.0  0.54653  0.18164  0.40991  1.0000
  H   H2124     1.0  0.56795  0.16467  0.41977  1.0000
  H   H2125     1.0  0.73353  0.06787  0.42710  1.0000
  H   H2126     1.0  0.52528  0.21902  0.40962  1.0000
  H   H2127     1.0  0.59026  0.23806  0.41528  1.0000
  H   H2128     1.0  0.58427  0.24306  0.43278  1.0000
  H   H2129     1.0  0.55740  0.16666  0.44413  1.0000
  H   H2130     1.0  0.58747  0.16622  0.43639  1.0000
  H   H2131     1.0  0.58323  0.14798  0.46065  1.0000
  H   H2132     1.0  0.59626  0.17336  0.45817  1.0000
  H   H2133     1.0  0.56602  0.17468  0.46561  1.0000
  H   H2134     1.0  0.57664  0.18643  0.38949  1.0000
  H   H2135     1.0  0.59879  0.16924  0.39910  1.0000
  H   H2136     1.0  0.57581  0.15636  0.39629  1.0000
  H   H2137     1.0  0.52699  0.31457  0.43316  1.0000
  H   H2138     1.0  0.52013  0.29786  0.41395  1.0000
  C   C1213     1.0  0.51544  0.15095  0.47321  1.0000
  H   H2139     1.0  0.56572  0.27718  0.40875  1.0000
  H   H2140     1.0  0.56124  0.28165  0.42637  1.0000
  H   H2141     1.0  0.59016  0.27845  0.41644  1.0000
  H   H2142     1.0  0.68884  0.10714  0.43430  1.0000
  H   H2143     1.0  0.54437  0.00202  0.38207  1.0000
  H   H2144     1.0  0.63419  0.99148  0.38350  1.0000
  H   H2145     1.0  0.63855  0.03523  0.46212  1.0000
  H   H2146     1.0  0.56785  0.00105  0.42750  1.0000
  Fe  Fe135     1.0  0.62552  0.28303  0.44474  1.0000
  C   C1214     1.0  0.67673  0.04168  0.47784  1.0000
  C   C1215     1.0  0.69962  0.17796  0.41941  1.0000
  H   H2147     1.0  0.73482  0.10815  0.41419  1.0000
  H   H2148     1.0  0.72516  0.15673  0.44073  1.0000
  C   C1216     1.0  0.68539  0.14334  0.44393  1.0000
  H   H2149     1.0  0.57470  0.04542  0.41083  1.0000
  C   C1217     1.0  0.49779  0.12427  0.45086  1.0000
  H   H2150     1.0  0.51770  0.00212  0.42744  1.0000
  C   C1218     1.0  0.71785  0.10280  0.41839  1.0000
  H   H2151     1.0  0.58834  0.01026  0.39112  1.0000
  C   C1219     1.0  0.54022  0.26692  0.45822  1.0000
  H   H2152     1.0  0.59271  0.04737  0.47235  1.0000
  H   H2153     1.0  0.49706  0.31517  0.44096  1.0000
  C   C1220     1.0  0.54682  0.02839  0.40814  1.0000
  C   C1221     1.0  0.65096  0.07877  0.47412  1.0000
  H   H2154     1.0  0.68366  0.11000  0.45774  1.0000
  C   C1222     1.0  0.57459  0.00856  0.36748  1.0000
  C   C1223     1.0  0.72161  0.07640  0.41966  1.0000
  H   H2155     1.0  0.53404  0.07497  0.39696  1.0000
  H   H2156     1.0  0.52866  0.99419  0.40358  1.0000
  H   H2157     1.0  0.66302  0.12611  0.47823  1.0000
  C   C1224     1.0  0.69748  0.19115  0.40505  1.0000
  C   C1225     1.0  0.72773  0.13928  0.43772  1.0000
  C   C1226     1.0  0.65733  0.00977  0.44984  1.0000
  C   C1227     1.0  0.61676  0.00930  0.46362  1.0000
  H   H2158     1.0  0.68455  0.16140  0.44557  1.0000
  C   C1228     1.0  0.66344  0.13759  0.46817  1.0000
  H   H2159     1.0  0.53246  0.13349  0.44689  1.0000
  H   H2160     1.0  0.71521  0.18183  0.42237  1.0000
  H   H2161     1.0  0.70593  0.11033  0.41080  1.0000
  H   H2162     1.0  0.54960  0.99600  0.45883  1.0000
  H   H2163     1.0  0.58951  0.01772  0.36608  1.0000
  H   H2164     1.0  0.68387  0.18504  0.42629  1.0000
  C   C1229     1.0  0.63706  0.00056  0.39109  1.0000
  H   H2165     1.0  0.62000  0.99201  0.46047  1.0000
  C   C1230     1.0  0.65403  0.00071  0.41091  1.0000
  S   S271      1.0  0.50626  0.03008  0.45905  1.0000
  H   H2166     1.0  0.78679  0.13984  0.42502  1.0000
  C   C1231     1.0  0.51240  0.30651  0.46762  1.0000
  C   C1232     1.0  0.50210  0.28822  0.46622  1.0000
  H   H2167     1.0  0.54046  0.99582  0.34820  1.0000
  H   H2168     1.0  0.64976  0.01888  0.44065  1.0000
  H   H2169     1.0  0.52965  0.10885  0.42958  1.0000
  H   H2170     1.0  0.51687  0.04749  0.48098  1.0000
  H   H2171     1.0  0.51049  0.13349  0.42186  1.0000
  H   H2172     1.0  0.57004  0.02063  0.46785  1.0000
  H   H2173     1.0  0.58146  0.98988  0.36688  1.0000
  H   H2174     1.0  0.54652  0.13025  0.48102  1.0000
  H   H2175     1.0  0.51443  0.02978  0.35757  1.0000
  H   H2176     1.0  0.54086  0.07658  0.48121  1.0000
  C   C1233     1.0  0.65000  0.98858  0.40129  1.0000
  H   H2177     1.0  0.50645  0.10586  0.45323  1.0000
  C   C1234     1.0  0.57723  0.00658  0.47575  1.0000
  H   H2178     1.0  0.66430  0.99163  0.41871  1.0000
  H   H2179     1.0  0.56440  0.01604  0.35905  1.0000
  H   H2180     1.0  0.51620  0.11492  0.47257  1.0000
  H   H2181     1.0  0.49574  0.06325  0.34507  1.0000
  H   H2182     1.0  0.50206  0.18768  0.41871  1.0000
  H   H2183     1.0  0.66430  0.15534  0.46961  1.0000
  C   C1235     1.0  0.50890  0.31705  0.43110  1.0000
  H   H2184     1.0  0.49883  0.01603  0.37264  1.0000
  Fe  Fe136     1.0  0.63701  0.31978  0.45819  1.0000
  H   H2185     1.0  0.66055  0.99083  0.44980  1.0000
  H   H2186     1.0  0.49909  0.07287  0.31913  1.0000
  C   C1236     1.0  0.50319  0.99815  0.35584  1.0000
  H   H2187     1.0  0.49919  0.00035  0.34542  1.0000
  S   S272      1.0  0.66045  0.32137  0.47280  1.0000
  H   H2188     1.0  0.61552  0.03692  0.48233  1.0000
  H   H2189     1.0  0.49478  0.08712  0.38618  1.0000
  Fe  Fe137     1.0  0.96000  0.25523  0.68039  1.0000
  H   H2190     1.0  0.82872  0.28740  0.67613  1.0000
  Fe  Fe138     1.0  0.90516  0.10042  0.67084  1.0000
  S   S273      1.0  0.88445  0.08569  0.69045  1.0000
  Fe  Fe139     1.0  0.90866  0.10694  0.63994  1.0000
  S   S274      1.0  0.89153  0.10613  0.62194  1.0000
  S   S275      1.0  0.88670  0.12688  0.65584  1.0000
  Fe  Fe140     1.0  0.74047  0.08051  0.59581  1.0000
  S   S276      1.0  0.70672  0.10274  0.60363  1.0000
  S   S277      1.0  0.74508  0.06528  0.57628  1.0000
  Fe  Fe141     1.0  0.76499  0.08605  0.61877  1.0000
  S   S278      1.0  0.73307  0.10853  0.62810  1.0000
  S   S279      1.0  0.79349  0.07450  0.63197  1.0000
  Fe  Fe142     1.0  0.71329  0.08340  0.62418  1.0000
  S   S280      1.0  0.68666  0.07029  0.64114  1.0000
  Fe  Fe143     1.0  0.72960  0.12602  0.60688  1.0000
  S   S281      1.0  0.71780  0.16480  0.60424  1.0000
  S   S282      1.0  0.74529  0.05928  0.61631  1.0000
  S   S283      1.0  0.76324  0.10549  0.59747  1.0000
  Fe  Fe144     1.0  0.77575  0.25603  0.62244  1.0000
  S   S284      1.0  0.78068  0.29082  0.61042  1.0000
  S   S285      1.0  0.78884  0.22338  0.61308  1.0000
  C   C1237     1.0  0.84581  0.26757  0.59636  1.0000
  S   S286      1.0  0.79191  0.26003  0.63984  1.0000
  S   S287      1.0  0.73930  0.26854  0.63225  1.0000
  H   H2191     1.0  0.78023  0.04312  0.59350  1.0000
  S   S288      1.0  0.63101  0.01427  0.54832  1.0000
  H   H2192     1.0  0.84020  0.24491  0.65270  1.0000
  Fe  Fe145     1.0  0.64736  0.01983  0.52635  1.0000
  C   C1238     1.0  0.84353  0.03915  0.60820  1.0000
  C   C1239     1.0  0.84404  0.24351  0.60456  1.0000
  H   H2193     1.0  0.84228  0.00456  0.62080  1.0000
  Fe  Fe146     1.0  0.64222  0.13776  0.69945  1.0000
  H   H2194     1.0  0.76976  0.13042  0.67296  1.0000
  S   S289      1.0  0.64221  0.14888  0.67701  1.0000
  H   H2195     1.0  0.71557  0.03847  0.51558  1.0000
  H   H2196     1.0  0.51604  0.02395  0.52217  1.0000
  H   H2197     1.0  0.84739  0.08172  0.59180  1.0000
  Fe  Fe147     1.0  0.66641  0.99347  0.55154  1.0000
  C   C1240     1.0  0.71674  0.29072  0.70480  1.0000
  S   S290      1.0  0.65620  0.15951  0.71029  1.0000
  S   S291      1.0  0.60863  0.13868  0.71396  1.0000
  C   C1241     1.0  0.85261  0.19388  0.61605  1.0000
  C   C1242     1.0  0.53060  0.99744  0.57161  1.0000
  C   C1243     1.0  0.65087  0.05724  0.49700  1.0000
  H   H2198     1.0  0.70211  0.26041  0.61802  1.0000
  H   H2199     1.0  0.73165  0.05866  0.65091  1.0000
  Fe  Fe148     1.0  0.91217  0.28699  0.68212  1.0000
  C   C1244     1.0  0.84594  0.02492  0.58630  1.0000
  H   H2200     1.0  0.85015  0.02950  0.63558  1.0000
  H   H2201     1.0  0.93533  0.15517  0.69190  1.0000
  H   H2202     1.0  0.56225  0.17686  0.72398  1.0000
  C   C1245     1.0  0.86066  0.29443  0.71897  1.0000
  H   H2203     1.0  0.98507  0.11731  0.67016  1.0000
  H   H2204     1.0  0.94964  0.05157  0.71687  1.0000
  H   H2205     1.0  0.64720  0.04950  0.71111  1.0000
  H   H2206     1.0  0.54113  0.17428  0.69917  1.0000
  S   S292      1.0  0.50755  0.06608  0.72485  1.0000
  H   H2207     1.0  0.83184  0.14324  0.63253  1.0000
  H   H2208     1.0  0.56659  0.15427  0.70375  1.0000
  C   C1246     1.0  0.92895  0.19423  0.65693  1.0000
  H   H2209     1.0  0.81001  0.06153  0.58316  1.0000
  S   S293      1.0  0.74318  0.26190  0.67079  1.0000
  C   C1247     1.0  0.69769  0.01619  0.57202  1.0000
  C   C1248     1.0  0.71407  0.02351  0.56096  1.0000
  C   C1249     1.0  0.72881  0.03818  0.56248  1.0000
  C   C1250     1.0  0.72698  0.04604  0.57494  1.0000
  C   C1251     1.0  0.71072  0.03858  0.58599  1.0000
  C   C1252     1.0  0.69642  0.02348  0.58458  1.0000
  H   H2210     1.0  0.71559  0.01760  0.55134  1.0000
  H   H2211     1.0  0.74158  0.04359  0.55393  1.0000
  H   H2212     1.0  0.70925  0.04431  0.59568  1.0000
  Fe  Fe149     1.0  0.91685  0.14460  0.65355  1.0000
  C   C1253     1.0  0.73746  0.17977  0.60815  1.0000
  C   C1254     1.0  0.76153  0.17154  0.60563  1.0000
  C   C1255     1.0  0.77714  0.18494  0.60738  1.0000
  C   C1256     1.0  0.76875  0.20635  0.61195  1.0000
  C   C1257     1.0  0.74467  0.21413  0.61502  1.0000
  C   C1258     1.0  0.72905  0.20095  0.61301  1.0000
  H   H2213     1.0  0.76814  0.15524  0.60185  1.0000
  H   H2214     1.0  0.79574  0.17885  0.60496  1.0000
  H   H2215     1.0  0.73809  0.23052  0.61861  1.0000
  H   H2216     1.0  0.71042  0.20727  0.61505  1.0000
  C   C1259     1.0  0.65532  0.12693  0.66724  1.0000
  C   C1260     1.0  0.65791  0.10358  0.67322  1.0000
  C   C1261     1.0  0.66755  0.08615  0.66517  1.0000
  C   C1262     1.0  0.67494  0.09210  0.65117  1.0000
  C   C1263     1.0  0.67287  0.11547  0.64525  1.0000
  C   C1264     1.0  0.66285  0.13287  0.65326  1.0000
  H   H2217     1.0  0.65198  0.09898  0.68397  1.0000
  H   H2218     1.0  0.66940  0.06807  0.66974  1.0000
  H   H2219     1.0  0.67854  0.12015  0.63442  1.0000
  H   H2220     1.0  0.66092  0.15093  0.64859  1.0000
  C   C1265     1.0  0.87747  0.10318  0.70328  1.0000
  H   H2221     1.0  0.81381  0.11015  0.58398  1.0000
  H   H2222     1.0  0.50884  0.21091  0.70124  1.0000
  C   C1266     1.0  0.88524  0.12423  0.70122  1.0000
  C   C1267     1.0  0.71660  0.05229  0.52125  1.0000
  H   H2223     1.0  0.89492  0.13033  0.69148  1.0000
  C   C1268     1.0  0.86334  0.09915  0.62524  1.0000
  C   C1269     1.0  0.85502  0.08679  0.63779  1.0000
  C   C1270     1.0  0.83321  0.07997  0.63984  1.0000
  C   C1271     1.0  0.81931  0.08595  0.62950  1.0000
  C   C1272     1.0  0.82711  0.09927  0.61718  1.0000
  C   C1273     1.0  0.84928  0.10546  0.61496  1.0000
  H   H2224     1.0  0.86574  0.08180  0.64576  1.0000
  H   H2225     1.0  0.82730  0.06961  0.64939  1.0000
  H   H2226     1.0  0.81636  0.10422  0.60924  1.0000
  H   H2227     1.0  0.85557  0.11518  0.60527  1.0000
  H   H2228     1.0  0.90877  0.18436  0.71230  1.0000
  C   C1274     1.0  0.92504  0.21780  0.65782  1.0000
  H   H2229     1.0  0.85213  0.06871  0.57664  1.0000
  C   C1275     1.0  0.96220  0.21247  0.66559  1.0000
  C   C1276     1.0  0.96652  0.18899  0.66426  1.0000
  C   C1277     1.0  0.94984  0.17984  0.65994  1.0000
  H   H2230     1.0  0.83433  0.20350  0.61692  1.0000
  H   H2231     1.0  0.95303  0.16165  0.65913  1.0000
  S   S294      1.0  0.92512  0.07847  0.65515  1.0000
  H   H2232     1.0  0.83229  0.15637  0.61492  1.0000
  N   N68       1.0  0.72912  0.27234  0.57553  1.0000
  C   C1278     1.0  0.72423  0.25176  0.57067  1.0000
  C   C1279     1.0  0.71859  0.29437  0.56701  1.0000
  C   C1280     1.0  0.75532  0.27088  0.57290  1.0000
  C   C1281     1.0  0.72042  0.27276  0.59058  1.0000
  C   C1282     1.0  0.69776  0.26304  0.59684  1.0000
  C   C1283     1.0  0.73808  0.22778  0.57622  1.0000
  C   C1284     1.0  0.76422  0.29180  0.57570  1.0000
  C   C1285     1.0  0.69173  0.29923  0.56762  1.0000
  H   H2233     1.0  0.86610  0.25728  0.65073  1.0000
  C   C1286     1.0  0.75553  0.13462  0.65460  1.0000
  C   C1287     1.0  0.72752  0.20788  0.57404  1.0000
  C   C1288     1.0  0.79075  0.28651  0.57500  1.0000
  H   H2234     1.0  0.72831  0.25378  0.55932  1.0000
  H   H2235     1.0  0.70543  0.25076  0.57312  1.0000
  H   H2236     1.0  0.70250  0.17002  0.66304  1.0000
  H   H2237     1.0  0.72697  0.29467  0.55612  1.0000
  H   H2238     1.0  0.76256  0.26854  0.56213  1.0000
  H   H2239     1.0  0.76385  0.25536  0.57942  1.0000
  H   H2240     1.0  0.73391  0.26267  0.59680  1.0000
  N   N69       1.0  0.50935  0.99985  0.56485  1.0000
  H   H2241     1.0  0.70117  0.24391  0.59738  1.0000
  H   H2242     1.0  0.52545  0.99630  0.58286  1.0000
  H   H2243     1.0  0.75640  0.22550  0.57081  1.0000
  H   H2244     1.0  0.73850  0.22628  0.58723  1.0000
  H   H2245     1.0  0.75621  0.29607  0.58596  1.0000
  H   H2246     1.0  0.97418  0.12764  0.70804  1.0000
  H   H2247     1.0  0.68499  0.28383  0.56671  1.0000
  H   H2248     1.0  0.76290  0.00962  0.59385  1.0000
  H   H2249     1.0  0.95113  0.19957  0.61536  1.0000
  H   H2250     1.0  0.86799  0.22671  0.65546  1.0000
  H   H2251     1.0  0.93732  0.17612  0.62482  1.0000
  H   H2252     1.0  0.79967  0.03422  0.61282  1.0000
  C   C1289     1.0  0.97427  0.08107  0.71885  1.0000
  C   C1290     1.0  0.54611  0.01628  0.56657  1.0000
  H   H2253     1.0  0.70989  0.20807  0.58028  1.0000
  H   H2254     1.0  0.72626  0.20913  0.56312  1.0000
  H   H2255     1.0  0.73879  0.19106  0.57728  1.0000
  H   H2256     1.0  0.79663  0.30170  0.57713  1.0000
  H   H2257     1.0  0.50070  0.17636  0.64069  1.0000
  H   H2258     1.0  0.79602  0.27128  0.58273  1.0000
  H   H2259     1.0  0.54338  0.24923  0.72338  1.0000
  H   H2260     1.0  0.88514  0.99107  0.57900  1.0000
  Fe  Fe150     1.0  0.95696  0.30506  0.68248  1.0000
  C   C1291     1.0  0.61087  0.99194  0.48850  1.0000
  H   H2261     1.0  0.55526  0.00015  0.50979  1.0000
  H   H2262     1.0  0.97819  0.09496  0.72347  1.0000
  H   H2263     1.0  0.55589  0.30358  0.53389  1.0000
  C   C1292     1.0  0.87063  0.25110  0.72736  1.0000
  H   H2264     1.0  0.89228  0.30471  0.65188  1.0000
  C   C1293     1.0  0.80964  0.02565  0.60402  1.0000
  H   H2265     1.0  0.68124  0.12208  0.54325  1.0000
  H   H2266     1.0  0.76009  0.30732  0.56794  1.0000
  Fe  Fe151     1.0  0.74497  0.30399  0.62135  1.0000
  H   H2267     1.0  0.87135  0.20860  0.72258  1.0000
  H   H2268     1.0  0.53034  0.00151  0.54487  1.0000
  C   C1294     1.0  0.82690  0.10039  0.57672  1.0000
  H   H2269     1.0  0.80809  0.07086  0.59907  1.0000
  H   H2270     1.0  0.87937  0.29440  0.71471  1.0000
  H   H2271     1.0  0.56299  0.03947  0.49299  1.0000
  H   H2272     1.0  0.85815  0.04856  0.60375  1.0000
  C   C1295     1.0  0.86397  0.30650  0.64085  1.0000
  H   H2273     1.0  0.86583  0.21445  0.69166  1.0000
  H   H2274     1.0  0.91583  0.10381  0.72364  1.0000
  C   C1296     1.0  0.91545  0.18322  0.72195  1.0000
  H   H2275     1.0  0.78467  0.09472  0.68792  1.0000
  C   C1297     1.0  0.79185  0.02587  0.59458  1.0000
  H   H2276     1.0  0.98997  0.14616  0.62408  1.0000
  C   C1298     1.0  0.49844  0.02925  0.52802  1.0000
  H   H2277     1.0  0.62054  0.06181  0.58575  1.0000
  C   C1299     1.0  0.66785  0.03946  0.49188  1.0000
  H   H2278     1.0  0.99228  0.13570  0.64174  1.0000
  H   H2279     1.0  0.68354  0.27042  0.59080  1.0000
  C   C1300     1.0  0.54824  0.30588  0.72368  1.0000
  H   H2280     1.0  0.79872  0.19017  0.72719  1.0000
  H   H2281     1.0  0.51446  0.16775  0.65586  1.0000
  H   H2282     1.0  0.81547  0.00740  0.60858  1.0000
  H   H2283     1.0  0.61966  0.04006  0.71716  1.0000
  H   H2284     1.0  0.56383  0.25324  0.48888  1.0000
  H   H2285     1.0  0.86533  0.24950  0.71765  1.0000
  H   H2286     1.0  0.65694  0.11891  0.55616  1.0000
  Fe  Fe152     1.0  0.62740  0.10651  0.72525  1.0000
  H   H2287     1.0  0.67430  0.02417  0.49874  1.0000
  H   H2288     1.0  0.68009  0.06603  0.52225  1.0000
  S   S295      1.0  0.92585  0.25257  0.69400  1.0000
  C   C1301     1.0  0.55605  0.17174  0.70470  1.0000
  N   N70       1.0  0.59037  0.07012  0.68154  1.0000
  C   C1302     1.0  0.57064  0.05956  0.67943  1.0000
  C   C1303     1.0  0.60967  0.06941  0.66927  1.0000
  C   C1304     1.0  0.60022  0.05542  0.69377  1.0000
  C   C1305     1.0  0.58215  0.09459  0.68452  1.0000
  C   C1306     1.0  0.56928  0.11217  0.67385  1.0000
  C   C1307     1.0  0.55001  0.05818  0.69144  1.0000
  C   C1308     1.0  0.62206  0.06203  0.69719  1.0000
  C   C1309     1.0  0.60248  0.07148  0.65508  1.0000
  C   C1310     1.0  0.62303  0.07465  0.64361  1.0000
  C   C1311     1.0  0.55969  0.13543  0.67888  1.0000
  C   C1312     1.0  0.53028  0.04936  0.68753  1.0000
  H   H2289     1.0  0.81036  0.29439  0.65534  1.0000
  H   H2290     1.0  0.57759  0.04156  0.67721  1.0000
  H   H2291     1.0  0.56293  0.06909  0.67035  1.0000
  H   H2292     1.0  0.61998  0.08322  0.66862  1.0000
  H   H2293     1.0  0.62247  0.05274  0.67038  1.0000
  H   H2294     1.0  0.60467  0.03681  0.69240  1.0000
  H   H2295     1.0  0.58705  0.05633  0.70321  1.0000
  H   H2296     1.0  0.57065  0.09464  0.69453  1.0000
  H   H2297     1.0  0.59719  0.10212  0.68557  1.0000
  H   H2298     1.0  0.55427  0.10596  0.67172  1.0000
  H   H2299     1.0  0.58161  0.11558  0.66426  1.0000
  H   H2300     1.0  0.55558  0.04600  0.70047  1.0000
  H   H2301     1.0  0.54266  0.07546  0.69445  1.0000
  H   H2302     1.0  0.61719  0.07869  0.70128  1.0000
  H   H2303     1.0  0.63578  0.06381  0.68815  1.0000
  H   H2304     1.0  0.59666  0.05535  0.65434  1.0000
  H   H2305     1.0  0.58806  0.08625  0.65317  1.0000
  H   H2306     1.0  0.61766  0.07545  0.63361  1.0000
  H   H2307     1.0  0.62904  0.09105  0.64355  1.0000
  H   H2308     1.0  0.63783  0.05986  0.64486  1.0000
  H   H2309     1.0  0.55035  0.14773  0.67114  1.0000
  H   H2310     1.0  0.54712  0.13323  0.68853  1.0000
  H   H2311     1.0  0.57419  0.14308  0.68055  1.0000
  H   H2312     1.0  0.51585  0.04846  0.69634  1.0000
  H   H2313     1.0  0.52322  0.06129  0.67882  1.0000
  C   C1313     1.0  0.73180  0.30620  0.67725  1.0000
  C   C1314     1.0  0.77544  0.09441  0.70950  1.0000
  C   C1315     1.0  0.56695  0.09268  0.72221  1.0000
  H   H2314     1.0  0.49653  0.04730  0.52993  1.0000
  H   H2315     1.0  0.56692  0.18497  0.69972  1.0000
  H   H2316     1.0  0.56465  0.00825  0.48531  1.0000
  H   H2317     1.0  0.72494  0.08077  0.68391  1.0000
  C   C1316     1.0  0.86175  0.29564  0.66545  1.0000
  C   C1317     1.0  0.93678  0.19007  0.61583  1.0000
  C   C1318     1.0  0.85228  0.17063  0.62609  1.0000
  H   H2318     1.0  0.78733  0.28097  0.71353  1.0000
  Fe  Fe153     1.0  0.67259  0.12599  0.72195  1.0000
  H   H2319     1.0  0.98770  0.25682  0.72510  1.0000
  H   H2320     1.0  0.85436  0.25465  0.62851  1.0000
  Fe  Fe154     1.0  0.75569  0.27569  0.64877  1.0000
  C   C1319     1.0  0.85986  0.21638  0.63208  1.0000
  H   H2321     1.0  0.92358  0.07021  0.71248  1.0000
  H   H2322     1.0  0.56874  0.06628  0.50645  1.0000
  S   S296      1.0  0.68326  0.00097  0.52961  1.0000
  H   H2323     1.0  0.86846  0.15792  0.62347  1.0000
  H   H2324     1.0  0.93977  0.18219  0.60642  1.0000
  H   H2325     1.0  0.82008  0.16448  0.72439  1.0000
  H   H2326     1.0  0.86457  0.99511  0.56728  1.0000
  H   H2327     1.0  0.79001  0.16577  0.72275  1.0000
  H   H2328     1.0  0.91439  0.22110  0.60844  1.0000
  H   H2329     1.0  0.87742  0.03302  0.62450  1.0000
  H   H2330     1.0  0.57912  0.28484  0.71426  1.0000
  S   S297      1.0  0.63942  0.05543  0.51441  1.0000
  H   H2331     1.0  0.62079  0.13093  0.52271  1.0000
  S   S298      1.0  0.87373  0.29067  0.68067  1.0000
  H   H2332     1.0  0.64057  0.13346  0.50676  1.0000
  H   H2333     1.0  0.93151  0.11361  0.70065  1.0000
  C   C1320     1.0  0.73554  0.08483  0.66198  1.0000
  C   C1321     1.0  0.84083  0.30354  0.64173  1.0000
  S   S299      1.0  0.92189  0.30739  0.69592  1.0000
  C   C1322     1.0  0.91333  0.20682  0.61721  1.0000
  C   C1323     1.0  0.58130  0.03881  0.49413  1.0000
  H   H2334     1.0  0.76128  0.09017  0.71798  1.0000
  H   H2335     1.0  0.85834  0.07941  0.71748  1.0000
  H   H2336     1.0  0.74491  0.12668  0.64967  1.0000
  H   H2337     1.0  0.63112  0.10632  0.51376  1.0000
  H   H2338     1.0  0.91654  0.31042  0.72243  1.0000
  H   H2339     1.0  0.62579  0.08210  0.56235  1.0000
  H   H2340     1.0  0.63610  0.04131  0.57467  1.0000
  H   H2341     1.0  0.71660  0.05603  0.66825  1.0000
  H   H2342     1.0  0.75555  0.07426  0.67796  1.0000
  H   H2343     1.0  0.54888  0.21829  0.72616  1.0000
  H   H2344     1.0  0.87919  0.24135  0.60823  1.0000
  C   C1324     1.0  0.66365  0.06992  0.55718  1.0000
  H   H2345     1.0  0.49923  0.14834  0.65104  1.0000
  H   H2346     1.0  0.66031  0.05536  0.55291  1.0000
  C   C1325     1.0  0.90556  0.20539  0.72814  1.0000
  H   H2347     1.0  0.63540  0.10598  0.54327  1.0000
  C   C1326     1.0  0.69337  0.07943  0.53756  1.0000
  H   H2348     1.0  0.58571  0.02541  0.50294  1.0000
  H   H2349     1.0  0.53657  0.03170  0.68478  1.0000
  S   S300      1.0  0.99122  0.08405  0.65159  1.0000
  H   H2350     1.0  0.74779  0.12553  0.69500  1.0000
  S   S301      1.0  0.98176  0.22384  0.67210  1.0000
  C   C1327     1.0  0.85489  0.01629  0.61639  1.0000
  H   H2351     1.0  0.80062  0.02279  0.58420  1.0000
  C   C1328     1.0  0.86512  0.23969  0.63416  1.0000
  S   S302      1.0  0.63611  0.98951  0.52143  1.0000
  C   C1329     1.0  0.56143  0.26001  0.49864  1.0000
  C   C1330     1.0  0.65696  0.11413  0.52397  1.0000
  C   C1331     1.0  0.58510  0.31836  0.50353  1.0000
  C   C1332     1.0  0.94986  0.06497  0.69529  1.0000
  H   H2352     1.0  0.58422  0.99691  0.52513  1.0000
  N   N71       1.0  0.65510  0.24821  0.69375  1.0000
  C   C1333     1.0  0.67569  0.23989  0.70128  1.0000
  S   S303      1.0  0.97314  0.27209  0.69448  1.0000
  C   C1334     1.0  0.63517  0.23697  0.70196  1.0000
  C   C1335     1.0  0.66021  0.24126  0.67973  1.0000
  C   C1336     1.0  0.68352  0.24578  0.67066  1.0000
  C   C1337     1.0  0.68412  0.21322  0.70402  1.0000
  H   H2353     1.0  0.72224  0.30988  0.57015  1.0000
  H   H2354     1.0  0.85714  0.18963  0.60549  1.0000
  C   C1338     1.0  0.68634  0.23766  0.65691  1.0000
  C   C1339     1.0  0.70827  0.20687  0.70831  1.0000
  C   C1340     1.0  0.59251  0.23310  0.70588  1.0000
  H   H2355     1.0  0.67144  0.24595  0.71139  1.0000
  H   H2356     1.0  0.69087  0.24775  0.69575  1.0000
  S   S304      1.0  0.90712  0.18291  0.65258  1.0000
  H   H2357     1.0  0.63195  0.24047  0.71264  1.0000
  H   H2358     1.0  0.63959  0.21774  0.70267  1.0000
  H   H2359     1.0  0.65989  0.22246  0.68051  1.0000
  H   H2360     1.0  0.64610  0.25036  0.67375  1.0000
  H   H2361     1.0  0.69878  0.23633  0.67555  1.0000
  H   H2362     1.0  0.68403  0.26452  0.66841  1.0000
  H   H2363     1.0  0.67183  0.20524  0.71238  1.0000
  H   H2364     1.0  0.68509  0.20524  0.69491  1.0000
  H   H2365     1.0  0.61336  0.23946  0.68624  1.0000
  H   H2366     1.0  0.72743  0.25633  0.69955  1.0000
  S   S305      1.0  0.93363  0.12013  0.67003  1.0000
  H   H2367     1.0  0.69999  0.13795  0.55805  1.0000
  H   H2368     1.0  0.70354  0.24032  0.65084  1.0000
  H   H2369     1.0  0.68560  0.21893  0.65831  1.0000
  H   H2370     1.0  0.67244  0.24780  0.65108  1.0000
  H   H2371     1.0  0.71308  0.18770  0.71097  1.0000
  H   H2372     1.0  0.72157  0.21304  0.69984  1.0000
  H   H2373     1.0  0.70827  0.21472  0.71739  1.0000
  S   S306      1.0  0.67849  0.99798  0.57073  1.0000
  H   H2374     1.0  0.58996  0.23773  0.71624  1.0000
  H   H2375     1.0  0.87338  0.00478  0.63374  1.0000
  N   N72       1.0  0.82380  0.17470  0.68188  1.0000
  C   C1341     1.0  0.80200  0.18734  0.67618  1.0000
  C   C1342     1.0  0.81703  0.16683  0.69697  1.0000
  C   C1343     1.0  0.84096  0.19103  0.67908  1.0000
  C   C1344     1.0  0.83505  0.15350  0.67535  1.0000
  C   C1345     1.0  0.81863  0.13636  0.67557  1.0000
  C   C1346     1.0  0.80485  0.19397  0.66041  1.0000
  C   C1347     1.0  0.73940  0.08708  0.67627  1.0000
  C   C1348     1.0  0.80935  0.18630  0.70594  1.0000
  C   C1349     1.0  0.80421  0.17597  0.72098  1.0000
  C   C1350     1.0  0.83105  0.11612  0.66811  1.0000
  C   C1351     1.0  0.78113  0.20319  0.65574  1.0000
  C   C1352     1.0  0.86834  0.12954  0.72452  1.0000
  H   H2376     1.0  0.79505  0.20389  0.68032  1.0000
  H   H2377     1.0  0.78766  0.17719  0.67966  1.0000
  H   H2378     1.0  0.80224  0.15732  0.69885  1.0000
  H   H2379     1.0  0.83142  0.15381  0.70117  1.0000
  H   H2380     1.0  0.83231  0.20813  0.68218  1.0000
  H   H2381     1.0  0.84710  0.19509  0.66792  1.0000
  H   H2382     1.0  0.84322  0.15856  0.66462  1.0000
  H   H2383     1.0  0.84988  0.14337  0.68052  1.0000
  H   H2384     1.0  0.80352  0.14516  0.67047  1.0000
  H   H2385     1.0  0.81211  0.12895  0.68621  1.0000
  H   H2386     1.0  0.81557  0.20773  0.65690  1.0000
  H   H2387     1.0  0.81325  0.17896  0.65515  1.0000
  H   H2388     1.0  0.55944  0.28816  0.51579  1.0000
  H   H2389     1.0  0.62282  0.99905  0.49315  1.0000
  H   H2390     1.0  0.82314  0.19670  0.70492  1.0000
  H   H2391     1.0  0.79328  0.19816  0.70311  1.0000
  H   H2392     1.0  0.55534  0.01476  0.55603  1.0000
  C   C1353     1.0  0.94303  0.06821  0.71050  1.0000
  H   H2393     1.0  0.81887  0.10419  0.66854  1.0000
  H   H2394     1.0  0.83709  0.12251  0.65721  1.0000
  H   H2395     1.0  0.84618  0.10611  0.67296  1.0000
  H   H2396     1.0  0.77196  0.21878  0.66036  1.0000
  H   H2397     1.0  0.78364  0.20814  0.64446  1.0000
  H   H2398     1.0  0.77001  0.18971  0.65859  1.0000
  C   C1354     1.0  0.77641  0.00771  0.60040  1.0000
  H   H2399     1.0  0.56062  0.29523  0.48856  1.0000
  H   H2400     1.0  0.70631  0.12108  0.57405  1.0000
  C   C1355     1.0  0.94154  0.22685  0.66226  1.0000
  H   H2401     1.0  0.90904  0.22907  0.65538  1.0000
  H   H2402     1.0  0.98220  0.17770  0.66711  1.0000
  H   H2403     1.0  0.93806  0.24498  0.66320  1.0000
  H   H2404     1.0  0.67651  0.13409  0.57225  1.0000
  C   C1356     1.0  0.86454  0.02126  0.62825  1.0000
  H   H2405     1.0  0.53493  0.10349  0.71346  1.0000
  S   S307      1.0  0.93804  0.12678  0.63649  1.0000
  C   C1357     1.0  0.76570  0.25805  0.72601  1.0000
  S   S308      1.0  0.52968  0.29768  0.71444  1.0000
  C   C1358     1.0  0.72610  0.27470  0.69581  1.0000
  C   C1359     1.0  0.73328  0.28241  0.68196  1.0000
  C   C1360     1.0  0.69342  0.12559  0.56691  1.0000
  H   H2406     1.0  0.89293  0.19387  0.68979  1.0000
  H   H2407     1.0  0.89707  0.18553  0.60840  1.0000
  H   H2408     1.0  0.75103  0.08828  0.65435  1.0000
  H   H2409     1.0  0.73729  0.31233  0.66661  1.0000
  C   C1361     1.0  0.54733  0.17447  0.71964  1.0000
  H   H2410     1.0  0.74682  0.30386  0.72242  1.0000
  H   H2411     1.0  0.96086  0.10456  0.69380  1.0000
  Fe  Fe155     1.0  0.79399  0.29590  0.62882  1.0000
  H   H2412     1.0  0.75181  0.26262  0.71954  1.0000
  H   H2413     1.0  0.57613  0.99580  0.57554  1.0000
  C   C1362     1.0  0.76154  0.11955  0.66826  1.0000
  C   C1363     1.0  0.58227  0.06235  0.49755  1.0000
  C   C1364     1.0  0.97978  0.29002  0.73223  1.0000
  H   H2414     1.0  0.73431  0.15711  0.67843  1.0000
  H   H2415     1.0  0.67824  0.06213  0.56299  1.0000
  H   H2416     1.0  0.57914  0.07638  0.48878  1.0000
  H   H2417     1.0  0.57577  0.23918  0.70184  1.0000
  N   N73       1.0  0.83015  0.03724  0.59735  1.0000
  H   H2418     1.0  0.71353  0.12924  0.66725  1.0000
  C   C1365     1.0  0.54460  0.09036  0.72025  1.0000
  H   H2419     1.0  0.71066  0.28459  0.71538  1.0000
  H   H2420     1.0  0.65154  0.05217  0.58507  1.0000
  H   H2421     1.0  0.68773  0.04465  0.53654  1.0000
  H   H2422     1.0  0.91162  0.21368  0.62679  1.0000
  H   H2423     1.0  0.93872  0.10884  0.73106  1.0000
  H   H2424     1.0  0.67355  0.28522  0.70142  1.0000
  H   H2425     1.0  0.72982  0.04515  0.52811  1.0000
  C   C1366     1.0  0.95356  0.15062  0.69404  1.0000
  H   H2426     1.0  0.85920  0.17432  0.69652  1.0000
  H   H2427     1.0  0.58922  0.30262  0.49859  1.0000
  C   C1367     1.0  0.71850  0.12706  0.67750  1.0000
  H   H2428     1.0  0.55059  0.24950  0.50659  1.0000
  S   S309      1.0  0.82830  0.30795  0.62673  1.0000
  N   N74       1.0  0.74166  0.11082  0.67832  1.0000
  C   C1368     1.0  0.69268  0.06008  0.52950  1.0000
  C   C1369     1.0  0.61161  0.24459  0.69641  1.0000
  C   C1370     1.0  0.69066  0.10353  0.56237  1.0000
  C   C1371     1.0  0.56486  0.01326  0.57552  1.0000
  Fe  Fe156     1.0  0.93742  0.27290  0.70692  1.0000
  C   C1372     1.0  0.87446  0.30244  0.65266  1.0000
  H   H2429     1.0  0.69061  0.31224  0.54603  1.0000
  H   H2430     1.0  0.83233  0.24575  0.61438  1.0000
  C   C1373     1.0  0.86334  0.18193  0.68572  1.0000
  H   H2431     1.0  0.73195  0.10247  0.70024  1.0000
  H   H2432     1.0  0.68398  0.09200  0.57162  1.0000
  H   H2433     1.0  0.84049  0.21822  0.63464  1.0000
  H   H2434     1.0  0.74812  0.04732  0.66460  1.0000
  C   C1374     1.0  0.63719  0.05680  0.57891  1.0000
  H   H2435     1.0  0.52942  0.28869  0.51671  1.0000
  H   H2436     1.0  0.63739  0.28153  0.68428  1.0000
  C   C1375     1.0  0.68422  0.31829  0.55603  1.0000
  C   C1376     1.0  0.86849  0.22919  0.60677  1.0000
  H   H2437     1.0  0.91065  0.16781  0.72918  1.0000
  H   H2438     1.0  0.82824  0.27696  0.59438  1.0000
  C   C1377     1.0  0.74668  0.10840  0.69267  1.0000
  H   H2439     1.0  0.70835  0.09491  0.55814  1.0000
  H   H2440     1.0  0.67278  0.26090  0.61560  1.0000
  H   H2441     1.0  0.63475  0.27851  0.70225  1.0000
  C   C1378     1.0  0.83861  0.07736  0.58419  1.0000
  H   H2442     1.0  0.84026  0.11119  0.57186  1.0000
  H   H2443     1.0  0.72224  0.06703  0.51375  1.0000
  H   H2444     1.0  0.74541  0.15199  0.65629  1.0000
  H   H2445     1.0  0.88356  0.24129  0.63061  1.0000
  H   H2446     1.0  0.59715  0.21392  0.70657  1.0000
  C   C1379     1.0  0.64727  0.27430  0.69291  1.0000
  H   H2447     1.0  0.83973  0.03147  0.57631  1.0000
  H   H2448     1.0  0.96838  0.06578  0.69117  1.0000
  C   C1380     1.0  0.63289  0.04347  0.70798  1.0000
  H   H2449     1.0  0.55675  0.01548  0.58615  1.0000
  H   H2450     1.0  0.80180  0.31410  0.71070  1.0000
  H   H2451     1.0  0.85110  0.17309  0.63679  1.0000
  C   C1381     1.0  0.54946  0.28547  0.49673  1.0000
  H   H2452     1.0  0.60550  0.26364  0.69547  1.0000
  C   C1382     1.0  0.51398  0.01118  0.55014  1.0000
  H   H2453     1.0  0.64287  0.09167  0.57232  1.0000
  C   C1383     1.0  0.67398  0.10927  0.55161  1.0000
  H   H2454     1.0  0.52266  0.13948  0.49406  1.0000
  N   N75       1.0  0.95040  0.08826  0.71466  1.0000
  Fe  Fe157     1.0  0.95266  0.10030  0.65323  1.0000
  H   H2455     1.0  0.81476  0.17171  0.62830  1.0000
  H   H2456     1.0  0.83569  0.23441  0.59879  1.0000
  H   H2457     1.0  0.95830  0.16635  0.69627  1.0000
  N   N76       1.0  0.86859  0.20891  0.61826  1.0000
  H   H2458     1.0  0.94959  0.04049  0.68211  1.0000
  H   H2459     1.0  0.58638  0.31263  0.51444  1.0000
  C   C1384     1.0  0.66627  0.28908  0.69179  1.0000
  C   C1385     1.0  0.83148  0.15990  0.62539  1.0000
  C   C1386     1.0  0.77867  0.27819  0.72430  1.0000
  H   H2460     1.0  0.70677  0.07190  0.54423  1.0000
  H   H2461     1.0  0.68088  0.28567  0.68342  1.0000
  C   C1387     1.0  0.64141  0.07702  0.56749  1.0000
  C   C1388     1.0  0.71718  0.15145  0.68122  1.0000
  S   S310      1.0  0.66061  0.10408  0.70980  1.0000
  H   H2462     1.0  0.86667  0.20259  0.64015  1.0000
  H   H2463     1.0  0.93895  0.07882  0.68907  1.0000
  H   H2464     1.0  0.86376  0.02913  0.58476  1.0000
  H   H2465     1.0  0.64609  0.08194  0.53460  1.0000
  H   H2466     1.0  0.85743  0.26616  0.58642  1.0000
  C   C1389     1.0  0.85828  0.27521  0.73125  1.0000
  C   C1390     1.0  0.54458  0.29573  0.51020  1.0000
  H   H2467     1.0  0.66124  0.13004  0.52618  1.0000
  H   H2468     1.0  0.85262  0.27791  0.60219  1.0000
  H   H2469     1.0  0.87702  0.22306  0.59696  1.0000
  C   C1391     1.0  0.99431  0.15050  0.63335  1.0000
  H   H2470     1.0  0.67187  0.10606  0.51692  1.0000
  C   C1392     1.0  0.68880  0.26829  0.61133  1.0000
  H   H2471     1.0  0.91118  0.21989  0.72049  1.0000
  N   N77       1.0  0.67058  0.08891  0.54591  1.0000
  H   H2472     1.0  0.70060  0.09362  0.53026  1.0000
  H   H2473     1.0  0.89367  0.18001  0.62648  1.0000
  C   C1393     1.0  0.89286  0.19427  0.61760  1.0000
  H   H2474     1.0  0.50030  0.04159  0.57748  1.0000
  C   C1394     1.0  0.85937  0.24225  0.64920  1.0000
  C   C1395     1.0  0.93302  0.09554  0.72683  1.0000
  H   H2475     1.0  0.59954  0.06205  0.50022  1.0000
  H   H2476     1.0  0.99441  0.05706  0.70517  1.0000
  H   H2477     1.0  0.70415  0.11936  0.68449  1.0000
  C   C1396     1.0  0.76163  0.30039  0.72825  1.0000
  H   H2478     1.0  0.57891  0.25818  0.50154  1.0000
  C   C1397     1.0  0.64264  0.07694  0.48810  1.0000
  C   C1398     1.0  0.53509  0.07077  0.72693  1.0000
  C   C1399     1.0  0.63603  0.12164  0.51638  1.0000
  H   H2479     1.0  0.68446  0.28733  0.61133  1.0000
  C   C1400     1.0  0.69945  0.17007  0.67422  1.0000
  C   C1401     1.0  0.65141  0.09703  0.53730  1.0000
  H   H2480     1.0  0.53579  0.03405  0.56651  1.0000
  C   C1402     1.0  0.94523  0.04186  0.69314  1.0000
  H   H2481     1.0  0.88797  0.15295  0.71044  1.0000
  C   C1403     1.0  0.84850  0.99808  0.58833  1.0000
  H   H2482     1.0  0.79190  0.08235  0.71153  1.0000
  H   H2483     1.0  0.77804  0.24255  0.72280  1.0000
  C   C1404     1.0  0.87855  0.20878  0.73193  1.0000
  C   C1405     1.0  0.88113  0.13713  0.71192  1.0000
  H   H2484     1.0  0.68148  0.16722  0.67855  1.0000
  H   H2485     1.0  0.83185  0.04960  0.61565  1.0000
  H   H2486     1.0  0.64024  0.02704  0.70384  1.0000
  H   H2487     1.0  0.77568  0.10466  0.66574  1.0000
  C   C1406     1.0  0.82818  0.29671  0.65452  1.0000
  H   H2488     1.0  0.62950  0.09071  0.49199  1.0000
  H   H2489     1.0  0.60562  0.29333  0.72812  1.0000
  H   H2490     1.0  0.81813  0.09738  0.56865  1.0000
  C   C1407     1.0  0.82043  0.06174  0.59115  1.0000
  C   C1408     1.0  0.77759  0.13852  0.64449  1.0000
  C   C1409     1.0  0.76955  0.09162  0.69595  1.0000
  H   H2491     1.0  0.77786  0.11241  0.70926  1.0000
  C   C1410     1.0  0.71489  0.31452  0.70005  1.0000
  H   H2492     1.0  0.96323  0.29482  0.72802  1.0000
  H   H2493     1.0  0.76759  0.07329  0.69694  1.0000
  H   H2494     1.0  0.87521  0.16847  0.68018  1.0000
  H   H2495     1.0  0.68404  0.01766  0.59324  1.0000
  H   H2496     1.0  0.57456  0.10736  0.71675  1.0000
  H   H2497     1.0  0.70107  0.18739  0.67590  1.0000
  S   S311      1.0  0.93184  0.26104  0.72971  1.0000
  C   C1411     1.0  0.73280  0.06017  0.66150  1.0000
  H   H2498     1.0  0.97467  0.06573  0.72706  1.0000
  H   H2499     1.0  0.79955  0.28291  0.56470  1.0000
  H   H2500     1.0  0.51733  0.02897  0.54934  1.0000
  H   H2501     1.0  0.71196  0.15084  0.69242  1.0000
  H   H2502     1.0  0.88148  0.20991  0.67495  1.0000
  H   H2503     1.0  0.71766  0.29080  0.59277  1.0000
  C   C1412     1.0  0.87658  0.20129  0.68549  1.0000
  C   C1413     1.0  0.57224  0.29630  0.72172  1.0000
  C   C1414     1.0  0.94936  0.10885  0.70333  1.0000
  C   C1415     1.0  0.99088  0.31168  0.73115  1.0000
  C   C1416     1.0  0.95585  0.13107  0.70619  1.0000
  H   H2504     1.0  0.88946  0.25202  0.72478  1.0000
  H   H2505     1.0  0.78825  0.14770  0.64871  1.0000
  S   S312      1.0  0.94584  0.28821  0.66732  1.0000
  C   C1417     1.0  0.86454  0.09564  0.71586  1.0000
  H   H2506     1.0  0.71966  0.09682  0.65903  1.0000
  H   H2507     1.0  0.53269  0.28641  0.49315  1.0000
  H   H2508     1.0  0.78820  0.12171  0.64205  1.0000
  H   H2509     1.0  0.96551  0.14540  0.68483  1.0000
  H   H2510     1.0  0.77269  0.14926  0.63486  1.0000
  H   H2511     1.0  0.92648  0.04079  0.69658  1.0000
  H   H2512     1.0  0.53391  0.19048  0.71964  1.0000
  H   H2513     1.0  0.86983  0.00730  0.60974  1.0000
  H   H2514     1.0  0.94410  0.13766  0.71507  1.0000
  C   C1418     1.0  0.49915  0.16687  0.65131  1.0000
  S   S313      1.0  0.71016  0.12880  0.72222  1.0000
  C   C1419     1.0  0.83859  0.29284  0.66631  1.0000
  H   H2515     1.0  0.95620  0.02711  0.69880  1.0000
  H   H2516     1.0  0.57613  0.02646  0.57142  1.0000
  H   H2517     1.0  0.85157  0.29202  0.71088  1.0000
  C   C1420     1.0  0.85976  0.10893  0.72644  1.0000
  S   S314      1.0  0.65749  0.29556  0.72912  1.0000
  C   C1421     1.0  0.58729  0.30109  0.72956  1.0000
  Fe  Fe158     1.0  0.62443  0.15702  0.72602  1.0000
  H   H2518     1.0  0.52376  0.15078  0.72208  1.0000
  C   C1422     1.0  0.57955  0.07571  0.73105  1.0000
  H   H2519     1.0  0.52210  0.31685  0.55094  1.0000
  H   H2520     1.0  0.51995  0.23396  0.73178  1.0000
  H   H2521     1.0  0.83213  0.99323  0.58706  1.0000
  H   H2522     1.0  0.55114  0.13768  0.72719  1.0000
  H   H2523     1.0  0.76742  0.01007  0.61087  1.0000
  H   H2524     1.0  0.87385  0.31179  0.63099  1.0000
  H   H2525     1.0  0.68312  0.30529  0.57740  1.0000
  C   C1423     1.0  0.53706  0.15319  0.72781  1.0000
  H   H2526     1.0  0.83175  0.23957  0.73253  1.0000
  H   H2527     1.0  0.80275  0.32017  0.68551  1.0000
  S   S315      1.0  0.75859  0.31229  0.63886  1.0000
  H   H2528     1.0  0.98173  0.16618  0.63613  1.0000
  C   C1424     1.0  0.53899  0.23372  0.73061  1.0000
  H   H2529     1.0  0.76587  0.31181  0.70076  1.0000
  H   H2530     1.0  0.75114  0.14121  0.72724  1.0000
  C   C1425     1.0  0.65605  0.31503  0.68954  1.0000
  H   H2531     1.0  0.93479  0.18097  0.71964  1.0000
  H   H2532     1.0  0.99168  0.26880  0.64659  1.0000
  H   H2533     1.0  0.85288  0.31160  0.72212  1.0000
  Fe  Fe159     1.0  0.68303  0.31745  0.73040  1.0000
  H   H2534     1.0  0.50519  0.32130  0.50467  1.0000
  H   H2535     1.0  0.79238  0.27263  0.73090  1.0000
  C   C1426     1.0  0.53210  0.14469  0.48368  1.0000
  H   H2536     1.0  0.53972  0.15996  0.48393  1.0000
  H   H2537     1.0  0.50611  0.12166  0.73294  1.0000
  H   H2538     1.0  0.78701  0.98993  0.60066  1.0000
  S   S316      1.0  0.49751  0.17075  0.69379  1.0000
  S   S317      1.0  0.49743  0.10740  0.69123  1.0000
  H   H2539     1.0  0.64184  0.31952  0.69806  1.0000
  H   H2540     1.0  0.85232  0.98963  0.59856  1.0000
  H   H2541     1.0  0.64913  0.32016  0.67975  1.0000
  H   H2542     1.0  0.59650  0.98816  0.49698  1.0000
  H   H2543     1.0  0.49519  0.99532  0.53894  1.0000
  C   C1427     1.0  0.49473  0.01269  0.54147  1.0000
  C   C1428     1.0  0.91036  0.30551  0.73306  1.0000
  Fe  Fe160     1.0  0.96386  0.07788  0.96313  1.0000
  C   C1429     1.0  0.91524  0.12604  0.78061  1.0000
  S   S318      1.0  0.97614  0.10608  0.96980  1.0000
  H   H2544     1.0  0.74665  0.20907  0.83283  1.0000
  H   H2545     1.0  0.82513  0.14114  0.82792  1.0000
  H   H2546     1.0  0.84669  0.05646  0.96484  1.0000
  H   H2547     1.0  0.71372  0.23208  0.82698  1.0000
  H   H2548     1.0  0.95323  0.12565  0.91459  1.0000
  C   C1430     1.0  0.73530  0.26813  0.81903  1.0000
  Fe  Fe161     1.0  0.80921  0.15087  0.78092  1.0000
  S   S319      1.0  0.80399  0.11560  0.79226  1.0000
  S   S320      1.0  0.79031  0.18575  0.78612  1.0000
  Fe  Fe162     1.0  0.84222  0.13174  0.75724  1.0000
  S   S321      1.0  0.83969  0.09482  0.76629  1.0000
  H   H2549     1.0  0.79596  0.22146  0.74242  1.0000
  Fe  Fe163     1.0  0.80113  0.10849  0.77158  1.0000
  S   S322      1.0  0.77192  0.09100  0.76945  1.0000
  Fe  Fe164     1.0  0.84293  0.10479  0.78614  1.0000
  S   S323      1.0  0.87170  0.08206  0.79737  1.0000
  S   S324      1.0  0.80363  0.14446  0.76087  1.0000
  S   S325      1.0  0.84816  0.14097  0.77651  1.0000
  H   H2550     1.0  0.95320  0.10305  0.92919  1.0000
  Fe  Fe165     1.0  0.91919  0.02151  0.89916  1.0000
  C   C1431     1.0  0.91022  0.12043  0.80646  1.0000
  S   S326      1.0  0.90769  0.02615  0.92111  1.0000
  Fe  Fe166     1.0  0.67610  0.27035  0.74458  1.0000
  H   H2551     1.0  0.86645  0.14976  0.83944  1.0000
  H   H2552     1.0  0.71644  0.19467  0.75218  1.0000
  Fe  Fe167     1.0  0.90547  0.02863  0.87083  1.0000
  S   S327      1.0  0.87356  0.04533  0.86067  1.0000
  H   H2553     1.0  0.54499  0.22088  0.77254  1.0000
  S   S328      1.0  0.91922  0.05090  0.88174  1.0000
  H   H2554     1.0  0.84976  0.10299  0.73611  1.0000
  C   C1432     1.0  0.87126  0.07107  0.81497  1.0000
  C   C1433     1.0  0.85188  0.07705  0.82479  1.0000
  C   C1434     1.0  0.85284  0.06883  0.83873  1.0000
  C   C1435     1.0  0.87315  0.05466  0.84299  1.0000
  C   C1436     1.0  0.89243  0.04844  0.83316  1.0000
  C   C1437     1.0  0.89147  0.05666  0.81923  1.0000
  H   H2555     1.0  0.83623  0.08810  0.82166  1.0000
  H   H2556     1.0  0.83780  0.07360  0.84627  1.0000
  H   H2557     1.0  0.90812  0.03746  0.83629  1.0000
  H   H2558     1.0  0.90655  0.05197  0.81169  1.0000
  C   C1438     1.0  0.80923  0.20128  0.79022  1.0000
  C   C1439     1.0  0.80531  0.22559  0.78721  1.0000
  C   C1440     1.0  0.81900  0.23818  0.79168  1.0000
  C   C1441     1.0  0.83674  0.22643  0.79910  1.0000
  C   C1442     1.0  0.84110  0.20215  0.80167  1.0000
  C   C1443     1.0  0.82748  0.18955  0.79721  1.0000
  H   H2559     1.0  0.79144  0.23477  0.78165  1.0000
  H   H2560     1.0  0.81554  0.25692  0.78964  1.0000
  H   H2561     1.0  0.85470  0.19314  0.80742  1.0000
  H   H2562     1.0  0.83056  0.17082  0.79962  1.0000
  H   H2563     1.0  0.86661  0.12131  0.81699  1.0000
  C   C1444     1.0  0.80526  0.21167  0.75085  1.0000
  C   C1445     1.0  0.76080  0.11913  0.74555  1.0000
  C   C1446     1.0  0.75537  0.10112  0.75600  1.0000
  C   C1447     1.0  0.73581  0.09137  0.75603  1.0000
  C   C1448     1.0  0.72144  0.09995  0.74593  1.0000
  C   C1449     1.0  0.70272  0.14475  0.76985  1.0000
  H   H2564     1.0  0.77595  0.12655  0.74528  1.0000
  H   H2565     1.0  0.73160  0.07730  0.76401  1.0000
  N   N78       1.0  0.52654  0.15470  0.74248  1.0000
  H   H2566     1.0  0.93560  0.08572  0.82299  1.0000
  C   C1450     1.0  0.60287  0.25703  0.77151  1.0000
  H   H2567     1.0  0.72783  0.16756  0.74633  1.0000
  H   H2568     1.0  0.51172  0.19135  0.73936  1.0000
  C   C1451     1.0  0.88861  0.21374  0.77327  1.0000
  C   C1452     1.0  0.52919  0.28066  0.76801  1.0000
  C   C1453     1.0  0.91572  0.28246  0.73928  1.0000
  H   H2569     1.0  0.53704  0.23980  0.78473  1.0000
  S   S329      1.0  0.98191  0.06228  0.94440  1.0000
  C   C1454     1.0  0.96201  0.05121  0.93797  1.0000
  C   C1455     1.0  0.94288  0.04364  0.94671  1.0000
  C   C1456     1.0  0.92668  0.03527  0.94149  1.0000
  C   C1457     1.0  0.92914  0.03509  0.92749  1.0000
  C   C1458     1.0  0.94838  0.04252  0.91874  1.0000
  C   C1459     1.0  0.96497  0.05030  0.92402  1.0000
  H   H2570     1.0  0.94057  0.04423  0.95751  1.0000
  H   H2571     1.0  0.91212  0.02911  0.94831  1.0000
  H   H2572     1.0  0.95031  0.04269  0.90788  1.0000
  H   H2573     1.0  0.88209  0.19455  0.75907  1.0000
  H   H2574     1.0  0.75597  0.20248  0.75056  1.0000
  H   H2575     1.0  0.86821  0.15088  0.81282  1.0000
  H   H2576     1.0  0.92167  0.06762  0.84693  1.0000
  H   H2577     1.0  0.91616  0.15202  0.79221  1.0000
  H   H2578     1.0  0.88677  0.19938  0.78196  1.0000
  H   H2579     1.0  0.58333  0.16315  0.75973  1.0000
  H   H2580     1.0  0.92560  0.30905  0.87163  1.0000
  C   C1460     1.0  0.71603  0.15222  0.79019  1.0000
  H   H2581     1.0  0.98283  0.15387  0.96756  1.0000
  H   H2582     1.0  0.57143  0.24836  0.78390  1.0000
  H   H2583     1.0  0.93008  0.18796  0.80985  1.0000
  H   H2584     1.0  0.98189  0.23005  0.96635  1.0000
  C   C1461     1.0  0.68077  0.13550  0.77809  1.0000
  C   C1462     1.0  0.73274  0.12833  0.79183  1.0000
  C   C1463     1.0  0.73680  0.12039  0.80659  1.0000
  C   C1464     1.0  0.54391  0.15932  0.75023  1.0000
  C   C1465     1.0  0.86603  0.05150  0.96353  1.0000
  H   H2585     1.0  0.52754  0.27971  0.77924  1.0000
  S   S330      1.0  0.95216  0.28748  0.96467  1.0000
  S   S331      1.0  0.70361  0.29063  0.74436  1.0000
  H   H2586     1.0  0.72414  0.16437  0.79399  1.0000
  H   H2587     1.0  0.69958  0.15069  0.79748  1.0000
  C   C1466     1.0  0.58123  0.14491  0.76045  1.0000
  H   H2588     1.0  0.90547  0.11203  0.78085  1.0000
  H   H2589     1.0  0.85330  0.08249  0.94215  1.0000
  H   H2590     1.0  0.56952  0.27843  0.77626  1.0000
  H   H2591     1.0  0.57183  0.13911  0.77073  1.0000
  H   H2592     1.0  0.70600  0.20077  0.78959  1.0000
  H   H2593     1.0  0.80045  0.22141  0.75957  1.0000
  H   H2594     1.0  0.57880  0.14686  0.73936  1.0000
  Fe  Fe168     1.0  0.84468  0.28051  0.80223  1.0000
  H   H2595     1.0  0.68346  0.12729  0.78860  1.0000
  H   H2596     1.0  0.72554  0.11468  0.78890  1.0000
  H   H2597     1.0  0.75008  0.12930  0.78550  1.0000
  H   H2598     1.0  0.74883  0.10330  0.80739  1.0000
  H   H2599     1.0  0.74498  0.13300  0.80989  1.0000
  H   H2600     1.0  0.72008  0.11844  0.81347  1.0000
  H   H2601     1.0  0.60589  0.23499  0.73947  1.0000
  H   H2602     1.0  0.75903  0.23281  0.83505  1.0000
  H   H2603     1.0  0.87115  0.04484  0.97375  1.0000
  H   H2604     1.0  0.65808  0.11223  0.77678  1.0000
  H   H2605     1.0  0.84335  0.00787  0.87252  1.0000
  H   H2606     1.0  0.89398  0.09509  0.83096  1.0000
  C   C1467     1.0  0.57625  0.26028  0.77441  1.0000
  H   H2607     1.0  0.89754  0.11438  0.84130  1.0000
  N   N79       1.0  0.73765  0.24855  0.81112  1.0000
  C   C1468     1.0  0.74016  0.25833  0.79612  1.0000
  C   C1469     1.0  0.75892  0.23026  0.81353  1.0000
  C   C1470     1.0  0.71622  0.23763  0.81573  1.0000
  C   C1471     1.0  0.69287  0.25341  0.81248  1.0000
  C   C1472     1.0  0.73908  0.24146  0.78645  1.0000
  C   C1473     1.0  0.74156  0.25316  0.77156  1.0000
  C   C1474     1.0  0.78411  0.20309  0.82961  1.0000
  H   H2608     1.0  0.75699  0.26463  0.79263  1.0000
  H   H2609     1.0  0.72645  0.27390  0.79424  1.0000
  H   H2610     1.0  0.72932  0.26258  0.83008  1.0000
  H   H2611     1.0  0.77505  0.23732  0.80908  1.0000
  H   H2612     1.0  0.75989  0.21550  0.80811  1.0000
  H   H2613     1.0  0.71854  0.22136  0.81140  1.0000
  H   H2614     1.0  0.50908  0.21193  0.79647  1.0000
  H   H2615     1.0  0.75314  0.22603  0.78723  1.0000
  H   H2616     1.0  0.72222  0.23543  0.78889  1.0000
  H   H2617     1.0  0.51431  0.13123  0.76035  1.0000
  H   H2618     1.0  0.88891  0.30342  0.90476  1.0000
  H   H2619     1.0  0.74173  0.24037  0.76489  1.0000
  H   H2620     1.0  0.72651  0.26753  0.77003  1.0000
  H   H2621     1.0  0.75810  0.26001  0.76848  1.0000
  H   H2622     1.0  0.79871  0.21283  0.82592  1.0000
  H   H2623     1.0  0.78491  0.19506  0.84040  1.0000
  C   C1475     1.0  0.86674  0.10245  0.89828  1.0000
  H   H2624     1.0  0.88757  0.14529  0.79304  1.0000
  H   H2625     1.0  0.83303  0.16899  0.82736  1.0000
  H   H2626     1.0  0.95257  0.98850  0.92280  1.0000
  C   C1476     1.0  0.69864  0.20492  0.77998  1.0000
  C   C1477     1.0  0.56679  0.25531  0.76223  1.0000
  C   C1478     1.0  0.72681  0.11807  0.73556  1.0000
  Fe  Fe169     1.0  0.98052  0.29860  0.97209  1.0000
  H   H2627     1.0  0.50718  0.29743  0.75253  1.0000
  H   H2628     1.0  0.95966  0.28411  0.91457  1.0000
  H   H2629     1.0  0.72142  0.28282  0.81575  1.0000
  H   H2630     1.0  0.65615  0.25193  0.81470  1.0000
  H   H2631     1.0  0.53644  0.15844  0.76122  1.0000
  H   H2632     1.0  0.54049  0.29376  0.76341  1.0000
  H   H2633     1.0  0.71699  0.12976  0.76808  1.0000
  C   C1479     1.0  0.64913  0.18730  0.73935  1.0000
  C   C1480     1.0  0.50581  0.17444  0.74287  1.0000
  H   H2634     1.0  0.79945  0.19476  0.75422  1.0000
  C   C1481     1.0  0.57845  0.31559  0.73943  1.0000
  C   C1482     1.0  0.83343  0.15116  0.83315  1.0000
  H   H2635     1.0  0.78645  0.18904  0.82342  1.0000
  H   H2636     1.0  0.93531  0.27705  0.89868  1.0000
  H   H2637     1.0  0.54740  0.17729  0.74683  1.0000
  S   S332      1.0  0.85345  0.24133  0.80563  1.0000
  C   C1483     1.0  0.56798  0.14264  0.74940  1.0000
  H   H2638     1.0  0.97789  0.19224  0.98062  1.0000
  S   S333      1.0  0.68724  0.23286  0.74323  1.0000
  C   C1484     1.0  0.67477  0.11733  0.77129  1.0000
  C   C1485     1.0  0.74669  0.12740  0.73533  1.0000
  C   C1486     1.0  0.76060  0.21940  0.82858  1.0000
  N   N80       1.0  0.89925  0.12882  0.81982  1.0000
  H   H2639     1.0  0.94147  0.10958  0.82952  1.0000
  H   H2640     1.0  0.95003  0.31936  0.77978  1.0000
  H   H2641     1.0  0.76847  0.30561  0.82525  1.0000
  C   C1487     1.0  0.75744  0.27877  0.81768  1.0000
  H   H2642     1.0  0.92950  0.11535  0.80579  1.0000
  S   S334      1.0  0.86387  0.14585  0.73777  1.0000
  H   H2643     1.0  0.85041  0.13945  0.96678  1.0000
  C   C1488     1.0  0.56984  0.05635  0.73767  1.0000
  H   H2644     1.0  0.69336  0.25940  0.80137  1.0000
  C   C1489     1.0  0.95597  0.99331  0.97730  1.0000
  C   C1490     1.0  0.51945  0.13182  0.74913  1.0000
  H   H2645     1.0  0.69833  0.15252  0.75954  1.0000
  H   H2646     1.0  0.97871  0.31297  0.75733  1.0000
  S   S335      1.0  0.95566  0.00384  0.89238  1.0000
  H   H2647     1.0  0.84876  0.29826  0.90347  1.0000
  H   H2648     1.0  0.95162  0.07136  0.84413  1.0000
  H   H2649     1.0  0.90745  0.21274  0.76901  1.0000
  H   H2650     1.0  0.88061  0.06597  0.93638  1.0000
  C   C1491     1.0  0.62693  0.20088  0.73869  1.0000
  H   H2651     1.0  0.90229  0.29082  0.89013  1.0000
  C   C1492     1.0  0.93321  0.08069  0.84469  1.0000
  H   H2652     1.0  0.68866  0.10157  0.77164  1.0000
  H   H2653     1.0  0.67276  0.12435  0.76050  1.0000
  H   H2654     1.0  0.67016  0.23542  0.82873  1.0000
  H   H2655     1.0  0.87791  0.07614  0.91451  1.0000
  H   H2656     1.0  0.94444  0.06822  0.74352  1.0000
  C   C1493     1.0  0.67248  0.24046  0.81747  1.0000
  H   H2657     1.0  0.83942  0.27586  0.73506  1.0000
  C   C1494     1.0  0.83165  0.20761  0.74611  1.0000
  H   H2658     1.0  0.67550  0.22467  0.81265  1.0000
  H   H2659     1.0  0.87178  0.03733  0.95728  1.0000
  H   H2660     1.0  0.84789  0.10177  0.90156  1.0000
  H   H2661     1.0  0.54066  0.27033  0.74253  1.0000
  S   S336      1.0  0.60747  0.07733  0.73421  1.0000
  C   C1495     1.0  0.87639  0.23195  0.75039  1.0000
  N   N81       1.0  0.86651  0.23026  0.73807  1.0000
  C   C1496     1.0  0.75302  0.18898  0.74527  1.0000
  H   H2662     1.0  0.68477  0.18670  0.74097  1.0000
  Fe  Fe170     1.0  0.93870  0.12319  0.97386  1.0000
  H   H2663     1.0  0.85646  0.21207  0.76739  1.0000
  C   C1497     1.0  0.54791  0.05386  0.73560  1.0000
  S   S337      1.0  0.94107  0.01111  0.86176  1.0000
  C   C1498     1.0  0.92988  0.09666  0.83117  1.0000
  H   H2664     1.0  0.76288  0.28655  0.80697  1.0000
  H   H2665     1.0  0.87014  0.08616  0.96338  1.0000
  H   H2666     1.0  0.53445  0.11722  0.74785  1.0000
  H   H2667     1.0  0.77235  0.26567  0.82104  1.0000
  Fe  Fe171     1.0  0.67889  0.30638  0.76115  1.0000
  S   S338      1.0  0.64127  0.12491  0.73857  1.0000
  H   H2668     1.0  0.93578  0.24075  0.96813  1.0000
  S   S339      1.0  0.93070  0.16123  0.96461  1.0000
  C   C1499     1.0  0.93386  0.20558  0.96668  1.0000
  H   H2669     1.0  0.57595  0.23757  0.76049  1.0000
  C   C1500     1.0  0.87491  0.21163  0.76241  1.0000
  H   H2670     1.0  0.54084  0.21776  0.75134  1.0000
  H   H2671     1.0  0.97608  0.00236  0.93214  1.0000
  C   C1501     1.0  0.53371  0.23768  0.77466  1.0000
  C   C1502     1.0  0.75270  0.29778  0.82656  1.0000
  N   N82       1.0  0.88082  0.10263  0.93452  1.0000
  C   C1503     1.0  0.87240  0.08074  0.94197  1.0000
  C   C1504     1.0  0.87054  0.11024  0.92150  1.0000
  C   C1505     1.0  0.90713  0.09753  0.93150  1.0000
  C   C1506     1.0  0.87323  0.12193  0.94298  1.0000
  C   C1507     1.0  0.84667  0.12777  0.94834  1.0000
  C   C1508     1.0  0.87726  0.07256  0.95685  1.0000
  C   C1509     1.0  0.91889  0.11814  0.92363  1.0000
  C   C1510     1.0  0.87990  0.09433  0.91041  1.0000
  H   H2672     1.0  0.90688  0.07169  0.75912  1.0000
  H   H2673     1.0  0.86266  0.28139  0.89002  1.0000
  H   H2674     1.0  0.86633  0.27939  0.73926  1.0000
  C   C1511     1.0  0.94523  0.11047  0.91987  1.0000
  H   H2675     1.0  0.91569  0.09956  0.75413  1.0000
  C   C1512     1.0  0.62288  0.22427  0.74021  1.0000
  H   H2676     1.0  0.85125  0.11139  0.92377  1.0000
  H   H2677     1.0  0.87309  0.12814  0.91679  1.0000
  H   H2678     1.0  0.91340  0.08262  0.92585  1.0000
  H   H2679     1.0  0.91452  0.09164  0.94108  1.0000
  H   H2680     1.0  0.88295  0.11821  0.95176  1.0000
  H   H2681     1.0  0.87797  0.13838  0.93695  1.0000
  C   C1513     1.0  0.64130  0.23419  0.74189  1.0000
  H   H2682     1.0  0.83682  0.13482  0.93972  1.0000
  H   H2683     1.0  0.89625  0.06756  0.95709  1.0000
  H   H2684     1.0  0.68892  0.26898  0.81756  1.0000
  H   H2685     1.0  0.91616  0.13188  0.93005  1.0000
  H   H2686     1.0  0.91188  0.12579  0.91405  1.0000
  H   H2687     1.0  0.97971  0.05627  0.91721  1.0000
  H   H2688     1.0  0.87392  0.09084  0.89051  1.0000
  H   H2689     1.0  0.91259  0.13896  0.77129  1.0000
  H   H2690     1.0  0.83980  0.11233  0.95423  1.0000
  H   H2691     1.0  0.56653  0.12417  0.75071  1.0000
  S   S340      1.0  0.90223  0.00054  0.88922  1.0000
  H   H2692     1.0  0.95284  0.31113  0.75144  1.0000
  H   H2693     1.0  0.63832  0.25240  0.74271  1.0000
  H   H2694     1.0  0.88960  0.28890  0.77178  1.0000
  H   H2695     1.0  0.89866  0.09453  0.90642  1.0000
  H   H2696     1.0  0.61082  0.23880  0.77028  1.0000
  C   C1514     1.0  0.89524  0.29355  0.76096  1.0000
  C   C1515     1.0  0.85438  0.29905  0.89229  1.0000
  S   S341      1.0  0.92674  0.09652  0.96535  1.0000
  N   N83       1.0  0.54060  0.25729  0.76384  1.0000
  H   H2697     1.0  0.89489  0.17551  0.80594  1.0000
  H   H2698     1.0  0.93627  0.20864  0.95566  1.0000
  C   C1516     1.0  0.84037  0.23106  0.74154  1.0000
  H   H2699     1.0  0.60935  0.26143  0.78008  1.0000
  H   H2700     1.0  0.74834  0.29049  0.83750  1.0000
  H   H2701     1.0  0.66878  0.22866  0.77237  1.0000
  S   S342      1.0  0.82016  0.30051  0.81751  1.0000
  C   C1517     1.0  0.93088  0.18351  0.97381  1.0000
  H   H2702     1.0  0.89304  0.09312  0.74664  1.0000
  C   C1518     1.0  0.73321  0.16784  0.76718  1.0000
  C   C1519     1.0  0.53503  0.25577  0.75016  1.0000
  H   H2703     1.0  0.57305  0.26739  0.75303  1.0000
  C   C1520     1.0  0.90989  0.08577  0.75040  1.0000
  H   H2704     1.0  0.60848  0.26875  0.76206  1.0000
  H   H2705     1.0  0.68452  0.18849  0.76697  1.0000
  H   H2706     1.0  0.86719  0.24780  0.75476  1.0000
  H   H2707     1.0  0.57941  0.04306  0.74446  1.0000
  H   H2708     1.0  0.82240  0.15022  0.96133  1.0000
  H   H2709     1.0  0.95313  0.29156  0.88451  1.0000
  H   H2710     1.0  0.67682  0.17914  0.78457  1.0000
  H   H2711     1.0  0.59883  0.13381  0.75920  1.0000
  C   C1521     1.0  0.50507  0.29208  0.76375  1.0000
  H   H2712     1.0  0.70644  0.09232  0.74605  1.0000
  H   H2713     1.0  0.83536  0.19779  0.73742  1.0000
  H   H2714     1.0  0.54083  0.03867  0.74079  1.0000
  H   H2715     1.0  0.74112  0.17873  0.77211  1.0000
  H   H2716     1.0  0.91258  0.25874  0.75823  1.0000
  H   H2717     1.0  0.74660  0.15182  0.76618  1.0000
  N   N84       1.0  0.71095  0.16203  0.77596  1.0000
  H   H2718     1.0  0.92931  0.09089  0.85321  1.0000
  C   C1522     1.0  0.94567  0.29113  0.89546  1.0000
  C   C1523     1.0  0.90823  0.27649  0.75328  1.0000
  C   C1524     1.0  0.69186  0.18323  0.77666  1.0000
  H   H2719     1.0  0.88181  0.23047  0.77718  1.0000
  C   C1525     1.0  0.73550  0.31406  0.77765  1.0000
  C   C1526     1.0  0.67730  0.22436  0.78161  1.0000
  H   H2720     1.0  0.71174  0.21177  0.77165  1.0000
  H   H2721     1.0  0.85781  0.12213  0.84112  1.0000
  H   H2722     1.0  0.75378  0.29567  0.73907  1.0000
  S   S343      1.0  0.82986  0.30247  0.78415  1.0000
  S   S344      1.0  0.98335  0.05219  0.86685  1.0000
  C   C1527     1.0  0.85856  0.13913  0.83439  1.0000
  H   H2723     1.0  0.82314  0.15242  0.84348  1.0000
  H   H2724     1.0  0.51598  0.25820  0.75027  1.0000
  C   C1528     1.0  0.66366  0.22065  0.74209  1.0000
  H   H2725     1.0  0.88122  0.17834  0.82309  1.0000
  H   H2726     1.0  0.87494  0.19276  0.73892  1.0000
  H   H2727     1.0  0.73811  0.31176  0.82357  1.0000
  H   H2728     1.0  0.84009  0.19648  0.75454  1.0000
  H   H2729     1.0  0.66539  0.14981  0.77864  1.0000
  C   C1529     1.0  0.87310  0.13521  0.82027  1.0000
  C   C1530     1.0  0.90397  0.10870  0.83116  1.0000
  C   C1531     1.0  0.84149  0.14606  0.95773  1.0000
  H   H2730     1.0  0.94033  0.00559  0.97412  1.0000
  S   S345      1.0  0.65283  0.28341  0.76262  1.0000
  H   H2731     1.0  0.68268  0.24029  0.78306  1.0000
  C   C1532     1.0  0.93361  0.22380  0.97372  1.0000
  S   S346      1.0  0.87355  0.30011  0.80103  1.0000
  C   C1533     1.0  0.89820  0.17354  0.81650  1.0000
  H   H2732     1.0  0.56556  0.23065  0.74253  1.0000
  H   H2733     1.0  0.94917  0.09739  0.91291  1.0000
  H   H2734     1.0  0.97984  0.00381  0.95955  1.0000
  H   H2735     1.0  0.86876  0.12043  0.89351  1.0000
  H   H2736     1.0  0.84747  0.16227  0.95224  1.0000
  H   H2737     1.0  0.93416  0.11856  0.78001  1.0000
  C   C1534     1.0  0.91315  0.19124  0.81678  1.0000
  H   H2738     1.0  0.50760  0.08843  0.75219  1.0000
  H   H2739     1.0  0.66435  0.21914  0.79056  1.0000
  C   C1535     1.0  0.66747  0.19716  0.74101  1.0000
  H   H2740     1.0  0.94949  0.99083  0.95146  1.0000
  H   H2741     1.0  0.75107  0.19686  0.73458  1.0000
  C   C1536     1.0  0.90628  0.13783  0.79325  1.0000
  H   H2742     1.0  0.91024  0.14813  0.83281  1.0000
  H   H2743     1.0  0.97648  0.26754  0.90165  1.0000
  H   H2744     1.0  0.90381  0.20900  0.81327  1.0000
  C   C1537     1.0  0.96610  0.28482  0.90345  1.0000
  C   C1538     1.0  0.91004  0.14846  0.82179  1.0000
  H   H2745     1.0  0.91645  0.19051  0.82729  1.0000
  C   C1539     1.0  0.73097  0.17984  0.75239  1.0000
  H   H2746     1.0  0.83262  0.24204  0.74963  1.0000
  Fe  Fe172     1.0  0.95459  0.03148  0.87402  1.0000
  H   H2747     1.0  0.90394  0.10440  0.80591  1.0000
  H   H2748     1.0  0.76826  0.17454  0.74519  1.0000
  H   H2749     1.0  0.97774  0.29784  0.90006  1.0000
  H   H2750     1.0  0.92878  0.14608  0.81703  1.0000
  C   C1540     1.0  0.54625  0.23307  0.74434  1.0000
  H   H2751     1.0  0.97604  0.28162  0.74300  1.0000
  H   H2752     1.0  0.89490  0.23426  0.74738  1.0000
  H   H2753     1.0  0.91374  0.20391  0.73730  1.0000
  C   C1541     1.0  0.50788  0.23483  0.77691  1.0000
  H   H2754     1.0  0.51488  0.19702  0.78185  1.0000
  H   H2755     1.0  0.65244  0.16924  0.73828  1.0000
  H   H2756     1.0  0.88422  0.99448  0.86334  1.0000
  H   H2757     1.0  0.80372  0.30361  0.73415  1.0000
  C   C1542     1.0  0.87135  0.31590  0.88695  1.0000
  Fe  Fe173     1.0  0.63588  0.31073  0.74713  1.0000
  C   C1543     1.0  0.49980  0.12512  0.74352  1.0000
  S   S347      1.0  0.60510  0.18879  0.73487  1.0000
  C   C1544     1.0  0.92833  0.07606  0.73908  1.0000
  H   H2758     1.0  0.73957  0.30334  0.76977  1.0000
  H   H2759     1.0  0.78023  0.31157  0.74706  1.0000
  H   H2760     1.0  0.50087  0.17794  0.76461  1.0000
  H   H2761     1.0  0.50196  0.23441  0.76725  1.0000
  C   C1545     1.0  0.50422  0.21220  0.78637  1.0000
  C   C1546     1.0  0.89021  0.31667  0.75467  1.0000
  C   C1547     1.0  0.89386  0.30773  0.89350  1.0000
  C   C1548     1.0  0.78884  0.31778  0.73658  1.0000
  H   H2762     1.0  0.77175  0.31512  0.77793  1.0000
  H   H2763     1.0  0.75764  0.25360  0.73682  1.0000
  H   H2764     1.0  0.92323  0.31245  0.90938  1.0000
  H   H2765     1.0  0.92173  0.06212  0.73604  1.0000
  H   H2766     1.0  0.83866  0.30506  0.88724  1.0000
  C   C1549     1.0  0.93033  0.31474  0.89829  1.0000
  S   S348      1.0  0.68936  0.30767  0.78128  1.0000
  C   C1550     1.0  0.71217  0.32031  0.78383  1.0000
  H   H2767     1.0  0.99307  0.18041  0.96026  1.0000
  C   C1551     1.0  0.75374  0.32053  0.78236  1.0000
  S   S349      1.0  0.59620  0.32090  0.75025  1.0000
  H   H2768     1.0  0.49655  0.24920  0.78188  1.0000
  C   C1552     1.0  0.99372  0.23144  0.97328  1.0000
  H   H2769     1.0  0.87573  0.31657  0.87574  1.0000
  C   C1553     1.0  0.85128  0.98933  0.87533  1.0000
  H   H2770     1.0  0.94936  0.98816  0.83388  1.0000
  H   H2771     1.0  0.82930  0.31779  0.74670  1.0000
  H   H2772     1.0  0.92533  0.31992  0.77163  1.0000
  H   H2773     1.0  0.98312  0.23827  0.98246  1.0000
  C   C1554     1.0  0.53949  0.32058  0.73342  1.0000
  Fe  Fe174     1.0  0.63434  0.61600  0.17345  1.0000
  S   S350      1.0  0.63471  0.62076  0.19471  1.0000
  H   H2774     1.0  0.69268  0.48057  0.12699  1.0000
  C   C1555     1.0  0.83025  0.60097  0.20354  1.0000
  H   H2775     1.0  0.94238  0.56237  0.05584  1.0000
  N   N85       1.0  0.70624  0.64384  0.20141  1.0000
  H   H2776     1.0  0.70656  0.63505  0.14020  1.0000
  H   H2777     1.0  0.70996  0.57113  0.13855  1.0000
  S   S351      1.0  0.95121  0.33868  0.01242  1.0000
  H   H2778     1.0  0.89794  0.48541  0.14035  1.0000
  Fe  Fe175     1.0  0.79809  0.58232  0.14719  1.0000
  S   S352      1.0  0.82895  0.55819  0.13768  1.0000
  S   S353      1.0  0.76480  0.57021  0.15825  1.0000
  Fe  Fe176     1.0  0.82615  0.62027  0.14479  1.0000
  S   S354      1.0  0.85947  0.59951  0.13537  1.0000
  H   H2779     1.0  0.94683  0.46491  0.09242  1.0000
  Fe  Fe177     1.0  0.83685  0.58961  0.12277  1.0000
  S   S355      1.0  0.85253  0.58930  0.10040  1.0000
  Fe  Fe178     1.0  0.84937  0.56962  0.15075  1.0000
  S   S356      1.0  0.87422  0.54159  0.16157  1.0000
  S   S357      1.0  0.80384  0.61306  0.13107  1.0000
  S   S358      1.0  0.81819  0.59109  0.16136  1.0000
  Fe  Fe179     1.0  0.92733  0.46505  0.03061  1.0000
  S   S359      1.0  0.90536  0.50035  0.03280  1.0000
  S   S360      1.0  0.91731  0.44630  0.01576  1.0000
  Fe  Fe180     1.0  0.96228  0.47219  0.04717  1.0000
  S   S361      1.0  0.94344  0.50801  0.05032  1.0000
  H   H2780     1.0  0.71047  0.55879  0.12398  1.0000
  Fe  Fe181     1.0  0.91108  0.49249  0.05473  1.0000
  S   S362      1.0  0.88241  0.49786  0.07305  1.0000
  Fe  Fe182     1.0  0.93958  0.51257  0.02825  1.0000
  S   S363      1.0  0.94914  0.54327  0.01295  1.0000
  S   S364      1.0  0.93019  0.45595  0.05294  1.0000
  S   S365      1.0  0.96117  0.47801  0.02477  1.0000
  C   C1556     1.0  0.93392  0.55188  0.99905  1.0000
  C   C1557     1.0  0.86914  0.54925  0.22269  1.0000
  H   H2781     1.0  0.91249  0.41839  0.99678  1.0000
  H   H2782     1.0  0.85698  0.47975  0.14520  1.0000
  H   H2783     1.0  0.71499  0.56301  0.20287  1.0000
  C   C1558     1.0  0.91199  0.54635  0.99965  1.0000
  H   H2784     1.0  0.95036  0.62888  0.15880  1.0000
  H   H2785     1.0  0.84899  0.50468  0.13267  1.0000
  C   C1559     1.0  0.90897  0.57754  0.17859  1.0000
  H   H2786     1.0  0.90432  0.53599  0.00866  1.0000
  Fe  Fe183     1.0  0.58972  0.59495  0.18183  1.0000
  C   C1560     1.0  0.86190  0.56293  0.09377  1.0000
  C   C1561     1.0  0.84976  0.54452  0.09823  1.0000
  C   C1562     1.0  0.85641  0.52454  0.09191  1.0000
  C   C1563     1.0  0.87559  0.52255  0.08133  1.0000
  C   C1564     1.0  0.88860  0.54031  0.07749  1.0000
  C   C1565     1.0  0.88133  0.56075  0.08334  1.0000
  H   H2787     1.0  0.83472  0.54602  0.10621  1.0000
  H   H2788     1.0  0.84643  0.51072  0.09509  1.0000
  H   H2789     1.0  0.90416  0.53822  0.06995  1.0000
  H   H2790     1.0  0.89100  0.57478  0.07995  1.0000
  C   C1566     1.0  0.89274  0.57229  0.17172  1.0000
  N   N86       1.0  0.83660  0.57582  0.20981  1.0000
  H   H2791     1.0  0.50852  0.62571  0.09823  1.0000
  H   H2792     1.0  0.84878  0.62669  0.03277  1.0000
  C   C1567     1.0  0.91118  0.53180  0.17508  1.0000
  S   S366      1.0  0.90495  0.61180  0.21042  1.0000
  H   H2793     1.0  0.68770  0.59910  0.20274  1.0000
  C   C1568     1.0  0.94270  0.36884  0.01277  1.0000
  C   C1569     1.0  0.94820  0.37815  0.02321  1.0000
  C   C1570     1.0  0.94094  0.40194  0.02412  1.0000
  C   C1571     1.0  0.92790  0.41655  0.01465  1.0000
  C   C1572     1.0  0.92267  0.40729  0.00410  1.0000
  C   C1573     1.0  0.93014  0.38356  0.00311  1.0000
  Fe  Fe184     1.0  0.94785  0.32220  0.99463  1.0000
  H   H2794     1.0  0.94502  0.40887  0.03230  1.0000
  H   H2795     1.0  0.69435  0.61930  0.21867  1.0000
  C   C1574     1.0  0.85863  0.48643  0.00327  1.0000
  C   C1575     1.0  0.69138  0.61391  0.15805  1.0000
  C   C1576     1.0  0.69590  0.59520  0.16841  1.0000
  C   C1577     1.0  0.71870  0.58240  0.16853  1.0000
  C   C1578     1.0  0.73721  0.58856  0.15853  1.0000
  C   C1579     1.0  0.73293  0.60804  0.14855  1.0000
  C   C1580     1.0  0.70999  0.62054  0.14824  1.0000
  H   H2796     1.0  0.68170  0.59007  0.17607  1.0000
  H   H2797     1.0  0.72190  0.56735  0.17627  1.0000
  H   H2798     1.0  0.74710  0.61289  0.14078  1.0000
  H   H2799     1.0  0.81946  0.63756  0.05234  1.0000
  H   H2800     1.0  0.97022  0.50179  0.14196  1.0000
  C   C1581     1.0  0.92787  0.53716  0.18137  1.0000
  H   H2801     1.0  0.82956  0.61221  0.21126  1.0000
  H   H2802     1.0  0.88245  0.55101  0.98924  1.0000
  C   C1582     1.0  0.89387  0.54933  0.17001  1.0000
  S   S367      1.0  0.94487  0.57563  0.22710  1.0000
  C   C1583     1.0  0.67525  0.52802  0.16789  1.0000
  H   H2803     1.0  0.87962  0.58593  0.16759  1.0000
  H   H2804     1.0  0.68393  0.63727  0.18849  1.0000
  H   H2805     1.0  0.96098  0.58082  0.04480  1.0000
  H   H2806     1.0  0.67575  0.50989  0.16663  1.0000
  H   H2807     1.0  0.85886  0.50817  0.14786  1.0000
  C   C1584     1.0  0.70638  0.60046  0.20169  1.0000
  H   H2808     1.0  0.91207  0.51404  0.17382  1.0000
  C   C1585     1.0  0.92685  0.55998  0.18317  1.0000
  S   S368      1.0  0.58697  0.59754  0.20400  1.0000
  C   C1586     1.0  0.86127  0.49682  0.14002  1.0000
  H   H2809     1.0  0.90016  0.60866  0.99228  1.0000
  Fe  Fe185     1.0  0.96153  0.60632  0.22634  1.0000
  H   H2810     1.0  0.84946  0.49910  0.01015  1.0000
  H   H2811     1.0  0.52764  0.56304  0.16587  1.0000
  H   H2812     1.0  0.88352  0.61497  0.04355  1.0000
  H   H2813     1.0  0.93701  0.62200  0.17627  1.0000
  H   H2814     1.0  0.49822  0.55612  0.20124  1.0000
  H   H2815     1.0  0.82675  0.57608  0.23157  1.0000
  C   C1587     1.0  0.95227  0.50542  0.14776  1.0000
  H   H2816     1.0  0.66312  0.52073  0.18970  1.0000
  H   H2817     1.0  0.87406  0.57118  0.20315  1.0000
  H   H2818     1.0  0.90068  0.52891  0.22984  1.0000
  H   H2819     1.0  0.95907  0.49674  0.10027  1.0000
  N   N87       1.0  0.91745  0.51617  0.11729  1.0000
  C   C1588     1.0  0.89290  0.51702  0.12506  1.0000
  C   C1589     1.0  0.92067  0.54013  0.10990  1.0000
  H   H2820     1.0  0.77338  0.54907  0.12791  1.0000
  C   C1590     1.0  0.93560  0.50610  0.12644  1.0000
  C   C1591     1.0  0.93511  0.51910  0.13832  1.0000
  H   H2821     1.0  0.90126  0.55936  0.22468  1.0000
  C   C1592     1.0  0.90733  0.56124  0.11689  1.0000
  C   C1593     1.0  0.91481  0.58375  0.10913  1.0000
  H   H2822     1.0  0.84178  0.64528  0.19443  1.0000
  H   H2823     1.0  0.88012  0.52482  0.11795  1.0000
  H   H2824     1.0  0.93957  0.54117  0.10746  1.0000
  H   H2825     1.0  0.91445  0.54353  0.09990  1.0000
  C   C1594     1.0  0.63687  0.59757  0.22941  1.0000
  H   H2826     1.0  0.67319  0.58973  0.13748  1.0000
  H   H2827     1.0  0.78671  0.58419  0.21497  1.0000
  C   C1595     1.0  0.50044  0.61498  0.18500  1.0000
  H   H2828     1.0  0.94063  0.53604  0.13426  1.0000
  H   H2829     1.0  0.88794  0.48130  0.12538  1.0000
  Fe  Fe186     1.0  0.91041  0.59912  0.23215  1.0000
  C   C1596     1.0  0.94767  0.57015  0.04508  1.0000
  H   H2830     1.0  0.88829  0.56325  0.11695  1.0000
  H   H2831     1.0  0.90993  0.55940  0.12759  1.0000
  H   H2832     1.0  0.91128  0.58688  0.09848  1.0000
  H   H2833     1.0  0.90470  0.59859  0.11416  1.0000
  H   H2834     1.0  0.93369  0.58300  0.10904  1.0000
  H   H2835     1.0  0.94681  0.48879  0.15288  1.0000
  H   H2836     1.0  0.84820  0.56346  0.19037  1.0000
  H   H2837     1.0  0.96204  0.51138  0.98941  1.0000
  H   H2838     1.0  0.72866  0.64062  0.22485  1.0000
  H   H2839     1.0  0.90818  0.59521  0.17990  1.0000
  N   N88       1.0  0.88517  0.58437  0.03466  1.0000
  C   C1597     1.0  0.87047  0.56686  0.03428  1.0000
  C   C1598     1.0  0.89208  0.59694  0.02041  1.0000
  C   C1599     1.0  0.90724  0.57112  0.03986  1.0000
  C   C1600     1.0  0.87312  0.60124  0.04432  1.0000
  C   C1601     1.0  0.86357  0.55137  0.04801  1.0000
  C   C1602     1.0  0.92664  0.58534  0.03915  1.0000
  C   C1603     1.0  0.84594  0.53691  0.04685  1.0000
  C   C1604     1.0  0.87920  0.49571  0.99389  1.0000
  H   H2840     1.0  0.87997  0.55496  0.02695  1.0000
  H   H2841     1.0  0.85409  0.57535  0.03029  1.0000
  H   H2842     1.0  0.89691  0.61375  0.02086  1.0000
  H   H2843     1.0  0.90812  0.58667  0.01514  1.0000
  H   H2844     1.0  0.91503  0.55624  0.03431  1.0000
  H   H2845     1.0  0.90322  0.56333  0.05069  1.0000
  H   H2846     1.0  0.87236  0.59236  0.05510  1.0000
  H   H2847     1.0  0.83642  0.60207  0.04243  1.0000
  H   H2848     1.0  0.87921  0.53903  0.05104  1.0000
  H   H2849     1.0  0.85567  0.56182  0.05625  1.0000
  H   H2850     1.0  0.92014  0.59982  0.04510  1.0000
  H   H2851     1.0  0.93303  0.59260  0.02847  1.0000
  H   H2852     1.0  0.85679  0.61024  0.01470  1.0000
  C   C1605     1.0  0.89560  0.54435  0.22222  1.0000
  C   C1606     1.0  0.88649  0.49349  0.13261  1.0000
  H   H2853     1.0  0.85316  0.52580  0.03883  1.0000
  H   H2854     1.0  0.84205  0.52543  0.05672  1.0000
  H   H2855     1.0  0.82938  0.54832  0.04442  1.0000
  S   S369      1.0  0.96036  0.61868  0.20411  1.0000
  H   H2856     1.0  0.82156  0.64073  0.18436  1.0000
  H   H2857     1.0  0.69446  0.51688  0.18509  1.0000
  H   H2858     1.0  0.95789  0.36687  0.03072  1.0000
  H   H2859     1.0  0.92254  0.50525  0.98743  1.0000
  Fe  Fe187     1.0  0.92518  0.63905  0.21131  1.0000
  S   S370      1.0  0.66250  0.62827  0.15674  1.0000
  C   C1607     1.0  0.76956  0.63791  0.18006  1.0000
  C   C1608     1.0  0.86129  0.57175  0.21278  1.0000
  C   C1609     1.0  0.97018  0.49722  0.98337  1.0000
  H   H2860     1.0  0.89872  0.46163  0.99086  1.0000
  C   C1610     1.0  0.70730  0.48951  0.12165  1.0000
  S   S371      1.0  0.64703  0.56067  0.21574  1.0000
  H   H2861     1.0  0.86509  0.60630  0.19215  1.0000
  H   H2862     1.0  0.66872  0.64607  0.20410  1.0000
  H   H2863     1.0  0.69516  0.55547  0.16045  1.0000
  H   H2864     1.0  0.71431  0.50542  0.14353  1.0000
  Fe  Fe188     1.0  0.94039  0.59026  0.20540  1.0000
  C   C1611     1.0  0.75512  0.55715  0.12655  1.0000
  H   H2865     1.0  0.95258  0.51573  0.15572  1.0000
  C   C1612     1.0  0.52475  0.60710  0.18323  1.0000
  N   N89       1.0  0.69428  0.54045  0.14288  1.0000
  H   H2866     1.0  0.87251  0.58499  0.00767  1.0000
  H   H2867     1.0  0.61657  0.64619  0.21925  1.0000
  H   H2868     1.0  0.62491  0.57597  0.14755  1.0000
  Fe  Fe189     1.0  0.59610  0.63276  0.19597  1.0000
  H   H2869     1.0  0.74175  0.54063  0.14642  1.0000
  H   H2870     1.0  0.74971  0.61240  0.19096  1.0000
  H   H2871     1.0  0.66248  0.57710  0.15450  1.0000
  H   H2872     1.0  0.75350  0.55829  0.11569  1.0000
  H   H2873     1.0  0.93387  0.47494  0.99040  1.0000
  C   C1613     1.0  0.73831  0.54252  0.13585  1.0000
  C   C1614     1.0  0.83629  0.55961  0.20012  1.0000
  H   H2874     1.0  0.71307  0.60464  0.19069  1.0000
  H   H2875     1.0  0.83560  0.61637  0.06397  1.0000
  S   S372      1.0  0.82163  0.65320  0.15349  1.0000
  H   H2876     1.0  0.54059  0.64625  0.15795  1.0000
  H   H2877     1.0  0.84350  0.54145  0.20427  1.0000
  H   H2878     1.0  0.88328  0.63429  0.99894  1.0000
  S   S373      1.0  0.56535  0.57873  0.17332  1.0000
  H   H2879     1.0  0.52507  0.64094  0.13792  1.0000
  C   C1615     1.0  0.67070  0.55295  0.13945  1.0000
  C   C1616     1.0  0.92069  0.50044  0.10674  1.0000
  H   H2880     1.0  0.85149  0.64169  0.17684  1.0000
  H   H2881     1.0  0.86431  0.53380  0.22026  1.0000
  C   C1617     1.0  0.49563  0.58544  0.17308  1.0000
  H   H2882     1.0  0.95344  0.50557  0.12047  1.0000
  C   C1618     1.0  0.83721  0.62810  0.05399  1.0000
  C   C1619     1.0  0.67245  0.57041  0.23321  1.0000
  C   C1620     1.0  0.70830  0.61969  0.20953  1.0000
  C   C1621     1.0  0.71252  0.55416  0.13492  1.0000
  H   H2883     1.0  0.79374  0.60245  0.22484  1.0000
  H   H2884     1.0  0.82060  0.55193  0.22599  1.0000
  H   H2885     1.0  0.65783  0.53836  0.16632  1.0000
  C   C1622     1.0  0.65238  0.57711  0.22700  1.0000
  H   H2886     1.0  0.97401  0.48070  0.99048  1.0000
  H   H2887     1.0  0.75554  0.63089  0.20131  1.0000
  H   H2888     1.0  0.81255  0.60485  0.20069  1.0000
  H   H2889     1.0  0.72482  0.61448  0.21379  1.0000
  C   C1623     1.0  0.72621  0.64640  0.18969  1.0000
  H   H2890     1.0  0.89057  0.49868  0.00062  1.0000
  H   H2891     1.0  0.72186  0.64270  0.18019  1.0000
  H   H2892     1.0  0.91931  0.62868  0.16294  1.0000
  H   H2893     1.0  0.71184  0.52739  0.16043  1.0000
  C   C1624     1.0  0.88258  0.61678  0.99705  1.0000
  H   H2894     1.0  0.74269  0.52511  0.13275  1.0000
  H   H2895     1.0  0.87215  0.51254  0.98796  1.0000
  H   H2896     1.0  0.51193  0.53849  0.21510  1.0000
  C   C1625     1.0  0.94293  0.50074  0.09567  1.0000
  H   H2897     1.0  0.63142  0.60477  0.14407  1.0000
  H   H2898     1.0  0.98174  0.53964  0.20969  1.0000
  H   H2899     1.0  0.67689  0.54574  0.18456  1.0000
  H   H2900     1.0  0.93466  0.48765  0.13073  1.0000
  H   H2901     1.0  0.90539  0.50484  0.10124  1.0000
  H   H2902     1.0  0.53581  0.61560  0.18715  1.0000
  C   C1626     1.0  0.72007  0.57675  0.20704  1.0000
  C   C1627     1.0  0.94513  0.48269  0.08645  1.0000
  H   H2903     1.0  0.76507  0.63802  0.16989  1.0000
  H   H2904     1.0  0.92572  0.37655  0.99507  1.0000
  H   H2905     1.0  0.84542  0.60132  0.18194  1.0000
  H   H2906     1.0  0.86494  0.46975  0.00967  1.0000
  H   H2907     1.0  0.94231  0.51791  0.08903  1.0000
  H   H2908     1.0  0.68432  0.55439  0.23147  1.0000
  H   H2909     1.0  0.67086  0.55553  0.12826  1.0000
  C   C1628     1.0  0.70209  0.51479  0.12393  1.0000
  C   C1629     1.0  0.84818  0.61417  0.04241  1.0000
  C   C1630     1.0  0.89968  0.55475  0.98863  1.0000
  Fe  Fe190     1.0  0.62590  0.58523  0.20089  1.0000
  H   H2910     1.0  0.88914  0.52862  0.13285  1.0000
  H   H2911     1.0  0.71684  0.52297  0.11805  1.0000
  H   H2912     1.0  0.70948  0.48885  0.11058  1.0000
  C   C1631     1.0  0.84666  0.60972  0.19055  1.0000
  H   H2913     1.0  0.95584  0.55606  0.03899  1.0000
  C   C1632     1.0  0.87431  0.60161  0.01036  1.0000
  H   H2914     1.0  0.91760  0.52190  0.14461  1.0000
  C   C1633     1.0  0.75029  0.63063  0.19146  1.0000
  S   S374      1.0  0.62820  0.57936  0.17942  1.0000
  H   H2915     1.0  0.94169  0.52357  0.18483  1.0000
  C   C1634     1.0  0.53471  0.58846  0.17623  1.0000
  H   H2916     1.0  0.68605  0.52345  0.11961  1.0000
  H   H2917     1.0  0.92137  0.48205  0.11173  1.0000
  C   C1635     1.0  0.93434  0.63302  0.16631  1.0000
  S   S375      1.0  0.94948  0.56597  0.19004  1.0000
  C   C1636     1.0  0.52004  0.57758  0.17123  1.0000
  C   C1637     1.0  0.83986  0.63596  0.18635  1.0000
  H   H2918     1.0  0.87027  0.61867  0.98977  1.0000
  H   H2919     1.0  0.80390  0.57633  0.19199  1.0000
  H   H2920     1.0  0.80062  0.55266  0.20606  1.0000
  H   H2921     1.0  0.82038  0.52378  0.19183  1.0000
  C   C1638     1.0  0.81221  0.55894  0.19672  1.0000
  C   C1639     1.0  0.81440  0.54182  0.18690  1.0000
  C   C1640     1.0  0.67768  0.52784  0.18268  1.0000
  C   C1641     1.0  0.66209  0.57742  0.14359  1.0000
  H   H2922     1.0  0.79715  0.54289  0.18386  1.0000
  H   H2923     1.0  0.82703  0.54577  0.17754  1.0000
  H   H2924     1.0  0.75158  0.57493  0.12916  1.0000
  C   C1642     1.0  0.69511  0.53835  0.15786  1.0000
  H   H2925     1.0  0.68401  0.50737  0.14439  1.0000
  S   S376      1.0  0.59611  0.63127  0.17398  1.0000
  C   C1643     1.0  0.63697  0.58715  0.14118  1.0000
  H   H2926     1.0  0.78617  0.62542  0.18105  1.0000
  H   H2927     1.0  0.63560  0.58852  0.13026  1.0000
  C   C1644     1.0  0.69879  0.51632  0.13934  1.0000
  H   H2928     1.0  0.65709  0.54221  0.14397  1.0000
  C   C1645     1.0  0.94375  0.56522  0.98730  1.0000
  H   H2929     1.0  0.92963  0.48614  0.08125  1.0000
  H   H2930     1.0  0.72370  0.48014  0.12542  1.0000
  C   C1646     1.0  0.68356  0.64920  0.19576  1.0000
  H   H2931     1.0  0.50684  0.63008  0.12216  1.0000
  H   H2932     1.0  0.51312  0.56899  0.21095  1.0000
  C   C1647     1.0  0.51315  0.64210  0.14776  1.0000
  H   H2933     1.0  0.84601  0.48369  0.99723  1.0000
  C   C1648     1.0  0.50200  0.55593  0.21159  1.0000
  H   H2934     1.0  0.86389  0.58644  0.21728  1.0000
  H   H2935     1.0  0.51354  0.62439  0.15364  1.0000
  H   H2936     1.0  0.96061  0.56964  0.98685  1.0000
  H   H2937     1.0  0.86016  0.62265  0.23069  1.0000
  H   H2938     1.0  0.71642  0.57302  0.21832  1.0000
  H   H2939     1.0  0.84795  0.64100  0.05438  1.0000
  H   H2940     1.0  0.81810  0.63948  0.23063  1.0000
  H   H2941     1.0  0.62107  0.60259  0.22492  1.0000
  H   H2942     1.0  0.96093  0.48342  0.07854  1.0000
  C   C1649     1.0  0.49778  0.64344  0.09696  1.0000
  C   C1650     1.0  0.89262  0.47821  0.98428  1.0000
  H   H2943     1.0  0.73912  0.57618  0.20380  1.0000
  C   C1651     1.0  0.82040  0.57094  0.22314  1.0000
  H   H2944     1.0  0.90478  0.54090  0.21195  1.0000
  C   C1652     1.0  0.79458  0.58403  0.22401  1.0000
  H   H2945     1.0  0.99421  0.50203  0.03959  1.0000
  H   H2946     1.0  0.99381  0.50614  0.00302  1.0000
  H   H2947     1.0  0.60741  0.56641  0.27106  1.0000
  H   H2948     1.0  0.68503  0.59878  0.31713  1.0000
  S   S377      1.0  0.60995  0.34836  0.44974  1.0000
  H   H2949     1.0  0.70292  0.56939  0.35106  1.0000
  C   C1653     1.0  0.70224  0.34369  0.44370  1.0000
  C   C1654     1.0  0.68589  0.62217  0.33098  1.0000
  C   C1655     1.0  0.50429  0.65248  0.45215  1.0000
  H   H2950     1.0  0.70228  0.52993  0.46697  1.0000
  H   H2951     1.0  0.67037  0.55114  0.26158  1.0000
  H   H2952     1.0  0.63965  0.62661  0.27997  1.0000
  H   H2953     1.0  0.58265  0.54968  0.47625  1.0000
  C   C1656     1.0  0.82331  0.62535  0.23853  1.0000
  H   H2954     1.0  0.56634  0.56466  0.41517  1.0000
  H   H2955     1.0  0.62949  0.62738  0.23962  1.0000
  H   H2956     1.0  0.55982  0.64807  0.45773  1.0000
  H   H2957     1.0  0.55014  0.47761  0.46776  1.0000
  S   S378      1.0  0.88351  0.58503  0.24884  1.0000
  C   C1657     1.0  0.52520  0.55549  0.43437  1.0000
  H   H2958     1.0  0.50011  0.61292  0.43080  1.0000
  H   H2959     1.0  0.63303  0.52285  0.28950  1.0000
  H   H2960     1.0  0.84622  0.64609  0.27999  1.0000
  Fe  Fe191     1.0  0.65595  0.47651  0.39126  1.0000
  S   S379      1.0  0.67767  0.44119  0.39656  1.0000
  Fe  Fe192     1.0  0.64811  0.52656  0.39549  1.0000
  S   S380      1.0  0.61730  0.53733  0.38448  1.0000
  S   S381      1.0  0.66307  0.55077  0.40435  1.0000
  Fe  Fe193     1.0  0.63938  0.51563  0.36912  1.0000
  S   S382      1.0  0.63755  0.52961  0.34680  1.0000
  S   S383      1.0  0.63579  0.49515  0.40825  1.0000
  S   S384      1.0  0.67111  0.50723  0.37937  1.0000
  S   S385      1.0  0.54888  0.32978  0.46341  1.0000
  S   S386      1.0  0.72887  0.58786  0.26452  1.0000
  Fe  Fe194     1.0  0.61060  0.61243  0.46522  1.0000
  S   S387      1.0  0.64807  0.61211  0.46612  1.0000
  S   S388      1.0  0.59434  0.60442  0.44872  1.0000
  C   C1658     1.0  0.70791  0.43544  0.47059  1.0000
  H   H2961     1.0  0.49738  0.59002  0.44512  1.0000
  Fe  Fe195     1.0  0.72212  0.58591  0.28747  1.0000
  N   N90       1.0  0.64117  0.55544  0.27793  1.0000
  C   C1659     1.0  0.60174  0.53282  0.31155  1.0000
  H   H2962     1.0  0.64511  0.53861  0.29846  1.0000
  H   H2963     1.0  0.70136  0.45421  0.46747  1.0000
  H   H2964     1.0  0.61176  0.55357  0.24346  1.0000
  C   C1660     1.0  0.62390  0.53563  0.26243  1.0000
  H   H2965     1.0  0.72560  0.60097  0.31697  1.0000
  C   C1661     1.0  0.50151  0.34111  0.42255  1.0000
  H   H2966     1.0  0.57066  0.60464  0.40445  1.0000
  H   H2967     1.0  0.62568  0.35630  0.34983  1.0000
  H   H2968     1.0  0.61807  0.52259  0.27109  1.0000
  H   H2969     1.0  0.73406  0.43801  0.41532  1.0000
  H   H2970     1.0  0.56005  0.60080  0.38955  1.0000
  C   C1662     1.0  0.53044  0.48811  0.40479  1.0000
  H   H2971     1.0  0.71492  0.57952  0.32967  1.0000
  H   H2972     1.0  0.62140  0.53075  0.47971  1.0000
  H   H2973     1.0  0.53193  0.51838  0.43280  1.0000
  H   H2974     1.0  0.59708  0.36500  0.34471  1.0000
  C   C1663     1.0  0.61519  0.36848  0.34257  1.0000
  H   H2975     1.0  0.68899  0.37406  0.43023  1.0000
  H   H2976     1.0  0.67302  0.63102  0.33879  1.0000
  H   H2977     1.0  0.74794  0.57778  0.34271  1.0000
  H   H2978     1.0  0.58887  0.48442  0.33586  1.0000
  C   C1664     1.0  0.62553  0.55812  0.26739  1.0000
  C   C1665     1.0  0.55236  0.43370  0.47950  1.0000
  Fe  Fe196     1.0  0.74803  0.61666  0.26442  1.0000
  H   H2979     1.0  0.68717  0.56044  0.37520  1.0000
  H   H2980     1.0  0.79996  0.59151  0.26669  1.0000
  S   S389      1.0  0.99138  0.60658  0.23727  1.0000
  C   C1666     1.0  0.52897  0.36148  0.42832  1.0000
  H   H2981     1.0  0.68236  0.53256  0.29057  1.0000
  H   H2982     1.0  0.52846  0.46261  0.43376  1.0000
  N   N91       1.0  0.50343  0.36183  0.42846  1.0000
  H   H2983     1.0  0.98710  0.55283  0.27278  1.0000
  H   H2984     1.0  0.58703  0.58343  0.39412  1.0000
  C   C1667     1.0  0.74867  0.58484  0.33170  1.0000
  H   H2985     1.0  0.63335  0.39642  0.34111  1.0000
  H   H2986     1.0  0.68785  0.51560  0.34714  1.0000
  H   H2987     1.0  0.68754  0.56008  0.28084  1.0000
  C   C1668     1.0  0.69149  0.38464  0.44958  1.0000
  C   C1669     1.0  0.68510  0.52717  0.33773  1.0000
  C   C1670     1.0  0.72376  0.59458  0.32816  1.0000
  C   C1671     1.0  0.66221  0.60566  0.24331  1.0000
  C   C1672     1.0  0.67765  0.58496  0.24116  1.0000
  C   C1673     1.0  0.66513  0.54312  0.27227  1.0000
  H   H2988     1.0  0.68387  0.52891  0.43199  1.0000
  Fe  Fe197     1.0  0.71073  0.63780  0.28620  1.0000
  H   H2989     1.0  0.56557  0.39644  0.43373  1.0000
  H   H2990     1.0  0.69356  0.58027  0.24554  1.0000
  H   H2991     1.0  0.51306  0.46108  0.45778  1.0000
  C   C1674     1.0  0.69577  0.57579  0.37161  1.0000
  H   H2992     1.0  0.52983  0.39899  0.42419  1.0000
  C   C1675     1.0  0.66234  0.53652  0.33520  1.0000
  C   C1676     1.0  0.61512  0.39361  0.34375  1.0000
  H   H2993     1.0  0.54830  0.64755  0.44308  1.0000
  C   C1677     1.0  0.67828  0.55683  0.31323  1.0000
  C   C1678     1.0  0.65904  0.55128  0.32288  1.0000
  H   H2994     1.0  0.72088  0.42956  0.45017  1.0000
  H   H2995     1.0  0.53474  0.43133  0.43627  1.0000
  H   H2996     1.0  0.64150  0.55867  0.32089  1.0000
  C   C1679     1.0  0.64373  0.56547  0.41668  1.0000
  C   C1680     1.0  0.62008  0.56378  0.41959  1.0000
  C   C1681     1.0  0.60498  0.57587  0.42945  1.0000
  C   C1682     1.0  0.61359  0.58921  0.43660  1.0000
  C   C1683     1.0  0.63729  0.59054  0.43384  1.0000
  C   C1684     1.0  0.65228  0.57886  0.42380  1.0000
  H   H2997     1.0  0.61343  0.55338  0.41415  1.0000
  H   H2998     1.0  0.58666  0.57479  0.43162  1.0000
  H   H2999     1.0  0.64397  0.60101  0.43921  1.0000
  H   H3000     1.0  0.67056  0.58020  0.42155  1.0000
  H   H3001     1.0  0.69674  0.33128  0.43866  1.0000
  Fe  Fe198     1.0  0.69685  0.61573  0.26512  1.0000
  C   C1685     1.0  0.70100  0.54717  0.31556  1.0000
  H   H3002     1.0  0.72336  0.38888  0.42554  1.0000
  H   H3003     1.0  0.57677  0.49218  0.37938  1.0000
  C   C1686     1.0  0.85390  0.59751  0.24866  1.0000
  C   C1687     1.0  0.83684  0.58884  0.25884  1.0000
  C   C1688     1.0  0.81303  0.59837  0.25886  1.0000
  C   C1689     1.0  0.53366  0.47445  0.47456  1.0000
  H   H3004     1.0  0.52611  0.38695  0.44201  1.0000
  H   H3005     1.0  0.52015  0.43066  0.46212  1.0000
  H   H3006     1.0  0.84206  0.57468  0.26672  1.0000
  H   H3007     1.0  0.56343  0.53561  0.44791  1.0000
  C   C1690     1.0  0.83783  0.64782  0.27087  1.0000
  C   C1691     1.0  0.60852  0.55010  0.29887  1.0000
  H   H3008     1.0  0.65859  0.51931  0.48163  1.0000
  H   H3009     1.0  0.55122  0.47813  0.36734  1.0000
  H   H3010     1.0  0.68334  0.37982  0.46036  1.0000
  H   H3011     1.0  0.53955  0.35799  0.41833  1.0000
  H   H3012     1.0  0.52432  0.49155  0.41509  1.0000
  H   H3013     1.0  0.60064  0.51612  0.30867  1.0000
  C   C1692     1.0  0.72238  0.63358  0.33250  1.0000
  H   H3014     1.0  0.75255  0.41102  0.41168  1.0000
  H   H3015     1.0  0.59019  0.55171  0.45798  1.0000
  H   H3016     1.0  0.50006  0.34622  0.44973  1.0000
  S   S390      1.0  0.59775  0.64607  0.47316  1.0000
  H   H3017     1.0  0.75960  0.59845  0.32897  1.0000
  H   H3018     1.0  0.71423  0.57054  0.37330  1.0000
  H   H3019     1.0  0.59477  0.55322  0.29239  1.0000
  H   H3020     1.0  0.69517  0.57287  0.46283  1.0000
  H   H3021     1.0  0.54414  0.61110  0.45423  1.0000
  H   H3022     1.0  0.56012  0.59099  0.47497  1.0000
  C   C1693     1.0  0.61943  0.53901  0.46912  1.0000
  H   H3023     1.0  0.63153  0.36684  0.46720  1.0000
  C   C1694     1.0  0.63647  0.38198  0.40891  1.0000
  C   C1695     1.0  0.66077  0.37733  0.40799  1.0000
  C   C1696     1.0  0.67329  0.39564  0.40433  1.0000
  C   C1697     1.0  0.66154  0.41865  0.40170  1.0000
  C   C1698     1.0  0.63718  0.42335  0.40308  1.0000
  C   C1699     1.0  0.62468  0.40504  0.40668  1.0000
  H   H3024     1.0  0.66999  0.35955  0.40954  1.0000
  H   H3025     1.0  0.69215  0.39191  0.40320  1.0000
  H   H3026     1.0  0.62794  0.44107  0.40132  1.0000
  H   H3027     1.0  0.60587  0.40877  0.40769  1.0000
  N   N92       1.0  0.52192  0.65387  0.46074  1.0000
  H   H3028     1.0  0.62915  0.50928  0.45824  1.0000
  H   H3029     1.0  0.56829  0.43845  0.47265  1.0000
  H   H3030     1.0  0.55564  0.56056  0.40043  1.0000
  H   H3031     1.0  0.71047  0.38087  0.44994  1.0000
  H   H3032     1.0  0.67561  0.56863  0.30398  1.0000
  S   S391      1.0  0.62622  0.48293  0.37956  1.0000
  S   S392      1.0  0.92725  0.62848  0.23354  1.0000
  H   H3033     1.0  0.53868  0.52185  0.45579  1.0000
  H   H3034     1.0  0.68754  0.63556  0.32171  1.0000
  C   C1700     1.0  0.70860  0.53044  0.27289  1.0000
  H   H3035     1.0  0.60499  0.59337  0.28438  1.0000
  H   H3036     1.0  0.65729  0.51896  0.43206  1.0000
  H   H3037     1.0  0.54588  0.57228  0.46871  1.0000
  C   C1701     1.0  0.62149  0.59894  0.27916  1.0000
  C   C1702     1.0  0.84709  0.61583  0.23851  1.0000
  H   H3038     1.0  0.63167  0.57016  0.25816  1.0000
  H   H3039     1.0  0.51114  0.63848  0.44582  1.0000
  H   H3040     1.0  0.72813  0.63751  0.32124  1.0000
  C   C1703     1.0  0.62374  0.61974  0.28521  1.0000
  H   H3041     1.0  0.68932  0.50358  0.41481  1.0000
  H   H3042     1.0  0.60887  0.56639  0.30247  1.0000
  H   H3043     1.0  0.52955  0.53926  0.40992  1.0000
  H   H3044     1.0  0.72278  0.53022  0.27866  1.0000
  H   H3045     1.0  0.56203  0.43097  0.45208  1.0000
  C   C1704     1.0  0.54177  0.53168  0.43380  1.0000
  H   H3046     1.0  0.77913  0.55884  0.32636  1.0000
  H   H3047     1.0  0.53362  0.59635  0.41974  1.0000
  C   C1705     1.0  0.55260  0.52331  0.44678  1.0000
  C   C1706     1.0  0.64167  0.61164  0.23767  1.0000
  Fe  Fe199     1.0  0.63469  0.64435  0.47590  1.0000
  H   H3048     1.0  0.58864  0.54769  0.25749  1.0000
  H   H3049     1.0  0.63367  0.53611  0.44829  1.0000
  H   H3050     1.0  0.58442  0.54002  0.31707  1.0000
  H   H3051     1.0  0.50116  0.41458  0.38696  1.0000
  H   H3052     1.0  0.52293  0.38688  0.40372  1.0000
  C   C1707     1.0  0.54860  0.44676  0.45006  1.0000
  H   H3053     1.0  0.55618  0.53250  0.42515  1.0000
  C   C1708     1.0  0.53498  0.38351  0.43172  1.0000
  H   H3054     1.0  0.70790  0.51224  0.27232  1.0000
  H   H3055     1.0  0.61472  0.52958  0.31859  1.0000
  H   H3056     1.0  0.70741  0.52947  0.44886  1.0000
  H   H3057     1.0  0.51870  0.53313  0.38842  1.0000
  H   H3058     1.0  0.76111  0.58386  0.23711  1.0000
  C   C1709     1.0  0.63589  0.52521  0.45836  1.0000
  H   H3059     1.0  0.72189  0.52448  0.32972  1.0000
  H   H3060     1.0  0.54718  0.40362  0.47124  1.0000
  C   C1710     1.0  0.65255  0.48558  0.47943  1.0000
  C   C1711     1.0  0.64140  0.36698  0.47505  1.0000
  H   H3061     1.0  0.55663  0.46220  0.44917  1.0000
  H   H3062     1.0  0.62024  0.47761  0.33046  1.0000
  H   H3063     1.0  0.71704  0.40368  0.46248  1.0000
  C   C1712     1.0  0.64318  0.57913  0.28034  1.0000
  N   N93       1.0  0.51571  0.56777  0.42148  1.0000
  N   N94       1.0  0.68311  0.41004  0.44460  1.0000
  C   C1713     1.0  0.68471  0.42399  0.45523  1.0000
  C   C1714     1.0  0.65757  0.41322  0.44338  1.0000
  C   C1715     1.0  0.69635  0.41867  0.43087  1.0000
  C   C1716     1.0  0.64479  0.43854  0.43945  1.0000
  C   C1717     1.0  0.70918  0.42194  0.45901  1.0000
  C   C1718     1.0  0.52527  0.63128  0.47054  1.0000
  C   C1719     1.0  0.61948  0.43917  0.43801  1.0000
  H   H3064     1.0  0.67893  0.44281  0.45180  1.0000
  H   H3065     1.0  0.67267  0.41922  0.46482  1.0000
  H   H3066     1.0  0.64764  0.40557  0.45305  1.0000
  H   H3067     1.0  0.65541  0.40359  0.43545  1.0000
  H   H3068     1.0  0.68777  0.41641  0.42255  1.0000
  H   H3069     1.0  0.69549  0.43775  0.42961  1.0000
  H   H3070     1.0  0.65371  0.44679  0.42959  1.0000
  H   H3071     1.0  0.64399  0.44920  0.44740  1.0000
  Fe  Fe200     1.0  0.62254  0.33351  0.43033  1.0000
  H   H3072     1.0  0.62845  0.40323  0.47641  1.0000
  C   C1720     1.0  0.64987  0.61494  0.32371  1.0000
  H   H3073     1.0  0.61100  0.45732  0.43463  1.0000
  H   H3074     1.0  0.61874  0.42851  0.43034  1.0000
  H   H3075     1.0  0.60953  0.43248  0.44794  1.0000
  H   H3076     1.0  0.60597  0.52456  0.24877  1.0000
  H   H3077     1.0  0.66485  0.52470  0.27187  1.0000
  H   H3078     1.0  0.62312  0.55684  0.46755  1.0000
  C   C1721     1.0  0.55266  0.49187  0.39821  1.0000
  C   C1722     1.0  0.69445  0.58420  0.35649  1.0000
  S   S393      1.0  0.50664  0.46473  0.37613  1.0000
  S   S394      1.0  0.74429  0.61231  0.28729  1.0000
  H   H3079     1.0  0.78578  0.57372  0.24598  1.0000
  H   H3080     1.0  0.53422  0.56698  0.43812  1.0000
  H   H3081     1.0  0.60836  0.63381  0.28383  1.0000
  H   H3082     1.0  0.71291  0.53995  0.26242  1.0000
  S   S395      1.0  0.71618  0.64449  0.26354  1.0000
  H   H3083     1.0  0.58967  0.39843  0.47202  1.0000
  C   C1723     1.0  0.57716  0.39319  0.48122  1.0000
  N   N95       1.0  0.53072  0.44977  0.47535  1.0000
  H   H3084     1.0  0.73252  0.40598  0.43541  1.0000
  C   C1724     1.0  0.63281  0.54077  0.29113  1.0000
  C   C1725     1.0  0.68644  0.36744  0.44132  1.0000
  H   H3085     1.0  0.56666  0.36587  0.43964  1.0000
  C   C1726     1.0  0.80625  0.61658  0.24866  1.0000
  S   S396      1.0  0.57083  0.50079  0.40712  1.0000
  C   C1727     1.0  0.70604  0.60578  0.35103  1.0000
  C   C1728     1.0  0.53180  0.60895  0.46391  1.0000
  S   S397      1.0  0.77664  0.62818  0.24784  1.0000
  H   H3086     1.0  0.56396  0.50603  0.44619  1.0000
  H   H3087     1.0  0.51254  0.34094  0.41232  1.0000
  C   C1729     1.0  0.55273  0.40743  0.48026  1.0000
  H   H3088     1.0  0.64102  0.52799  0.25690  1.0000
  H   H3089     1.0  0.64248  0.60205  0.32014  1.0000
  H   H3090     1.0  0.63833  0.62005  0.33309  1.0000
  C   C1730     1.0  0.72227  0.40689  0.42726  1.0000
  C   C1731     1.0  0.56120  0.38046  0.43164  1.0000
  Fe  Fe201     1.0  0.60689  0.50394  0.39574  1.0000
  C   C1732     1.0  0.56911  0.59177  0.39825  1.0000
  H   H3091     1.0  0.72330  0.56082  0.45411  1.0000
  C   C1733     1.0  0.77910  0.57349  0.23651  1.0000
  H   H3092     1.0  0.72302  0.60257  0.35480  1.0000
  H   H3093     1.0  0.67967  0.48058  0.42746  1.0000
  S   S398      1.0  0.68843  0.61140  0.28789  1.0000
  S   S399      1.0  0.62104  0.35924  0.41086  1.0000
  H   H3094     1.0  0.69956  0.57296  0.44461  1.0000
  H   H3095     1.0  0.62456  0.61476  0.29628  1.0000
  H   H3096     1.0  0.68661  0.58952  0.37778  1.0000
  N   N96       1.0  0.60589  0.42167  0.36188  1.0000
  C   C1734     1.0  0.60562  0.44053  0.34956  1.0000
  C   C1735     1.0  0.60329  0.39911  0.35814  1.0000
  C   C1736     1.0  0.58500  0.42910  0.37235  1.0000
  C   C1737     1.0  0.62750  0.41850  0.36831  1.0000
  C   C1738     1.0  0.65125  0.41257  0.35906  1.0000
  C   C1739     1.0  0.60845  0.46463  0.35183  1.0000
  C   C1740     1.0  0.57829  0.41000  0.38440  1.0000
  C   C1741     1.0  0.67146  0.41371  0.36607  1.0000
  C   C1742     1.0  0.60621  0.48258  0.33895  1.0000
  C   C1743     1.0  0.56007  0.42053  0.39547  1.0000
  H   H3097     1.0  0.58899  0.44281  0.34546  1.0000
  H   H3098     1.0  0.61968  0.43575  0.34109  1.0000
  H   H3099     1.0  0.60942  0.38421  0.36591  1.0000
  H   H3100     1.0  0.58448  0.39891  0.35838  1.0000
  H   H3101     1.0  0.56909  0.43607  0.36744  1.0000
  H   H3102     1.0  0.58788  0.44353  0.37694  1.0000
  H   H3103     1.0  0.62757  0.43422  0.37266  1.0000
  H   H3104     1.0  0.62745  0.40431  0.37721  1.0000
  H   H3105     1.0  0.65256  0.42474  0.34931  1.0000
  H   H3106     1.0  0.59493  0.47125  0.36004  1.0000
  H   H3107     1.0  0.62594  0.46364  0.35448  1.0000
  H   H3108     1.0  0.59358  0.40028  0.38907  1.0000
  H   H3109     1.0  0.57059  0.39726  0.38090  1.0000
  H   H3110     1.0  0.68831  0.40960  0.35921  1.0000
  H   H3111     1.0  0.66987  0.43137  0.36855  1.0000
  H   H3112     1.0  0.67175  0.40086  0.37558  1.0000
  H   H3113     1.0  0.53921  0.63080  0.47660  1.0000
  C   C1744     1.0  0.52695  0.44684  0.46150  1.0000
  H   H3114     1.0  0.58950  0.52366  0.46869  1.0000
  H   H3115     1.0  0.56659  0.43367  0.39939  1.0000
  H   H3116     1.0  0.54364  0.42876  0.39143  1.0000
  H   H3117     1.0  0.55620  0.40663  0.40404  1.0000
  H   H3118     1.0  0.62306  0.36523  0.33207  1.0000
  H   H3119     1.0  0.60523  0.40501  0.33592  1.0000
  H   H3120     1.0  0.57122  0.37668  0.42160  1.0000
  C   C1745     1.0  0.68537  0.54241  0.28012  1.0000
  H   H3121     1.0  0.50172  0.53819  0.41976  1.0000
  H   H3122     1.0  0.57681  0.37456  0.48174  1.0000
  C   C1746     1.0  0.54185  0.44703  0.43623  1.0000
  H   H3123     1.0  0.51066  0.55179  0.44274  1.0000
  S   S400      1.0  0.66771  0.62485  0.25282  1.0000
  H   H3124     1.0  0.72505  0.42022  0.40548  1.0000
  H   H3125     1.0  0.51578  0.60478  0.46161  1.0000
  C   C1747     1.0  0.55599  0.57326  0.40701  1.0000
  H   H3126     1.0  0.65020  0.63040  0.31560  1.0000
  C   C1748     1.0  0.73415  0.41990  0.41414  1.0000
  H   H3127     1.0  0.73855  0.62892  0.33718  1.0000
  C   C1749     1.0  0.54303  0.58823  0.47336  1.0000
  H   H3128     1.0  0.66802  0.36492  0.44453  1.0000
  S   S401      1.0  0.72537  0.55320  0.30321  1.0000
  C   C1750     1.0  0.52360  0.47628  0.38454  1.0000
  C   C1751     1.0  0.67058  0.54159  0.45739  1.0000
  C   C1752     1.0  0.50067  0.54158  0.39226  1.0000
  H   H3129     1.0  0.64825  0.57778  0.29048  1.0000
  C   C1753     1.0  0.76126  0.56518  0.32381  1.0000
  H   H3130     1.0  0.61986  0.60505  0.26823  1.0000
  C   C1754     1.0  0.70436  0.53221  0.32784  1.0000
  H   H3131     1.0  0.51957  0.48669  0.46974  1.0000
  N   N97       1.0  0.70928  0.61357  0.33580  1.0000
  C   C1755     1.0  0.54555  0.48063  0.37785  1.0000
  H   H3132     1.0  0.65387  0.39454  0.35702  1.0000
  H   H3133     1.0  0.55743  0.44757  0.42813  1.0000
  H   H3134     1.0  0.75172  0.55044  0.32653  1.0000
  H   H3135     1.0  0.66021  0.47149  0.47330  1.0000
  C   C1756     1.0  0.56003  0.48849  0.38466  1.0000
  H   H3136     1.0  0.70677  0.48968  0.42783  1.0000
  H   H3137     1.0  0.67359  0.58856  0.33440  1.0000
  C   C1757     1.0  0.60646  0.54076  0.25246  1.0000
  H   H3138     1.0  0.77838  0.55535  0.23581  1.0000
  C   C1758     1.0  0.67427  0.50328  0.45001  1.0000
  H   H3139     1.0  0.65746  0.58588  0.27280  1.0000
  C   C1759     1.0  0.51594  0.48025  0.39799  1.0000
  H   H3140     1.0  0.66184  0.55237  0.46542  1.0000
  C   C1760     1.0  0.69719  0.53909  0.45707  1.0000
  C   C1761     1.0  0.67514  0.51362  0.43469  1.0000
  H   H3141     1.0  0.67565  0.58872  0.35556  1.0000
  H   H3142     1.0  0.60786  0.49970  0.34100  1.0000
  H   H3143     1.0  0.69492  0.61986  0.35638  1.0000
  C   C1762     1.0  0.70416  0.56293  0.45447  1.0000
  C   C1763     1.0  0.68859  0.49567  0.42572  1.0000
  C   C1764     1.0  0.53111  0.58430  0.41327  1.0000
  H   H3144     1.0  0.66611  0.48769  0.45158  1.0000
  H   H3145     1.0  0.69253  0.49652  0.45192  1.0000
  N   N98       1.0  0.66133  0.51927  0.45996  1.0000
  C   C1765     1.0  0.59388  0.54107  0.46786  1.0000
  H   H3146     1.0  0.76276  0.57135  0.31264  1.0000
  H   H3147     1.0  0.50912  0.62980  0.47818  1.0000
  H   H3148     1.0  0.66610  0.55238  0.44770  1.0000
  H   H3149     1.0  0.53604  0.34675  0.43586  1.0000
  H   H3150     1.0  0.51097  0.57329  0.39335  1.0000
  C   C1766     1.0  0.63971  0.38752  0.48022  1.0000
  C   C1767     1.0  0.50121  0.56058  0.40028  1.0000
  H   H3151     1.0  0.69631  0.42876  0.47985  1.0000
  H   H3152     1.0  0.50528  0.36143  0.47734  1.0000
  H   H3153     1.0  0.49895  0.47712  0.40316  1.0000
  H   H3154     1.0  0.68340  0.50073  0.47476  1.0000
  H   H3155     1.0  0.70100  0.33683  0.45477  1.0000
  C   C1768     1.0  0.51265  0.55039  0.41323  1.0000
  H   H3156     1.0  0.55230  0.51116  0.47907  1.0000
  H   H3157     1.0  0.72069  0.34491  0.43936  1.0000
  C   C1769     1.0  0.67454  0.60428  0.32665  1.0000
  H   H3158     1.0  0.49804  0.42584  0.40259  1.0000
  H   H3159     1.0  0.52246  0.59569  0.40493  1.0000
  C   C1770     1.0  0.50381  0.38806  0.40485  1.0000
  H   H3160     1.0  0.52073  0.51870  0.48102  1.0000
  H   H3161     1.0  0.82153  0.64054  0.27402  1.0000
  C   C1771     1.0  0.65646  0.34687  0.47978  1.0000
  H   H3162     1.0  0.72560  0.43337  0.47324  1.0000
  Fe  Fe202     1.0  0.58691  0.32177  0.45471  1.0000
  C   C1772     1.0  0.66453  0.50701  0.47414  1.0000
  H   H3163     1.0  0.84972  0.63754  0.26339  1.0000
  H   H3164     1.0  0.63352  0.49004  0.47919  1.0000
  H   H3165     1.0  0.50045  0.37522  0.39921  1.0000
  H   H3166     1.0  0.70285  0.65451  0.34832  1.0000
  H   H3167     1.0  0.99383  0.53827  0.25072  1.0000
  H   H3168     1.0  0.50162  0.32156  0.47154  1.0000
  H   H3169     1.0  0.86096  0.55115  0.23336  1.0000
  C   C1773     1.0  0.70638  0.45968  0.59367  1.0000
  H   H3170     1.0  0.94272  0.35876  0.69595  1.0000
  C   C1774     1.0  0.51822  0.50739  0.55206  1.0000
  C   C1775     1.0  0.62483  0.52462  0.52416  1.0000
  H   H3171     1.0  0.59927  0.49717  0.49853  1.0000
  H   H3172     1.0  0.67494  0.48430  0.52356  1.0000
  S   S402      1.0  0.55973  0.63293  0.50714  1.0000
  H   H3173     1.0  0.73933  0.34348  0.72238  1.0000
  H   H3174     1.0  0.64948  0.42376  0.60412  1.0000
  H   H3175     1.0  0.73914  0.42054  0.59228  1.0000
  H   H3176     1.0  0.57347  0.45551  0.52672  1.0000
  H   H3177     1.0  0.74108  0.39645  0.58377  1.0000
  C   C1776     1.0  0.66306  0.50029  0.52085  1.0000
  H   H3178     1.0  0.50704  0.42656  0.48547  1.0000
  H   H3179     1.0  0.79170  0.35089  0.68532  1.0000
  Fe  Fe203     1.0  0.64293  0.44474  0.53842  1.0000
  H   H3180     1.0  0.51651  0.49463  0.56156  1.0000
  H   H3181     1.0  0.60705  0.52748  0.52948  1.0000
  C   C1777     1.0  0.64003  0.50370  0.52769  1.0000
  S   S403      1.0  0.70858  0.38011  0.55192  1.0000
  H   H3182     1.0  0.73668  0.39487  0.61474  1.0000
  H   H3183     1.0  0.71894  0.46233  0.58412  1.0000
  C   C1778     1.0  0.74286  0.38740  0.60516  1.0000
  C   C1779     1.0  0.71331  0.44995  0.54719  1.0000
  H   H3184     1.0  0.59719  0.46696  0.50412  1.0000
  H   H3185     1.0  0.55612  0.50226  0.54719  1.0000
  C   C1780     1.0  0.69689  0.48345  0.59809  1.0000
  C   C1781     1.0  0.54131  0.50049  0.54247  1.0000
  H   H3186     1.0  0.77673  0.33377  0.67835  1.0000
  H   H3187     1.0  0.68861  0.51490  0.50525  1.0000
  H   H3188     1.0  0.67527  0.34351  0.59741  1.0000
  C   C1782     1.0  0.65281  0.38790  0.49023  1.0000
  C   C1783     1.0  0.53093  0.32927  0.52235  1.0000
  H   H3189     1.0  0.67552  0.40543  0.57755  1.0000
  H   H3190     1.0  0.61097  0.48158  0.51355  1.0000
  S   S404      1.0  0.50952  0.40840  0.52011  1.0000
  H   H3191     1.0  0.51460  0.32250  0.52709  1.0000
  H   H3192     1.0  0.58146  0.44700  0.55387  1.0000
  C   C1784     1.0  0.53574  0.50803  0.48574  1.0000
  H   H3193     1.0  0.72930  0.45564  0.54841  1.0000
  H   H3194     1.0  0.51324  0.44356  0.49624  1.0000
  H   H3195     1.0  0.92301  0.35284  0.71154  1.0000
  N   N99       1.0  0.53966  0.32192  0.50852  1.0000
  H   H3196     1.0  0.55940  0.49310  0.51015  1.0000
  Fe  Fe204     1.0  0.64053  0.59264  0.48743  1.0000
  C   C1785     1.0  0.55940  0.58634  0.51316  1.0000
  C   C1786     1.0  0.73314  0.40396  0.59321  1.0000
  S   S405      1.0  0.62038  0.43038  0.52827  1.0000
  S   S406      1.0  0.97531  0.33576  0.67580  1.0000
  H   H3197     1.0  0.69887  0.40849  0.60597  1.0000
  C   C1787     1.0  0.51254  0.59165  0.51034  1.0000
  H   H3198     1.0  0.62289  0.39754  0.60392  1.0000
  H   H3199     1.0  0.54736  0.44067  0.54637  1.0000
  C   C1788     1.0  0.93958  0.35913  0.70707  1.0000
  H   H3200     1.0  0.65984  0.43404  0.57865  1.0000
  H   H3201     1.0  0.67454  0.46166  0.58567  1.0000
  C   C1789     1.0  0.95996  0.34371  0.71356  1.0000
  H   H3202     1.0  0.57754  0.58421  0.51423  1.0000
  H   H3203     1.0  0.64723  0.48939  0.50062  1.0000
  S   S407      1.0  0.64307  0.41569  0.55625  1.0000
  H   H3204     1.0  0.69159  0.46534  0.56385  1.0000
  C   C1790     1.0  0.56839  0.39158  0.54551  1.0000
  C   C1791     1.0  0.54574  0.38862  0.55176  1.0000
  C   C1792     1.0  0.52751  0.39371  0.54403  1.0000
  C   C1793     1.0  0.53192  0.40173  0.53003  1.0000
  C   C1794     1.0  0.55453  0.40465  0.52378  1.0000
  C   C1795     1.0  0.57276  0.39938  0.53148  1.0000
  H   H3205     1.0  0.54229  0.38251  0.56260  1.0000
  H   H3206     1.0  0.51839  0.48002  0.49572  1.0000
  H   H3207     1.0  0.55806  0.41065  0.51294  1.0000
  H   H3208     1.0  0.59027  0.40096  0.52649  1.0000
  C   C1796     1.0  0.52265  0.61128  0.50915  1.0000
  H   H3209     1.0  0.52784  0.34610  0.54638  1.0000
  C   C1797     1.0  0.55890  0.43776  0.57244  1.0000
  C   C1798     1.0  0.73146  0.35609  0.57293  1.0000
  C   C1799     1.0  0.70972  0.36397  0.56848  1.0000
  C   C1800     1.0  0.68952  0.35908  0.57731  1.0000
  C   C1801     1.0  0.69104  0.34692  0.59057  1.0000
  S   S408      1.0  0.70250  0.33466  0.71120  1.0000
  H   H3210     1.0  0.71155  0.49094  0.59967  1.0000
  H   H3211     1.0  0.56521  0.47116  0.56205  1.0000
  C   C1802     1.0  0.63383  0.40380  0.59426  1.0000
  S   S409      1.0  0.65483  0.37953  0.53368  1.0000
  H   H3212     1.0  0.55905  0.35002  0.50405  1.0000
  C   C1803     1.0  0.65557  0.47596  0.49417  1.0000
  C   C1804     1.0  0.54625  0.60861  0.51025  1.0000
  S   S410      1.0  0.59080  0.38591  0.55545  1.0000
  H   H3213     1.0  0.68075  0.44299  0.55863  1.0000
  H   H3214     1.0  0.75590  0.34235  0.70098  1.0000
  Fe  Fe205     1.0  0.67489  0.39765  0.54376  1.0000
  Fe  Fe206     1.0  0.65349  0.41149  0.51771  1.0000
  H   H3215     1.0  0.74718  0.35976  0.56616  1.0000
  H   H3216     1.0  0.55701  0.42085  0.57020  1.0000
  C   C1805     1.0  0.78669  0.33364  0.68660  1.0000
  H   H3217     1.0  0.62322  0.41909  0.58875  1.0000
  C   C1806     1.0  0.73300  0.34378  0.58618  1.0000
  C   C1807     1.0  0.56942  0.47322  0.52958  1.0000
  C   C1808     1.0  0.52000  0.33052  0.50025  1.0000
  H   H3218     1.0  0.76225  0.38443  0.60317  1.0000
  N   N100      1.0  0.54545  0.47700  0.53809  1.0000
  H   H3219     1.0  0.70318  0.38982  0.59370  1.0000
  C   C1809     1.0  0.65550  0.53845  0.50683  1.0000
  C   C1810     1.0  0.65553  0.41029  0.59742  1.0000
  S   S411      1.0  0.63020  0.62493  0.49738  1.0000
  S   S412      1.0  0.60407  0.59072  0.48569  1.0000
  H   H3220     1.0  0.51234  0.62844  0.50702  1.0000
  H   H3221     1.0  0.68791  0.49554  0.59012  1.0000
  C   C1811     1.0  0.67120  0.41923  0.58408  1.0000
  H   H3222     1.0  0.49676  0.47491  0.54563  1.0000
  H   H3223     1.0  0.54261  0.44520  0.57882  1.0000
  H   H3224     1.0  0.70464  0.46295  0.53944  1.0000
  S   S413      1.0  0.62998  0.48237  0.54088  1.0000
  S   S414      1.0  0.67628  0.42820  0.52660  1.0000
  S   S415      1.0  0.65250  0.41434  0.49530  1.0000
  C   C1812     1.0  0.78533  0.32703  0.71228  1.0000
  H   H3225     1.0  0.99114  0.37204  0.71796  1.0000
  H   H3226     1.0  0.94918  0.36178  0.73102  1.0000
  H   H3227     1.0  0.68446  0.48187  0.60783  1.0000
  C   C1813     1.0  0.56408  0.45448  0.55923  1.0000
  C   C1814     1.0  0.66918  0.34717  0.49000  1.0000
  C   C1815     1.0  0.77160  0.32839  0.70047  1.0000
  C   C1816     1.0  0.54913  0.56676  0.51473  1.0000
  H   H3228     1.0  0.67271  0.36479  0.57394  1.0000
  H   H3229     1.0  0.62060  0.55788  0.51102  1.0000
  H   H3230     1.0  0.60624  0.64504  0.52764  1.0000
  H   H3231     1.0  0.71829  0.43300  0.54342  1.0000
  H   H3232     1.0  0.67744  0.36789  0.50302  1.0000
  H   H3233     1.0  0.73732  0.37037  0.60656  1.0000
  C   C1817     1.0  0.95543  0.34351  0.72919  1.0000
  C   C1818     1.0  0.68633  0.44843  0.59179  1.0000
  Fe  Fe207     1.0  0.62310  0.39997  0.54490  1.0000
  H   H3234     1.0  0.66492  0.39453  0.60324  1.0000
  S   S416      1.0  0.51375  0.54474  0.51389  1.0000
  H   H3235     1.0  0.71567  0.44870  0.60184  1.0000
  C   C1819     1.0  0.67077  0.51764  0.51048  1.0000
  H   H3236     1.0  0.72476  0.43456  0.57216  1.0000
  H   H3237     1.0  0.58311  0.47402  0.53549  1.0000
  C   C1820     1.0  0.57323  0.49105  0.51638  1.0000
  C   C1821     1.0  0.50989  0.44428  0.48571  1.0000
  H   H3238     1.0  0.57349  0.50822  0.51892  1.0000
  H   H3239     1.0  0.60140  0.34850  0.50190  1.0000
  H   H3240     1.0  0.50965  0.44776  0.53992  1.0000
  H   H3241     1.0  0.53146  0.53054  0.56167  1.0000
  H   H3242     1.0  0.52429  0.36715  0.49594  1.0000
  H   H3243     1.0  0.68078  0.33160  0.49372  1.0000
  H   H3244     1.0  0.50317  0.50910  0.54672  1.0000
  S   S417      1.0  0.66568  0.55952  0.49349  1.0000
  C   C1822     1.0  0.54816  0.32230  0.53274  1.0000
  C   C1823     1.0  0.50528  0.46680  0.53655  1.0000
  H   H3245     1.0  0.99458  0.37577  0.67406  1.0000
  H   H3246     1.0  0.55457  0.43577  0.48983  1.0000
  H   H3247     1.0  0.63889  0.38970  0.58795  1.0000
  H   H3248     1.0  0.67433  0.47042  0.49518  1.0000
  H   H3249     1.0  0.55947  0.54964  0.51687  1.0000
  H   H3250     1.0  0.52233  0.49371  0.52340  1.0000
  C   C1824     1.0  0.66722  0.36763  0.49531  1.0000
  H   H3251     1.0  0.79105  0.34403  0.71078  1.0000
  H   H3252     1.0  0.74978  0.33822  0.58959  1.0000
  H   H3253     1.0  0.53574  0.46477  0.52145  1.0000
  C   C1825     1.0  0.52582  0.56938  0.51307  1.0000
  H   H3254     1.0  0.72142  0.34064  0.68258  1.0000
  H   H3255     1.0  0.54080  0.40126  0.48950  1.0000
  H   H3256     1.0  0.60476  0.33722  0.48608  1.0000
  H   H3257     1.0  0.81127  0.34351  0.72734  1.0000
  H   H3258     1.0  0.64673  0.46089  0.49794  1.0000
  H   H3259     1.0  0.75910  0.35887  0.72582  1.0000
  C   C1826     1.0  0.59661  0.48363  0.50759  1.0000
  C   C1827     1.0  0.63247  0.54187  0.51369  1.0000
  C   C1828     1.0  0.54513  0.45753  0.55008  1.0000
  H   H3260     1.0  0.52612  0.34851  0.52139  1.0000
  H   H3261     1.0  0.52570  0.32621  0.48983  1.0000
  H   H3262     1.0  0.50012  0.53585  0.56284  1.0000
  H   H3263     1.0  0.54101  0.51438  0.53342  1.0000
  C   C1829     1.0  0.52776  0.47620  0.52929  1.0000
  H   H3264     1.0  0.69118  0.33414  0.55588  1.0000
  H   H3265     1.0  0.49902  0.36145  0.50822  1.0000
  C   C1830     1.0  0.60423  0.33250  0.49728  1.0000
  H   H3266     1.0  0.97607  0.35015  0.70852  1.0000
  S   S418      1.0  0.71341  0.32523  0.61211  1.0000
  C   C1831     1.0  0.51008  0.35696  0.49858  1.0000
  C   C1832     1.0  0.53590  0.32746  0.54686  1.0000
  N   N101      1.0  0.77215  0.32184  0.72651  1.0000
  C   C1833     1.0  0.71274  0.33930  0.59509  1.0000
  H   H3267     1.0  0.71307  0.41284  0.56782  1.0000
  C   C1834     1.0  0.69652  0.44793  0.56070  1.0000
  H   H3268     1.0  0.51793  0.54465  0.54690  1.0000
  H   H3269     1.0  0.66486  0.32293  0.55739  1.0000
  C   C1835     1.0  0.70798  0.42967  0.57176  1.0000
  C   C1836     1.0  0.56058  0.33255  0.50125  1.0000
  C   C1837     1.0  0.70612  0.40694  0.59510  1.0000
  H   H3270     1.0  0.57356  0.43459  0.57831  1.0000
  H   H3271     1.0  0.52795  0.45933  0.55683  1.0000
  N   N102      1.0  0.69334  0.42632  0.58572  1.0000
  Fe  Fe208     1.0  0.59418  0.62436  0.49375  1.0000
  H   H3272     1.0  0.67576  0.44535  0.60209  1.0000
  H   H3273     1.0  0.93773  0.37739  0.70858  1.0000
  H   H3274     1.0  0.66990  0.32511  0.68916  1.0000
  C   C1838     1.0  0.72278  0.32224  0.68630  1.0000
  H   H3275     1.0  0.51005  0.39149  0.54891  1.0000
  H   H3276     1.0  0.96164  0.32599  0.71119  1.0000
  H   H3277     1.0  0.94006  0.33501  0.73309  1.0000
  H   H3278     1.0  0.56096  0.33575  0.49000  1.0000
  H   H3279     1.0  0.53510  0.51382  0.49555  1.0000
  C   C1839     1.0  0.75263  0.34218  0.72897  1.0000
  H   H3280     1.0  0.53167  0.58573  0.48339  1.0000
  H   H3281     1.0  0.54879  0.32331  0.55399  1.0000
  H   H3282     1.0  0.56230  0.33266  0.52951  1.0000
  C   C1840     1.0  0.51695  0.53105  0.55610  1.0000
  C   C1841     1.0  0.53429  0.48228  0.48818  1.0000
  H   H3283     1.0  0.54975  0.47239  0.49273  1.0000
  H   H3284     1.0  0.58332  0.39540  0.49049  1.0000
  H   H3285     1.0  0.62147  0.32195  0.49917  1.0000
  C   C1842     1.0  0.49478  0.36446  0.48740  1.0000
  H   H3286     1.0  0.49507  0.46276  0.51775  1.0000
  H   H3287     1.0  0.78645  0.35418  0.73929  1.0000
  S   S419      1.0  0.91232  0.34833  0.95253  1.0000
  Fe  Fe209     1.0  0.91735  0.58806  0.94332  1.0000
  S   S420      1.0  0.90464  0.60598  0.92366  1.0000
  S   S421      1.0  0.89398  0.57868  0.96314  1.0000
  H   H3288     1.0  0.93522  0.35795  0.87203  1.0000
  S   S422      1.0  0.95949  0.59783  0.90987  1.0000
  H   H3289     1.0  0.95411  0.32199  0.93872  1.0000
  Fe  Fe210     1.0  0.93478  0.62482  0.92076  1.0000
  Fe  Fe211     1.0  0.93057  0.57752  0.91438  1.0000
  S   S423      1.0  0.92816  0.56159  0.89631  1.0000
  S   S424      1.0  0.94525  0.60925  0.94114  1.0000
  S   S425      1.0  0.94077  0.55829  0.93424  1.0000
  Fe  Fe212     1.0  0.92044  0.41815  0.85701  1.0000
  S   S426      1.0  0.95865  0.40283  0.85642  1.0000
  S   S427      1.0  0.90258  0.41315  0.84006  1.0000
  Fe  Fe213     1.0  0.91906  0.44338  0.88103  1.0000
  S   S428      1.0  0.95685  0.42991  0.88190  1.0000
  S   S429      1.0  0.90144  0.46350  0.89825  1.0000
  Fe  Fe214     1.0  0.96242  0.43807  0.85919  1.0000
  C   C1843     1.0  0.98934  0.44506  0.90555  1.0000
  Fe  Fe215     1.0  0.94965  0.39615  0.87925  1.0000
  S   S430      1.0  0.96610  0.36401  0.89213  1.0000
  S   S431      1.0  0.92485  0.45435  0.85828  1.0000
  S   S432      1.0  0.91105  0.40864  0.87979  1.0000
  C   C1844     1.0  0.89946  0.34803  0.89332  1.0000
  S   S433      1.0  0.83349  0.34748  0.79782  1.0000
  H   H3290     1.0  0.93638  0.35347  0.75438  1.0000
  H   H3291     1.0  0.90577  0.33545  0.86901  1.0000
  H   H3292     1.0  0.54757  0.33674  0.74878  1.0000
  C   C1845     1.0  0.89763  0.32257  0.74071  1.0000
  C   C1846     1.0  0.84363  0.40706  0.79442  1.0000
  C   C1847     1.0  0.73923  0.34164  0.74377  1.0000
  Fe  Fe216     1.0  0.93244  0.32329  0.96765  1.0000
  C   C1848     1.0  0.81514  0.33297  0.74837  1.0000
  C   C1849     1.0  0.89241  0.38801  0.83882  1.0000
  C   C1850     1.0  0.88296  0.37394  0.85038  1.0000
  C   C1851     1.0  0.87173  0.35628  0.84891  1.0000
  C   C1852     1.0  0.87051  0.35199  0.83593  1.0000
  C   C1853     1.0  0.88105  0.36523  0.82439  1.0000
  C   C1854     1.0  0.89152  0.38346  0.82584  1.0000
  H   H3293     1.0  0.88335  0.37743  0.86040  1.0000
  H   H3294     1.0  0.93547  0.47295  0.95648  1.0000
  H   H3295     1.0  0.88052  0.36190  0.81434  1.0000
  H   H3296     1.0  0.89877  0.39428  0.81685  1.0000
  C   C1855     1.0  0.92078  0.53415  0.89732  1.0000
  C   C1856     1.0  0.91245  0.52134  0.90973  1.0000
  C   C1857     1.0  0.90647  0.49967  0.90995  1.0000
  C   C1858     1.0  0.90945  0.49044  0.89783  1.0000
  C   C1859     1.0  0.91827  0.50305  0.88550  1.0000
  C   C1860     1.0  0.92341  0.52502  0.88523  1.0000
  H   H3297     1.0  0.91016  0.52836  0.91906  1.0000
  H   H3298     1.0  0.89951  0.49002  0.91951  1.0000
  H   H3299     1.0  0.92051  0.49617  0.87611  1.0000
  H   H3300     1.0  0.92971  0.53489  0.87558  1.0000
  H   H3301     1.0  0.89910  0.52235  0.97044  1.0000
  C   C1861     1.0  0.92829  0.35319  0.93603  1.0000
  C   C1862     1.0  0.92087  0.37314  0.92699  1.0000
  C   C1863     1.0  0.93299  0.37702  0.91364  1.0000
  C   C1864     1.0  0.95235  0.36076  0.90922  1.0000
  C   C1865     1.0  0.96013  0.34107  0.91835  1.0000
  C   C1866     1.0  0.94817  0.33732  0.93176  1.0000
  H   H3302     1.0  0.90564  0.38558  0.93029  1.0000
  H   H3303     1.0  0.92714  0.39246  0.90673  1.0000
  S   S434      1.0  0.96224  0.33528  0.97308  1.0000
  H   H3304     1.0  0.95963  0.39554  0.93917  1.0000
  H   H3305     1.0  0.88590  0.38558  0.90738  1.0000
  C   C1867     1.0  0.98608  0.47672  0.88596  1.0000
  H   H3306     1.0  0.80438  0.44006  0.85315  1.0000
  H   H3307     1.0  0.76657  0.42842  0.81649  1.0000
  S   S435      1.0  0.85459  0.33080  0.83468  1.0000
  C   C1868     1.0  0.90582  0.50759  0.96466  1.0000
  C   C1869     1.0  0.88783  0.50705  0.95561  1.0000
  H   H3308     1.0  0.68941  0.33830  0.79926  1.0000
  H   H3309     1.0  0.89615  0.49604  0.94768  1.0000
  H   H3310     1.0  0.93832  0.45364  0.97207  1.0000
  H   H3311     1.0  0.97526  0.32857  0.91502  1.0000
  C   C1870     1.0  0.87930  0.53135  0.94820  1.0000
  C   C1871     1.0  0.78376  0.43163  0.83348  1.0000
  C   C1872     1.0  0.91000  0.45021  0.96307  1.0000
  C   C1873     1.0  0.74850  0.33388  0.79293  1.0000
  N   N103      1.0  0.99245  0.46979  0.90011  1.0000
  H   H3312     1.0  0.78320  0.34370  0.83034  1.0000
  H   H3313     1.0  0.93009  0.44423  0.94316  1.0000
  H   H3314     1.0  0.78643  0.44991  0.83002  1.0000
  C   C1874     1.0  0.88554  0.34892  0.90794  1.0000
  Fe  Fe217     1.0  0.84791  0.32215  0.81495  1.0000
  H   H3315     1.0  0.92119  0.51263  0.95742  1.0000
  Fe  Fe218     1.0  0.85670  0.32370  0.78416  1.0000
  H   H3316     1.0  0.87795  0.64752  0.90773  1.0000
  H   H3317     1.0  0.88556  0.64845  0.88300  1.0000
  H   H3318     1.0  0.77775  0.42984  0.84467  1.0000
  C   C1875     1.0  0.94036  0.34002  0.86967  1.0000
  H   H3319     1.0  0.98240  0.52596  0.86060  1.0000
  H   H3320     1.0  0.50628  0.32683  0.76696  1.0000
  H   H3321     1.0  0.80439  0.32922  0.75854  1.0000
  H   H3322     1.0  0.91291  0.35896  0.89218  1.0000
  H   H3323     1.0  0.80275  0.34330  0.84196  1.0000
  H   H3324     1.0  0.99276  0.43992  0.91622  1.0000
  H   H3325     1.0  0.86756  0.53036  0.94111  1.0000
  H   H3326     1.0  0.86943  0.54283  0.95563  1.0000
  H   H3327     1.0  0.89422  0.53917  0.94218  1.0000
  S   S436      1.0  0.76998  0.34222  0.79982  1.0000
  H   H3328     1.0  0.86420  0.37399  0.92031  1.0000
  H   H3329     1.0  0.97903  0.36449  0.74218  1.0000
  S   S437      1.0  0.99180  0.45657  0.84832  1.0000
  H   H3330     1.0  0.52111  0.32825  0.73493  1.0000
  H   H3331     1.0  0.73171  0.32569  0.74728  1.0000
  H   H3332     1.0  0.96926  0.51342  0.88467  1.0000
  C   C1876     1.0  0.94985  0.34184  0.76001  1.0000
  H   H3333     1.0  0.70961  0.36122  0.75546  1.0000
  H   H3334     1.0  0.94459  0.50267  0.93107  1.0000
  H   H3335     1.0  0.81008  0.37017  0.82003  1.0000
  H   H3336     1.0  0.72095  0.35124  0.80666  1.0000
  C   C1877     1.0  0.83900  0.40563  0.80992  1.0000
  C   C1878     1.0  0.92409  0.43406  0.95315  1.0000
  H   H3337     1.0  0.96901  0.46368  0.92936  1.0000
  H   H3338     1.0  0.98688  0.50135  0.97727  1.0000
  H   H3339     1.0  0.75656  0.41238  0.83293  1.0000
  C   C1879     1.0  0.81400  0.41814  0.81496  1.0000
  H   H3340     1.0  0.93269  0.35154  0.84894  1.0000
  H   H3341     1.0  0.75086  0.34250  0.75093  1.0000
  N   N104      1.0  0.80655  0.41517  0.83024  1.0000
  H   H3342     1.0  0.96108  0.35246  0.76259  1.0000
  Fe  Fe219     1.0  0.96770  0.58074  0.93048  1.0000
  H   H3343     1.0  0.85356  0.41379  0.85686  1.0000
  S   S438      1.0  0.87553  0.33858  0.76413  1.0000
  C   C1880     1.0  0.79576  0.37592  0.82809  1.0000
  S   S439      1.0  0.65998  0.33530  0.74720  1.0000
  H   H3344     1.0  0.98087  0.40190  0.90422  1.0000
  H   H3345     1.0  0.84264  0.42541  0.78936  1.0000
  H   H3346     1.0  0.95686  0.48446  0.90814  1.0000
  H   H3347     1.0  0.79292  0.39021  0.84669  1.0000
  C   C1881     1.0  0.97679  0.47925  0.92461  1.0000
  H   H3348     1.0  0.96303  0.48100  0.96800  1.0000
  C   C1882     1.0  0.83932  0.42915  0.85698  1.0000
  H   H3349     1.0  0.87947  0.47426  0.97911  1.0000
  C   C1883     1.0  0.92531  0.46595  0.96627  1.0000
  H   H3350     1.0  0.96849  0.47293  0.88598  1.0000
  H   H3351     1.0  0.97078  0.51508  0.92793  1.0000
  H   H3352     1.0  0.77290  0.35888  0.84474  1.0000
  H   H3353     1.0  0.89464  0.46032  0.95858  1.0000
  C   C1884     1.0  0.96473  0.32320  0.75150  1.0000
  H   H3354     1.0  0.92658  0.34423  0.77931  1.0000
  H   H3355     1.0  0.97083  0.44351  0.90584  1.0000
  H   H3356     1.0  0.83391  0.43245  0.86766  1.0000
  H   H3357     1.0  0.93942  0.42301  0.95741  1.0000
  H   H3358     1.0  0.88775  0.35737  0.88586  1.0000
  H   H3359     1.0  0.84152  0.40950  0.83523  1.0000
  C   C1885     1.0  0.81856  0.42486  0.85161  1.0000
  C   C1886     1.0  0.78820  0.35414  0.83689  1.0000
  H   H3360     1.0  0.95605  0.33129  0.87433  1.0000
  H   H3361     1.0  0.87225  0.50048  0.96163  1.0000
  H   H3362     1.0  0.94203  0.32742  0.89689  1.0000
  H   H3363     1.0  0.73665  0.44934  0.84109  1.0000
  C   C1887     1.0  0.74194  0.44852  0.83002  1.0000
  H   H3364     1.0  0.96494  0.49462  0.94305  1.0000
  C   C1888     1.0  0.82484  0.42232  0.83628  1.0000
  H   H3365     1.0  0.80198  0.41215  0.80988  1.0000
  H   H3366     1.0  0.96225  0.35129  0.85080  1.0000
  C   C1889     1.0  0.55453  0.32541  0.74123  1.0000
  C   C1890     1.0  0.76256  0.42864  0.82762  1.0000
  H   H3367     1.0  0.95148  0.51172  0.96678  1.0000
  H   H3368     1.0  0.84614  0.44443  0.85069  1.0000
  C   C1891     1.0  0.93726  0.33056  0.77349  1.0000
  H   H3369     1.0  0.98184  0.61074  0.95802  1.0000
  C   C1892     1.0  0.97342  0.37978  0.94027  1.0000
  H   H3370     1.0  0.82913  0.43920  0.83055  1.0000
  C   C1893     1.0  0.90965  0.56795  0.97680  1.0000
  H   H3371     1.0  0.70631  0.36175  0.73809  1.0000
  H   H3372     1.0  0.74655  0.46537  0.82461  1.0000
  H   H3373     1.0  0.86342  0.34625  0.85786  1.0000
  H   H3374     1.0  0.84161  0.38712  0.81459  1.0000
  H   H3375     1.0  0.85999  0.38008  0.90270  1.0000
  H   H3376     1.0  0.86141  0.39728  0.79121  1.0000
  H   H3377     1.0  0.85229  0.41377  0.81259  1.0000
  C   C1894     1.0  0.87318  0.37367  0.90962  1.0000
  H   H3378     1.0  0.81292  0.40901  0.85786  1.0000
  H   H3379     1.0  0.72680  0.44568  0.82603  1.0000
  H   H3380     1.0  0.96551  0.36589  0.94734  1.0000
  H   H3381     1.0  0.86203  0.33329  0.88913  1.0000
  N   N105      1.0  0.91089  0.32421  0.89000  1.0000
  H   H3382     1.0  0.83079  0.39934  0.79099  1.0000
  C   C1895     1.0  0.80446  0.39045  0.83659  1.0000
  H   H3383     1.0  0.93974  0.58297  0.96710  1.0000
  H   H3384     1.0  0.81305  0.43692  0.81068  1.0000
  H   H3385     1.0  0.82167  0.38017  0.83892  1.0000
  H   H3386     1.0  0.78101  0.38565  0.82295  1.0000
  H   H3387     1.0  0.89448  0.63657  0.95164  1.0000
  C   C1896     1.0  0.99361  0.38494  0.94583  1.0000
  C   C1897     1.0  0.94744  0.34181  0.85422  1.0000
  C   C1898     1.0  0.72517  0.34086  0.79856  1.0000
  N   N106      1.0  0.91306  0.48548  0.97416  1.0000
  H   H3388     1.0  0.97689  0.50350  0.90585  1.0000
  N   N107      1.0  0.97518  0.33204  0.73705  1.0000
  H   H3389     1.0  0.87188  0.33807  0.91033  1.0000
  H   H3390     1.0  0.87190  0.64347  0.96571  1.0000
  C   C1899     1.0  0.98446  0.50707  0.86453  1.0000
  H   H3391     1.0  0.89742  0.34285  0.91564  1.0000
  H   H3392     1.0  0.97813  0.61035  0.97615  1.0000
  C   C1900     1.0  0.93187  0.57284  0.97611  1.0000
  C   C1901     1.0  0.99124  0.60851  0.96678  1.0000
  C   C1902     1.0  0.97509  0.48504  0.90917  1.0000
  H   H3393     1.0  0.97938  0.37412  0.93016  1.0000
  H   H3394     1.0  0.91296  0.42247  0.95143  1.0000
  H   H3395     1.0  0.89377  0.34045  0.73583  1.0000
  H   H3396     1.0  0.86885  0.64901  0.92928  1.0000
  H   H3397     1.0  0.72541  0.37884  0.74180  1.0000
  H   H3398     1.0  0.98641  0.38937  0.95615  1.0000
  C   C1903     1.0  0.98996  0.34929  0.73778  1.0000
  C   C1904     1.0  0.96337  0.49915  0.93209  1.0000
  H   H3399     1.0  0.86605  0.62921  0.95296  1.0000
  H   H3400     1.0  0.82338  0.34800  0.74838  1.0000
  C   C1905     1.0  0.79993  0.33877  0.73715  1.0000
  H   H3401     1.0  0.96945  0.50065  0.86247  1.0000
  H   H3402     1.0  0.79382  0.65045  0.92901  1.0000
  H   H3403     1.0  0.90355  0.43908  0.97259  1.0000
  C   C1906     1.0  0.95393  0.49506  0.97390  1.0000
  C   C1907     1.0  0.92001  0.32642  0.87489  1.0000
  C   C1908     1.0  0.70724  0.33370  0.79427  1.0000
  C   C1909     1.0  0.93014  0.48999  0.98219  1.0000
  C   C1910     1.0  0.87540  0.64237  0.95466  1.0000
  C   C1911     1.0  0.71894  0.36218  0.74478  1.0000
  H   H3404     1.0  0.83532  0.65148  0.92025  1.0000
  C   C1912     1.0  0.98519  0.50278  0.87981  1.0000
  H   H3405     1.0  0.95305  0.32428  0.85122  1.0000
  Fe  Fe220     1.0  0.80769  0.32430  0.79925  1.0000
  H   H3406     1.0  0.59753  0.85067  0.20685  1.0000
  Fe  Fe221     1.0  0.95157  0.80931  0.21403  1.0000
  H   H3407     1.0  0.77717  0.77363  0.10736  1.0000
  S   S440      1.0  0.93498  0.83173  0.19656  1.0000
  H   H3408     1.0  0.98581  0.82744  0.10468  1.0000
  H   H3409     1.0  0.95041  0.74378  0.20438  1.0000
  H   H3410     1.0  0.54795  0.87643  0.16976  1.0000
  H   H3411     1.0  0.84374  0.69759  0.17865  1.0000
  H   H3412     1.0  0.84690  0.65974  0.12572  1.0000
  H   H3413     1.0  0.82092  0.69828  0.15890  1.0000
  C   C1913     1.0  0.95058  0.77581  0.11665  1.0000
  C   C1914     1.0  0.94611  0.80235  0.11400  1.0000
  H   H3414     1.0  0.77685  0.80064  0.20696  1.0000
  C   C1915     1.0  0.53073  0.73726  0.18634  1.0000
  Fe  Fe222     1.0  0.65026  0.79723  0.20257  1.0000
  S   S441      1.0  0.65050  0.80379  0.17996  1.0000
  S   S442      1.0  0.64395  0.82817  0.21328  1.0000
  Fe  Fe223     1.0  0.65386  0.74591  0.20453  1.0000
  S   S443      1.0  0.65479  0.74797  0.18212  1.0000
  S   S444      1.0  0.65479  0.71160  0.21837  1.0000
  Fe  Fe224     1.0  0.67946  0.77274  0.17979  1.0000
  S   S445      1.0  0.71042  0.77048  0.16273  1.0000
  Fe  Fe225     1.0  0.62563  0.77873  0.18419  1.0000
  S   S446      1.0  0.59580  0.78433  0.17201  1.0000
  S   S447      1.0  0.68109  0.76795  0.20217  1.0000
  S   S448      1.0  0.62298  0.77476  0.20687  1.0000
  Fe  Fe226     1.0  0.88323  0.78645  0.14492  1.0000
  S   S449      1.0  0.88873  0.78602  0.12245  1.0000
  S   S450      1.0  0.91351  0.77264  0.15642  1.0000
  Fe  Fe227     1.0  0.83094  0.80410  0.14632  1.0000
  S   S451      1.0  0.83214  0.80587  0.12381  1.0000
  S   S452      1.0  0.79967  0.81324  0.16235  1.0000
  Fe  Fe228     1.0  0.85599  0.77111  0.12688  1.0000
  S   S453      1.0  0.85574  0.74126  0.11632  1.0000
  Fe  Fe229     1.0  0.86494  0.82066  0.12118  1.0000
  S   S454      1.0  0.87332  0.85297  0.10659  1.0000
  S   S455      1.0  0.85264  0.76838  0.14954  1.0000
  S   S456      1.0  0.86150  0.82206  0.14354  1.0000
  Fe  Fe230     1.0  0.95735  0.88565  0.03944  1.0000
  C   C1916     1.0  0.51572  0.86466  0.17813  1.0000
  S   S457      1.0  0.95345  0.85285  0.05476  1.0000
  Fe  Fe231     1.0  0.93430  0.93256  0.02582  1.0000
  S   S458      1.0  0.96659  0.93855  0.01125  1.0000
  S   S459      1.0  0.89938  0.95608  0.02479  1.0000
  Fe  Fe232     1.0  0.97091  0.90147  0.00877  1.0000
  H   H3415     1.0  0.88399  0.83318  0.04512  1.0000
  C   C1917     1.0  0.97818  0.84620  0.10359  1.0000
  H   H3416     1.0  0.70409  0.67173  0.15260  1.0000
  S   S460      1.0  0.93689  0.89625  0.02197  1.0000
  S   S461      1.0  0.95210  0.92173  0.04434  1.0000
  C   C1918     1.0  0.51408  0.68648  0.18712  1.0000
  H   H3417     1.0  0.57110  0.89410  0.17887  1.0000
  C   C1919     1.0  0.61505  0.84393  0.15790  1.0000
  H   H3418     1.0  0.75945  0.67154  0.12886  1.0000
  H   H3419     1.0  0.95981  0.86426  0.13199  1.0000
  H   H3420     1.0  0.52402  0.78274  0.14574  1.0000
  C   C1920     1.0  0.82930  0.69750  0.14849  1.0000
  H   H3421     1.0  0.96495  0.85643  0.00449  1.0000
  H   H3422     1.0  0.91357  0.83159  0.04754  1.0000
  Fe  Fe233     1.0  0.97382  0.76022  0.22363  1.0000
  C   C1921     1.0  0.84705  0.71651  0.12679  1.0000
  H   H3423     1.0  0.55721  0.82347  0.21148  1.0000
  H   H3424     1.0  0.76136  0.69857  0.11752  1.0000
  C   C1922     1.0  0.89679  0.85225  0.09282  1.0000
  C   C1923     1.0  0.90366  0.87318  0.08613  1.0000
  C   C1924     1.0  0.92138  0.87353  0.07465  1.0000
  C   C1925     1.0  0.93233  0.85292  0.06973  1.0000
  C   C1926     1.0  0.92606  0.83187  0.07672  1.0000
  C   C1927     1.0  0.90829  0.83152  0.08819  1.0000
  H   H3425     1.0  0.89500  0.88924  0.08974  1.0000
  H   H3426     1.0  0.92639  0.88976  0.06949  1.0000
  H   H3427     1.0  0.93455  0.81583  0.07302  1.0000
  H   H3428     1.0  0.90311  0.81530  0.09322  1.0000
  H   H3429     1.0  0.61713  0.82473  0.15984  1.0000
  H   H3430     1.0  0.89609  0.70506  0.13976  1.0000
  H   H3431     1.0  0.83227  0.73351  0.14422  1.0000
  H   H3432     1.0  0.53085  0.89056  0.18349  1.0000
  H   H3433     1.0  0.93351  0.72457  0.17384  1.0000
  C   C1928     1.0  0.73448  0.78344  0.16284  1.0000
  C   C1929     1.0  0.73724  0.79184  0.17429  1.0000
  C   C1930     1.0  0.75726  0.80108  0.17406  1.0000
  C   C1931     1.0  0.77475  0.80157  0.16250  1.0000
  C   C1932     1.0  0.77198  0.79309  0.15112  1.0000
  C   C1933     1.0  0.75175  0.78448  0.15124  1.0000
  H   H3434     1.0  0.72396  0.79128  0.18327  1.0000
  H   H3435     1.0  0.75920  0.80782  0.18286  1.0000
  H   H3436     1.0  0.78518  0.79368  0.14210  1.0000
  H   H3437     1.0  0.74938  0.77874  0.14225  1.0000
  C   C1934     1.0  0.63243  0.69885  0.21554  1.0000
  C   C1935     1.0  0.61479  0.71223  0.20846  1.0000
  H   H3438     1.0  0.56188  0.89451  0.19646  1.0000
  H   H3439     1.0  0.82058  0.95163  0.02120  1.0000
  N   N108      1.0  0.82466  0.80662  0.20083  1.0000
  H   H3440     1.0  0.61443  0.73053  0.20507  1.0000
  H   H3441     1.0  0.90481  0.73098  0.14127  1.0000
  H   H3442     1.0  0.57797  0.84930  0.16370  1.0000
  H   H3443     1.0  0.94058  0.76931  0.12661  1.0000
  H   H3444     1.0  0.75398  0.76000  0.10542  1.0000
  H   H3445     1.0  0.74901  0.77933  0.11787  1.0000
  H   H3446     1.0  0.59211  0.82815  0.18387  1.0000
  N   N109      1.0  0.53262  0.72288  0.17530  1.0000
  C   C1936     1.0  0.51158  0.77129  0.14573  1.0000
  H   H3447     1.0  0.73586  0.74786  0.13648  1.0000
  H   H3448     1.0  0.98000  0.83814  0.13081  1.0000
  C   C1937     1.0  0.95478  0.67724  0.21382  1.0000
  H   H3449     1.0  0.82813  0.87054  0.09287  1.0000
  C   C1938     1.0  0.93474  0.71463  0.20404  1.0000
  C   C1939     1.0  0.91806  0.78893  0.16810  1.0000
  C   C1940     1.0  0.93539  0.77946  0.17627  1.0000
  C   C1941     1.0  0.94027  0.79238  0.18521  1.0000
  C   C1942     1.0  0.92798  0.81496  0.18596  1.0000
  C   C1943     1.0  0.91046  0.82442  0.17790  1.0000
  C   C1944     1.0  0.90537  0.81135  0.16907  1.0000
  H   H3450     1.0  0.94523  0.76215  0.17566  1.0000
  H   H3451     1.0  0.95397  0.78505  0.19128  1.0000
  H   H3452     1.0  0.90095  0.84191  0.17844  1.0000
  H   H3453     1.0  0.89195  0.81881  0.16287  1.0000
  H   H3454     1.0  0.86369  0.95024  0.05230  1.0000
  C   C1945     1.0  0.83600  0.71741  0.14023  1.0000
  H   H3455     1.0  0.90950  0.83894  0.99237  1.0000
  H   H3456     1.0  0.92737  0.80871  0.11346  1.0000
  C   C1946     1.0  0.76195  0.76579  0.11292  1.0000
  H   H3457     1.0  0.94575  0.80306  0.13527  1.0000
  H   H3458     1.0  0.53877  0.85747  0.20041  1.0000
  H   H3459     1.0  0.85404  0.71590  0.22769  1.0000
  C   C1947     1.0  0.95355  0.81210  0.12528  1.0000
  C   C1948     1.0  0.83851  0.83605  0.17978  1.0000
  C   C1949     1.0  0.84540  0.88310  0.07271  1.0000
  H   H3460     1.0  0.77240  0.65538  0.18072  1.0000
  C   C1950     1.0  0.59750  0.70195  0.20567  1.0000
  H   H3461     1.0  0.75119  0.73780  0.15660  1.0000
  H   H3462     1.0  0.50900  0.70694  0.16789  1.0000
  C   C1951     1.0  0.97141  0.84299  0.15718  1.0000
  H   H3463     1.0  0.86762  0.71353  0.15810  1.0000
  H   H3464     1.0  0.90441  0.71170  0.11439  1.0000
  H   H3465     1.0  0.65127  0.69495  0.17597  1.0000
  C   C1952     1.0  0.96202  0.83392  0.99083  1.0000
  H   H3466     1.0  0.68433  0.68874  0.14147  1.0000
  C   C1953     1.0  0.97627  0.87017  0.98351  1.0000
  H   H3467     1.0  0.79097  0.70180  0.13429  1.0000
  H   H3468     1.0  0.59895  0.68549  0.16115  1.0000
  C   C1954     1.0  0.67705  0.67420  0.18800  1.0000
  H   H3469     1.0  0.83397  0.78959  0.18295  1.0000
  H   H3470     1.0  0.89315  0.91561  0.04520  1.0000
  C   C1955     1.0  0.59282  0.85487  0.16653  1.0000
  H   H3471     1.0  0.88531  0.76876  0.22659  1.0000
  H   H3472     1.0  0.76872  0.79248  0.23204  1.0000
  H   H3473     1.0  0.82726  0.89225  0.05562  1.0000
  H   H3474     1.0  0.94573  0.69430  0.17632  1.0000
  H   H3475     1.0  0.51417  0.82966  0.22062  1.0000
  S   S462      1.0  0.93684  0.77700  0.22206  1.0000
  H   H3476     1.0  0.90442  0.84641  0.03169  1.0000
  C   C1956     1.0  0.76769  0.70512  0.16670  1.0000
  H   H3477     1.0  0.85879  0.88821  0.07715  1.0000
  H   H3478     1.0  0.70679  0.72074  0.13662  1.0000
  H   H3479     1.0  0.51802  0.76132  0.13712  1.0000
  H   H3480     1.0  0.67209  0.68695  0.19515  1.0000
  C   C1957     1.0  0.91100  0.94742  0.98920  1.0000
  S   S463      1.0  0.91599  0.67691  0.20312  1.0000
  H   H3481     1.0  0.80392  0.79462  0.18931  1.0000
  S   S464      1.0  0.57790  0.66489  0.20478  1.0000
  S   S465      1.0  0.98245  0.89560  0.98696  1.0000
  H   H3482     1.0  0.50108  0.76527  0.16749  1.0000
  H   H3483     1.0  0.61104  0.84691  0.18409  1.0000
  H   H3484     1.0  0.74060  0.72963  0.12417  1.0000
  C   C1958     1.0  0.89396  0.87558  0.98764  1.0000
  H   H3485     1.0  0.91635  0.85765  0.00257  1.0000
  H   H3486     1.0  0.91393  0.66133  0.17583  1.0000
  H   H3487     1.0  0.91117  0.73933  0.11543  1.0000
  H   H3488     1.0  0.59128  0.87390  0.16363  1.0000
  H   H3489     1.0  0.92067  0.72505  0.19896  1.0000
  H   H3490     1.0  0.56873  0.78612  0.19936  1.0000
  H   H3491     1.0  0.94433  0.71829  0.12775  1.0000
  C   C1959     1.0  0.57554  0.88559  0.18900  1.0000
  H   H3492     1.0  0.78308  0.73253  0.11805  1.0000
  H   H3493     1.0  0.59799  0.81882  0.22703  1.0000
  H   H3494     1.0  0.76104  0.73134  0.17997  1.0000
  H   H3495     1.0  0.95608  0.80779  0.10384  1.0000
  C   C1960     1.0  0.85109  0.69562  0.12160  1.0000
  H   H3496     1.0  0.70237  0.67900  0.20539  1.0000
  H   H3497     1.0  0.87896  0.88644  0.03148  1.0000
  H   H3498     1.0  0.88780  0.85014  0.00579  1.0000
  H   H3499     1.0  0.95578  0.81776  0.15157  1.0000
  C   C1961     1.0  0.52899  0.72427  0.20118  1.0000
  C   C1962     1.0  0.59335  0.84684  0.18197  1.0000
  C   C1963     1.0  0.53033  0.73987  0.21117  1.0000
  H   H3500     1.0  0.54556  0.74668  0.18431  1.0000
  H   H3501     1.0  0.54327  0.70907  0.20231  1.0000
  H   H3502     1.0  0.91626  0.83339  0.13983  1.0000
  H   H3503     1.0  0.94020  0.72804  0.14959  1.0000
  H   H3504     1.0  0.52907  0.72988  0.22167  1.0000
  H   H3505     1.0  0.54728  0.74599  0.20864  1.0000
  C   C1964     1.0  0.77512  0.71686  0.17688  1.0000
  H   H3506     1.0  0.49586  0.72209  0.18171  1.0000
  H   H3507     1.0  0.81044  0.78984  0.22084  1.0000
  H   H3508     1.0  0.85141  0.86507  0.07060  1.0000
  H   H3509     1.0  0.81088  0.81951  0.21988  1.0000
  C   C1965     1.0  0.59925  0.89188  0.18978  1.0000
  C   C1966     1.0  0.59809  0.91814  0.18665  1.0000
  H   H3510     1.0  0.60406  0.88593  0.20011  1.0000
  H   H3511     1.0  0.61347  0.88402  0.18226  1.0000
  H   H3512     1.0  0.61403  0.84993  0.14691  1.0000
  H   H3513     1.0  0.61520  0.92215  0.18737  1.0000
  H   H3514     1.0  0.59425  0.92507  0.17617  1.0000
  H   H3515     1.0  0.58445  0.92694  0.19410  1.0000
  N   N110      1.0  0.91998  0.70041  0.15427  1.0000
  C   C1967     1.0  0.90075  0.70680  0.16578  1.0000
  C   C1968     1.0  0.94149  0.70974  0.15492  1.0000
  C   C1969     1.0  0.91134  0.71205  0.14106  1.0000
  H   H3516     1.0  0.88708  0.86083  0.06005  1.0000
  C   C1970     1.0  0.53711  0.87350  0.17990  1.0000
  C   C1971     1.0  0.87690  0.70037  0.16551  1.0000
  C   C1972     1.0  0.92952  0.70962  0.12788  1.0000
  C   C1973     1.0  0.94657  0.71073  0.16925  1.0000
  H   H3517     1.0  0.85983  0.71656  0.18329  1.0000
  H   H3518     1.0  0.54490  0.75114  0.16077  1.0000
  C   C1974     1.0  0.86141  0.70002  0.17945  1.0000
  C   C1975     1.0  0.91855  0.72068  0.11516  1.0000
  H   H3519     1.0  0.89752  0.72590  0.16577  1.0000
  H   H3520     1.0  0.90604  0.69895  0.17582  1.0000
  H   H3521     1.0  0.95737  0.69993  0.14930  1.0000
  C   C1976     1.0  0.92114  0.84417  0.12982  1.0000
  C   C1977     1.0  0.96107  0.84509  0.13372  1.0000
  N   N111      1.0  0.94702  0.83810  0.12480  1.0000
  H   H3522     1.0  0.91101  0.83963  0.12291  1.0000
  H   H3523     1.0  0.58396  0.71245  0.20025  1.0000
  C   C1978     1.0  0.82389  0.76363  0.19939  1.0000
  C   C1979     1.0  0.95477  0.83684  0.14926  1.0000
  H   H3524     1.0  0.88531  0.86332  0.14900  1.0000
  N   N112      1.0  0.75505  0.71358  0.14269  1.0000
  C   C1980     1.0  0.69649  0.68972  0.14831  1.0000
  C   C1981     1.0  0.57917  0.85062  0.20595  1.0000
  H   H3525     1.0  0.88767  0.89026  0.99344  1.0000
  C   C1982     1.0  0.51213  0.71052  0.17772  1.0000
  H   H3526     1.0  0.92181  0.87711  0.13669  1.0000
  H   H3527     1.0  0.88640  0.89961  0.06150  1.0000
  H   H3528     1.0  0.86351  0.69179  0.20989  1.0000
  C   C1983     1.0  0.91140  0.87013  0.13104  1.0000
  H   H3529     1.0  0.86199  0.79637  0.19459  1.0000
  C   C1984     1.0  0.88630  0.87361  0.13858  1.0000
  H   H3530     1.0  0.97210  0.84635  0.08305  1.0000
  H   H3531     1.0  0.63065  0.84900  0.16018  1.0000
  C   C1985     1.0  0.82132  0.78938  0.19262  1.0000
  C   C1986     1.0  0.95224  0.85084  0.11049  1.0000
  H   H3532     1.0  0.87464  0.86840  0.13286  1.0000
  H   H3533     1.0  0.90711  0.87375  0.04668  1.0000
  H   H3534     1.0  0.57988  0.72664  0.17693  1.0000
  C   C1987     1.0  0.63271  0.67507  0.21977  1.0000
  H   H3535     1.0  0.85958  0.69487  0.11118  1.0000
  C   C1988     1.0  0.53243  0.73914  0.16185  1.0000
  H   H3536     1.0  0.56793  0.86198  0.21315  1.0000
  N   N113      1.0  0.57469  0.86000  0.19152  1.0000
  H   H3537     1.0  0.88000  0.89222  0.13949  1.0000
  H   H3538     1.0  0.94103  0.84719  0.10382  1.0000
  C   C1989     1.0  0.89871  0.84278  0.04289  1.0000
  C   C1990     1.0  0.55528  0.70555  0.17412  1.0000
  H   H3539     1.0  0.77906  0.75183  0.13024  1.0000
  H   H3540     1.0  0.97043  0.86208  0.15559  1.0000
  H   H3541     1.0  0.94751  0.86992  0.11033  1.0000
  H   H3542     1.0  0.91132  0.88075  0.12075  1.0000
  H   H3543     1.0  0.78158  0.69006  0.16449  1.0000
  C   C1991     1.0  0.57528  0.82546  0.21160  1.0000
  C   C1992     1.0  0.77425  0.69519  0.13718  1.0000
  C   C1993     1.0  0.95140  0.72529  0.20728  1.0000
  H   H3544     1.0  0.55709  0.69372  0.18384  1.0000
  H   H3545     1.0  0.89142  0.77091  0.20825  1.0000
  C   C1994     1.0  0.56548  0.78979  0.17826  1.0000
  C   C1995     1.0  0.54969  0.79416  0.16898  1.0000
  H   H3546     1.0  0.58738  0.81327  0.20541  1.0000
  C   C1996     1.0  0.73341  0.70374  0.14948  1.0000
  H   H3547     1.0  0.69184  0.67909  0.18023  1.0000
  H   H3548     1.0  0.57842  0.72655  0.15937  1.0000
  H   H3549     1.0  0.81722  0.90047  0.08663  1.0000
  H   H3550     1.0  0.80295  0.83335  0.18860  1.0000
  C   C1997     1.0  0.55069  0.85629  0.19049  1.0000
  H   H3551     1.0  0.55630  0.79418  0.15823  1.0000
  C   C1998     1.0  0.57805  0.71579  0.16962  1.0000
  H   H3552     1.0  0.51184  0.71863  0.20438  1.0000
  C   C1999     1.0  0.92590  0.67451  0.15417  1.0000
  H   H3553     1.0  0.97292  0.87466  0.08664  1.0000
  C   C2000     1.0  0.77008  0.74526  0.12357  1.0000
  C   C2001     1.0  0.59836  0.67803  0.20939  1.0000
  H   H3554     1.0  0.78060  0.72838  0.14930  1.0000
  H   H3555     1.0  0.51489  0.75106  0.18627  1.0000
  C   C2002     1.0  0.93648  0.69054  0.20728  1.0000
  C   C2003     1.0  0.85542  0.78481  0.21651  1.0000
  H   H3556     1.0  0.95536  0.82118  0.99894  1.0000
  S   S466      1.0  0.99194  0.88760  0.02569  1.0000
  C   C2004     1.0  0.88161  0.77992  0.21684  1.0000
  C   C2005     1.0  0.55676  0.79006  0.19209  1.0000
  H   H3557     1.0  0.89649  0.92783  0.07313  1.0000
  H   H3558     1.0  0.55179  0.83840  0.18844  1.0000
  C   C2006     1.0  0.86983  0.93534  0.05995  1.0000
  C   C2007     1.0  0.83979  0.89973  0.05952  1.0000
  H   H3559     1.0  0.81737  0.91388  0.03643  1.0000
  H   H3560     1.0  0.80369  0.68778  0.11195  1.0000
  H   H3561     1.0  0.86906  0.68534  0.18676  1.0000
  H   H3562     1.0  0.73849  0.68585  0.15500  1.0000
  H   H3563     1.0  0.95634  0.65870  0.21644  1.0000
  C   C2008     1.0  0.72510  0.65810  0.21868  1.0000
  C   C2009     1.0  0.82852  0.93485  0.01756  1.0000
  C   C2010     1.0  0.98075  0.85589  0.08837  1.0000
  H   H3564     1.0  0.57705  0.79997  0.23000  1.0000
  H   H3565     1.0  0.55517  0.69410  0.16666  1.0000
  H   H3566     1.0  0.84997  0.76808  0.21714  1.0000
  C   C2011     1.0  0.82367  0.88298  0.08366  1.0000
  H   H3567     1.0  0.86643  0.92699  0.02952  1.0000
  C   C2012     1.0  0.85609  0.67772  0.21712  1.0000
  H   H3568     1.0  0.93652  0.69113  0.12697  1.0000
  H   H3569     1.0  0.88790  0.79640  0.21615  1.0000
  H   H3570     1.0  0.82969  0.91654  0.06240  1.0000
  H   H3571     1.0  0.91980  0.91040  0.99124  1.0000
  H   H3572     1.0  0.79127  0.72390  0.17233  1.0000
  C   C2013     1.0  0.74915  0.73414  0.13182  1.0000
  H   H3573     1.0  0.74723  0.81597  0.22547  1.0000
  C   C2014     1.0  0.53247  0.79524  0.19653  1.0000
  H   H3574     1.0  0.97218  0.73335  0.16172  1.0000
  C   C2015     1.0  0.52541  0.79862  0.17347  1.0000
  H   H3575     1.0  0.60115  0.68557  0.17868  1.0000
  C   C2016     1.0  0.97074  0.71644  0.16839  1.0000
  H   H3576     1.0  0.61554  0.70446  0.16519  1.0000
  C   C2017     1.0  0.78134  0.81266  0.21270  1.0000
  H   H3577     1.0  0.81421  0.85921  0.16736  1.0000
  C   C2018     1.0  0.52297  0.65561  0.15595  1.0000
  H   H3578     1.0  0.49590  0.74421  0.15860  1.0000
  H   H3579     1.0  0.72396  0.69434  0.13138  1.0000
  H   H3580     1.0  0.84215  0.82277  0.17303  1.0000
  H   H3581     1.0  0.72875  0.66478  0.18721  1.0000
  C   C2019     1.0  0.51668  0.79907  0.18728  1.0000
  C   C2020     1.0  0.96956  0.71192  0.21395  1.0000
  H   H3582     1.0  0.68629  0.69898  0.15670  1.0000
  H   H3583     1.0  0.53850  0.72908  0.15321  1.0000
  C   C2021     1.0  0.50869  0.75477  0.15927  1.0000
  H   H3584     1.0  0.68647  0.80092  0.22371  1.0000
  H   H3585     1.0  0.93685  0.84533  0.15322  1.0000
  C   C2022     1.0  0.59966  0.69658  0.16862  1.0000
  H   H3586     1.0  0.51343  0.80244  0.16621  1.0000
  C   C2023     1.0  0.97124  0.68789  0.21717  1.0000
  H   H3587     1.0  0.87889  0.68309  0.16251  1.0000
  H   H3588     1.0  0.52124  0.84840  0.17364  1.0000
  C   C2024     1.0  0.83031  0.85949  0.17133  1.0000
  H   H3589     1.0  0.94485  0.76935  0.10850  1.0000
  H   H3590     1.0  0.52191  0.68574  0.19625  1.0000
  C   C2025     1.0  0.65610  0.67665  0.18084  1.0000
  C   C2026     1.0  0.77018  0.68527  0.12499  1.0000
  C   C2027     1.0  0.80766  0.80676  0.21405  1.0000
  H   H3591     1.0  0.84223  0.93838  0.04124  1.0000
  H   H3592     1.0  0.77772  0.67998  0.14527  1.0000
  H   H3593     1.0  0.81794  0.84418  0.19891  1.0000
  C   C2028     1.0  0.83289  0.67677  0.14325  1.0000
  H   H3594     1.0  0.85414  0.81859  0.20498  1.0000
  C   C2029     1.0  0.76374  0.72242  0.15343  1.0000
  H   H3595     1.0  0.77657  0.83072  0.20747  1.0000
  C   C2030     1.0  0.84403  0.67573  0.12983  1.0000
  H   H3596     1.0  0.72308  0.71429  0.15736  1.0000
  S   S467      1.0  0.99020  0.72482  0.21845  1.0000
  H   H3597     1.0  0.52590  0.79568  0.20722  1.0000
  H   H3598     1.0  0.92358  0.94811  0.99584  1.0000
  H   H3599     1.0  0.78998  0.66512  0.10939  1.0000
  H   H3600     1.0  0.81593  0.93011  0.01226  1.0000
  C   C2031     1.0  0.84952  0.80214  0.20358  1.0000
  H   H3601     1.0  0.85520  0.83688  0.18287  1.0000
  C   C2032     1.0  0.87126  0.88192  0.04241  1.0000
  H   H3602     1.0  0.97273  0.80605  0.12479  1.0000
  H   H3603     1.0  0.82679  0.87361  0.17756  1.0000
  H   H3604     1.0  0.93199  0.71926  0.10590  1.0000
  H   H3605     1.0  0.81394  0.76142  0.20986  1.0000
  H   H3606     1.0  0.80369  0.66157  0.12425  1.0000
  H   H3607     1.0  0.81742  0.73094  0.19593  1.0000
  H   H3608     1.0  0.75153  0.69863  0.17183  1.0000
  H   H3609     1.0  0.82445  0.75082  0.18052  1.0000
  C   C2033     1.0  0.81487  0.74948  0.19115  1.0000
  N   N114      1.0  0.86029  0.90378  0.04851  1.0000
  H   H3610     1.0  0.84263  0.75611  0.19961  1.0000
  H   H3611     1.0  0.79592  0.75585  0.19085  1.0000
  C   C2034     1.0  0.71560  0.70286  0.14032  1.0000
  C   C2035     1.0  0.81985  0.83053  0.19245  1.0000
  H   H3612     1.0  0.84406  0.86319  0.16249  1.0000
  C   C2036     1.0  0.96746  0.85383  0.99398  1.0000
  H   H3613     1.0  0.84466  0.93705  0.01014  1.0000
  H   H3614     1.0  0.94217  0.67003  0.14689  1.0000
  H   H3615     1.0  0.89350  0.94765  0.99560  1.0000
  H   H3616     1.0  0.97355  0.71767  0.17874  1.0000
  H   H3617     1.0  0.98501  0.67748  0.22249  1.0000
  H   H3618     1.0  0.84653  0.79230  0.22581  1.0000
  C   C2037     1.0  0.90250  0.85425  0.99767  1.0000
  H   H3619     1.0  0.50554  0.87782  0.17113  1.0000
  C   C2038     1.0  0.65566  0.82663  0.22824  1.0000
  C   C2039     1.0  0.79331  0.67425  0.11718  1.0000
  H   H3620     1.0  0.51564  0.75493  0.21096  1.0000
  C   C2040     1.0  0.57973  0.81811  0.22633  1.0000
  C   C2041     1.0  0.89156  0.86535  0.04887  1.0000
  Fe  Fe234     1.0  0.98506  0.92452  0.02924  1.0000
  H   H3621     1.0  0.83722  0.67983  0.21661  1.0000
  H   H3622     1.0  0.98966  0.83435  0.15397  1.0000
  H   H3623     1.0  0.85551  0.93324  0.06868  1.0000
  C   C2042     1.0  0.85142  0.92218  0.03726  1.0000
  H   H3624     1.0  0.84131  0.89940  0.02540  1.0000
  C   C2043     1.0  0.87840  0.91270  0.05363  1.0000
  H   H3625     1.0  0.52552  0.67297  0.18147  1.0000
  H   H3626     1.0  0.91222  0.66874  0.15022  1.0000
  C   C2044     1.0  0.88958  0.94187  0.06522  1.0000
  H   H3627     1.0  0.80960  0.87750  0.07996  1.0000
  H   H3628     1.0  0.90395  0.94523  0.05670  1.0000
  H   H3629     1.0  0.94495  0.66154  0.17151  1.0000
  H   H3630     1.0  0.88295  0.95796  0.06981  1.0000
  H   H3631     1.0  0.98457  0.70263  0.16434  1.0000
  C   C2045     1.0  0.71996  0.67569  0.22850  1.0000
  C   C2046     1.0  0.76592  0.81068  0.22669  1.0000
  C   C2047     1.0  0.61600  0.66462  0.21639  1.0000
  H   H3632     1.0  0.50420  0.86124  0.18807  1.0000
  H   H3633     1.0  0.96948  0.76876  0.11663  1.0000
  H   H3634     1.0  0.71710  0.69371  0.22287  1.0000
  H   H3635     1.0  0.87894  0.87200  0.98390  1.0000
  H   H3636     1.0  0.85770  0.87161  0.04244  1.0000
  H   H3637     1.0  0.77859  0.70406  0.18612  1.0000
  C   C2048     1.0  0.83408  0.91579  0.02956  1.0000
  H   H3638     1.0  0.96641  0.83698  0.16825  1.0000
  H   H3639     1.0  0.64609  0.66462  0.22538  1.0000
  H   H3640     1.0  0.64081  0.67197  0.18828  1.0000
  H   H3641     1.0  0.64737  0.77169  0.23013  1.0000
  H   H3642     1.0  0.98872  0.85484  0.10829  1.0000
  H   H3643     1.0  0.74099  0.66147  0.21138  1.0000
  H   H3644     1.0  0.66031  0.66537  0.17285  1.0000
  C   C2049     1.0  0.67672  0.81197  0.23097  1.0000
  H   H3645     1.0  0.68822  0.66029  0.21875  1.0000
  C   C2050     1.0  0.92959  0.65861  0.16790  1.0000
  C   C2051     1.0  0.70433  0.66091  0.21098  1.0000
  H   H3646     1.0  0.86523  0.66083  0.21399  1.0000
  S   S468      1.0  0.98923  0.79164  0.21381  1.0000
  H   H3647     1.0  0.52441  0.67326  0.15030  1.0000
  C   C2052     1.0  0.89868  0.98461  0.01590  1.0000
  H   H3648     1.0  0.93546  0.98462  0.01404  1.0000
  H   H3649     1.0  0.95051  0.97734  0.98352  1.0000
  H   H3650     1.0  0.98156  0.65610  0.18568  1.0000
  H   H3651     1.0  0.50088  0.66076  0.12017  1.0000
  H   H3652     1.0  0.51140  0.65706  0.16588  1.0000
  C   C2053     1.0  0.85963  0.67827  0.23158  1.0000
  H   H3653     1.0  0.87861  0.67405  0.23188  1.0000
  H   H3654     1.0  0.89764  0.70168  0.23160  1.0000
  H   H3655     1.0  0.50940  0.65646  0.09469  1.0000
  C   C2054     1.0  0.51213  0.82634  0.23194  1.0000
  H   H3656     1.0  0.56756  0.82955  0.23308  1.0000
  H   H3657     1.0  0.76978  0.82220  0.23303  1.0000
  C   C2055     1.0  0.56041  0.83434  0.35009  1.0000
  H   H3658     1.0  0.51099  0.67755  0.43363  1.0000
  C   C2056     1.0  0.74819  0.72469  0.24573  1.0000
  H   H3659     1.0  0.55050  0.96627  0.46677  1.0000
  S   S469      1.0  0.61770  0.92116  0.40183  1.0000
  Fe  Fe235     1.0  0.65126  0.91391  0.36527  1.0000
  S   S470      1.0  0.62094  0.89668  0.37512  1.0000
  S   S471      1.0  0.66448  0.90978  0.34294  1.0000
  Fe  Fe236     1.0  0.60366  0.93026  0.38220  1.0000
  H   H3660     1.0  0.52203  0.95048  0.42576  1.0000
  Fe  Fe237     1.0  0.63728  0.88889  0.39392  1.0000
  S   S472      1.0  0.63419  0.85501  0.40756  1.0000
  S   S473      1.0  0.66927  0.90359  0.38381  1.0000
  C   C2057     1.0  0.83281  0.79484  0.26428  1.0000
  Fe  Fe238     1.0  0.75299  0.77313  0.28326  1.0000
  S   S474      1.0  0.71918  0.79113  0.29401  1.0000
  S   S475      1.0  0.76916  0.73557  0.28285  1.0000
  Fe  Fe239     1.0  0.73999  0.81589  0.29782  1.0000
  S   S476      1.0  0.73634  0.82555  0.31896  1.0000
  S   S477      1.0  0.74887  0.79429  0.26276  1.0000
  S   S478      1.0  0.77423  0.79533  0.28899  1.0000
  C   C2058     1.0  0.51522  0.80647  0.38638  1.0000
  H   H3661     1.0  0.71223  0.78454  0.45982  1.0000
  H   H3662     1.0  0.69932  0.80577  0.43993  1.0000
  H   H3663     1.0  0.53354  0.98297  0.36587  1.0000
  C   C2059     1.0  0.82987  0.78137  0.30472  1.0000
  H   H3664     1.0  0.64225  0.97080  0.47841  1.0000
  H   H3665     1.0  0.59368  0.96792  0.43989  1.0000
  H   H3666     1.0  0.58883  0.97771  0.46366  1.0000
  H   H3667     1.0  0.55137  0.81087  0.41588  1.0000
  C   C2060     1.0  0.57301  0.68197  0.43732  1.0000
  H   H3668     1.0  0.60193  0.70059  0.48258  1.0000
  C   C2061     1.0  0.57491  0.81790  0.47306  1.0000
  H   H3669     1.0  0.61945  0.78876  0.43606  1.0000
  H   H3670     1.0  0.63546  0.82598  0.38320  1.0000
  H   H3671     1.0  0.93395  0.70430  0.23915  1.0000
  H   H3672     1.0  0.63537  0.89374  0.45557  1.0000
  C   C2062     1.0  0.64245  0.72144  0.47445  1.0000
  S   S479      1.0  0.68344  0.83804  0.45919  1.0000
  H   H3673     1.0  0.65556  0.81944  0.36800  1.0000
  H   H3674     1.0  0.53717  0.82507  0.39302  1.0000
  H   H3675     1.0  0.51830  0.94870  0.37758  1.0000
  H   H3676     1.0  0.62519  0.76901  0.45142  1.0000
  C   C2063     1.0  0.51186  0.67308  0.46908  1.0000
  H   H3677     1.0  0.81870  0.78851  0.27142  1.0000
  Fe  Fe240     1.0  0.64808  0.93715  0.39026  1.0000
  C   C2064     1.0  0.49643  0.92656  0.47208  1.0000
  C   C2065     1.0  0.55174  0.98371  0.46844  1.0000
  C   C2066     1.0  0.54522  0.65674  0.45202  1.0000
  H   H3678     1.0  0.78101  0.86683  0.30451  1.0000
  S   S480      1.0  0.79910  0.82963  0.25370  1.0000
  S   S481      1.0  0.63253  0.94887  0.37093  1.0000
  C   C2067     1.0  0.54790  0.82402  0.43452  1.0000
  H   H3679     1.0  0.69256  0.86770  0.35602  1.0000
  C   C2068     1.0  0.51088  0.79692  0.43179  1.0000
  S   S482      1.0  0.69771  0.66709  0.29825  1.0000
  H   H3680     1.0  0.58484  0.81577  0.42588  1.0000
  H   H3681     1.0  0.61488  0.88209  0.31953  1.0000
  H   H3682     1.0  0.63738  0.72755  0.46449  1.0000
  H   H3683     1.0  0.55523  0.83707  0.33985  1.0000
  H   H3684     1.0  0.60577  0.83291  0.34019  1.0000
  C   C2069     1.0  0.70891  0.65680  0.33716  1.0000
  C   C2070     1.0  0.56576  0.92305  0.44569  1.0000
  H   H3685     1.0  0.70164  0.80101  0.24513  1.0000
  C   C2071     1.0  0.87467  0.79219  0.25626  1.0000
  C   C2072     1.0  0.67057  0.77699  0.45048  1.0000
  H   H3686     1.0  0.57579  0.89460  0.38727  1.0000
  H   H3687     1.0  0.67600  0.76599  0.24918  1.0000
  H   H3688     1.0  0.82701  0.77581  0.29542  1.0000
  C   C2073     1.0  0.70543  0.97299  0.47111  1.0000
  H   H3689     1.0  0.66674  0.79321  0.45505  1.0000
  Fe  Fe241     1.0  0.76886  0.81740  0.26893  1.0000
  C   C2074     1.0  0.74937  0.71652  0.28764  1.0000
  C   C2075     1.0  0.72786  0.72248  0.29587  1.0000
  C   C2076     1.0  0.71219  0.70696  0.29944  1.0000
  C   C2077     1.0  0.71776  0.68587  0.29441  1.0000
  C   C2078     1.0  0.73922  0.67998  0.28616  1.0000
  C   C2079     1.0  0.75516  0.69514  0.28296  1.0000
  H   H3690     1.0  0.72345  0.73889  0.29961  1.0000
  H   H3691     1.0  0.69566  0.71143  0.30592  1.0000
  H   H3692     1.0  0.63652  0.78832  0.24395  1.0000
  H   H3693     1.0  0.77181  0.69049  0.27661  1.0000
  H   H3694     1.0  0.59069  0.85637  0.32985  1.0000
  C   C2080     1.0  0.49643  0.67455  0.44206  1.0000
  C   C2081     1.0  0.68413  0.88587  0.33658  1.0000
  C   C2082     1.0  0.69554  0.86751  0.34516  1.0000
  C   C2083     1.0  0.71129  0.84909  0.33962  1.0000
  C   C2084     1.0  0.71546  0.84855  0.32550  1.0000
  C   C2085     1.0  0.70363  0.86664  0.31697  1.0000
  C   C2086     1.0  0.68827  0.88530  0.32248  1.0000
  H   H3695     1.0  0.91534  0.73227  0.23640  1.0000
  H   H3696     1.0  0.72039  0.83521  0.34630  1.0000
  H   H3697     1.0  0.70666  0.86649  0.30610  1.0000
  H   H3698     1.0  0.67958  0.89943  0.31575  1.0000
  C   C2087     1.0  0.64712  0.85286  0.42196  1.0000
  C   C2088     1.0  0.63480  0.84646  0.43492  1.0000
  C   C2089     1.0  0.64546  0.84330  0.44648  1.0000
  C   C2090     1.0  0.66874  0.84568  0.44507  1.0000
  C   C2091     1.0  0.68089  0.85268  0.43213  1.0000
  C   C2092     1.0  0.66997  0.85658  0.42058  1.0000
  H   H3699     1.0  0.61702  0.84390  0.43601  1.0000
  H   H3700     1.0  0.63574  0.83861  0.45642  1.0000
  H   H3701     1.0  0.69888  0.85459  0.43099  1.0000
  H   H3702     1.0  0.67950  0.86162  0.41056  1.0000
  H   H3703     1.0  0.65337  0.67756  0.25692  1.0000
  C   C2093     1.0  0.62738  0.87279  0.32654  1.0000
  C   C2094     1.0  0.64307  0.85256  0.31956  1.0000
  C   C2095     1.0  0.54206  0.98795  0.41038  1.0000
  H   H3704     1.0  0.52873  0.75382  0.44651  1.0000
  H   H3705     1.0  0.56336  0.94117  0.44758  1.0000
  H   H3706     1.0  0.87668  0.88360  0.25532  1.0000
  H   H3707     1.0  0.69976  0.72051  0.45815  1.0000
  H   H3708     1.0  0.69003  0.98577  0.46815  1.0000
  H   H3709     1.0  0.55429  0.86529  0.38426  1.0000
  C   C2096     1.0  0.53989  0.91098  0.46806  1.0000
  C   C2097     1.0  0.59698  0.85142  0.33988  1.0000
  H   H3710     1.0  0.63874  0.88532  0.32673  1.0000
  H   H3711     1.0  0.85958  0.76959  0.27337  1.0000
  H   H3712     1.0  0.62563  0.90566  0.47128  1.0000
  C   C2098     1.0  0.51194  0.96808  0.42703  1.0000
  H   H3713     1.0  0.62452  0.79970  0.45037  1.0000
  H   H3714     1.0  0.49977  0.97363  0.41948  1.0000
  C   C2099     1.0  0.67255  0.82643  0.25245  1.0000
  H   H3715     1.0  0.58042  0.98319  0.39226  1.0000
  H   H3716     1.0  0.68889  0.74272  0.47330  1.0000
  S   S483      1.0  0.56525  0.94495  0.38243  1.0000
  N   N115      1.0  0.82395  0.84786  0.29021  1.0000
  C   C2100     1.0  0.84437  0.84625  0.27870  1.0000
  C   C2101     1.0  0.81817  0.82396  0.29532  1.0000
  C   C2102     1.0  0.80304  0.86285  0.28443  1.0000
  H   H3717     1.0  0.49636  0.91931  0.37504  1.0000
  H   H3718     1.0  0.71405  0.90629  0.47648  1.0000
  C   C2103     1.0  0.84955  0.86972  0.27030  1.0000
  C   C2104     1.0  0.68995  0.94076  0.46466  1.0000
  C   C2105     1.0  0.83745  0.80500  0.30120  1.0000
  H   H3719     1.0  0.52742  0.87097  0.47129  1.0000
  C   C2106     1.0  0.76093  0.88414  0.28876  1.0000
  C   C2107     1.0  0.87376  0.86670  0.26156  1.0000
  H   H3720     1.0  0.84371  0.76815  0.30920  1.0000
  H   H3721     1.0  0.84136  0.83611  0.27132  1.0000
  H   H3722     1.0  0.86062  0.83629  0.28233  1.0000
  H   H3723     1.0  0.80281  0.82453  0.30362  1.0000
  H   H3724     1.0  0.81307  0.81760  0.28692  1.0000
  H   H3725     1.0  0.80069  0.85668  0.27515  1.0000
  C   C2108     1.0  0.54419  0.91259  0.45230  1.0000
  H   H3726     1.0  0.52572  0.71046  0.47845  1.0000
  H   H3727     1.0  0.87524  0.85408  0.25455  1.0000
  C   C2109     1.0  0.57777  0.71362  0.46881  1.0000
  C   C2110     1.0  0.54447  0.79608  0.47412  1.0000
  H   H3728     1.0  0.83658  0.87684  0.26328  1.0000
  H   H3729     1.0  0.84848  0.88269  0.27700  1.0000
  H   H3730     1.0  0.64168  0.73538  0.24746  1.0000
  C   C2111     1.0  0.52504  0.67359  0.48075  1.0000
  H   H3731     1.0  0.85397  0.80305  0.29386  1.0000
  H   H3732     1.0  0.84061  0.80913  0.31081  1.0000
  H   H3733     1.0  0.74390  0.88383  0.29562  1.0000
  H   H3734     1.0  0.81347  0.78209  0.31224  1.0000
  H   H3735     1.0  0.91735  0.71717  0.25356  1.0000
  H   H3736     1.0  0.50403  0.75114  0.43930  1.0000
  C   C2112     1.0  0.82826  0.85838  0.30172  1.0000
  H   H3737     1.0  0.85911  0.68788  0.26935  1.0000
  H   H3738     1.0  0.74362  0.66375  0.28224  1.0000
  H   H3739     1.0  0.57975  0.93235  0.35029  1.0000
  H   H3740     1.0  0.59761  0.91581  0.32866  1.0000
  H   H3741     1.0  0.66726  0.90538  0.47439  1.0000
  H   H3742     1.0  0.86452  0.86419  0.29605  1.0000
  H   H3743     1.0  0.61556  0.92121  0.45578  1.0000
  H   H3744     1.0  0.66339  0.76388  0.45856  1.0000
  H   H3745     1.0  0.71595  0.96039  0.45194  1.0000
  C   C2113     1.0  0.70506  0.78903  0.43598  1.0000
  C   C2114     1.0  0.70315  0.74782  0.44032  1.0000
  C   C2115     1.0  0.69276  0.72668  0.44846  1.0000
  C   C2116     1.0  0.65578  0.78140  0.43887  1.0000
  C   C2117     1.0  0.69923  0.70633  0.44050  1.0000
  H   H3746     1.0  0.61642  0.89764  0.34742  1.0000
  H   H3747     1.0  0.69713  0.79137  0.42660  1.0000
  H   H3748     1.0  0.69830  0.75121  0.42994  1.0000
  H   H3749     1.0  0.72243  0.74195  0.43873  1.0000
  H   H3750     1.0  0.67349  0.73091  0.45052  1.0000
  H   H3751     1.0  0.65888  0.79738  0.43165  1.0000
  H   H3752     1.0  0.65992  0.76659  0.43316  1.0000
  H   H3753     1.0  0.55040  0.97035  0.40794  1.0000
  H   H3754     1.0  0.71850  0.70083  0.43828  1.0000
  H   H3755     1.0  0.69170  0.69137  0.44667  1.0000
  H   H3756     1.0  0.69203  0.71110  0.43079  1.0000
  H   H3757     1.0  0.58142  0.91245  0.44978  1.0000
  C   C2118     1.0  0.63073  0.91001  0.46008  1.0000
  N   N116      1.0  0.69484  0.91793  0.45936  1.0000
  C   C2119     1.0  0.67258  0.90815  0.46309  1.0000
  S   S484      1.0  0.63234  0.80626  0.47998  1.0000
  C   C2120     1.0  0.64822  0.69748  0.47894  1.0000
  C   C2121     1.0  0.70244  0.92272  0.44413  1.0000
  C   C2122     1.0  0.70528  0.90214  0.43636  1.0000
  C   C2123     1.0  0.65127  0.92286  0.45671  1.0000
  H   H3758     1.0  0.66690  0.66332  0.27168  1.0000
  H   H3759     1.0  0.63584  0.67314  0.27352  1.0000
  C   C2124     1.0  0.71009  0.90991  0.42094  1.0000
  N   N117      1.0  0.51610  0.90644  0.47516  1.0000
  H   H3760     1.0  0.65957  0.87526  0.30257  1.0000
  C   C2125     1.0  0.71390  0.87547  0.46899  1.0000
  H   H3761     1.0  0.67527  0.89067  0.46018  1.0000
  H   H3762     1.0  0.75741  0.80486  0.41803  1.0000
  H   H3763     1.0  0.53570  0.69239  0.44089  1.0000
  H   H3764     1.0  0.67664  0.95353  0.45948  1.0000
  H   H3765     1.0  0.69017  0.93756  0.43938  1.0000
  H   H3766     1.0  0.71957  0.92855  0.44171  1.0000
  H   H3767     1.0  0.68929  0.89450  0.43853  1.0000
  H   H3768     1.0  0.72031  0.88858  0.43910  1.0000
  H   H3769     1.0  0.86894  0.67103  0.25619  1.0000
  H   H3770     1.0  0.65554  0.92665  0.44543  1.0000
  H   H3771     1.0  0.68017  0.74242  0.24040  1.0000
  H   H3772     1.0  0.51982  0.77253  0.41722  1.0000
  H   H3773     1.0  0.71365  0.86902  0.45953  1.0000
  H   H3774     1.0  0.69517  0.92303  0.41752  1.0000
  H   H3775     1.0  0.72624  0.91743  0.41797  1.0000
  H   H3776     1.0  0.71231  0.89479  0.41562  1.0000
  H   H3777     1.0  0.61418  0.82789  0.36425  1.0000
  C   C2126     1.0  0.80278  0.76155  0.25184  1.0000
  S   S485      1.0  0.97058  0.76666  0.24499  1.0000
  H   H3778     1.0  0.81721  0.85226  0.31143  1.0000
  C   C2127     1.0  0.60285  0.88830  0.34614  1.0000
  C   C2128     1.0  0.51373  0.91393  0.37765  1.0000
  N   N118      1.0  0.85186  0.70631  0.24958  1.0000
  C   C2129     1.0  0.87317  0.71720  0.24800  1.0000
  C   C2130     1.0  0.83102  0.72317  0.25531  1.0000
  H   H3779     1.0  0.53796  0.79579  0.40128  1.0000
  H   H3780     1.0  0.72900  0.81199  0.41285  1.0000
  H   H3781     1.0  0.55980  0.93685  0.33827  1.0000
  H   H3782     1.0  0.74826  0.74342  0.24194  1.0000
  H   H3783     1.0  0.84536  0.85181  0.32650  1.0000
  H   H3784     1.0  0.88415  0.81727  0.23881  1.0000
  H   H3785     1.0  0.59272  0.88475  0.35650  1.0000
  H   H3786     1.0  0.73374  0.82270  0.42744  1.0000
  C   C2131     1.0  0.72329  0.71989  0.24834  1.0000
  H   H3787     1.0  0.84726  0.88078  0.31739  1.0000
  H   H3788     1.0  0.57849  0.84950  0.36135  1.0000
  H   H3789     1.0  0.80108  0.76231  0.26286  1.0000
  H   H3790     1.0  0.87458  0.72176  0.25795  1.0000
  H   H3791     1.0  0.83260  0.72538  0.26577  1.0000
  H   H3792     1.0  0.81464  0.71623  0.25652  1.0000
  C   C2132     1.0  0.73832  0.80773  0.42179  1.0000
  C   C2133     1.0  0.54898  0.92376  0.38204  1.0000
  H   H3793     1.0  0.54960  0.69088  0.45518  1.0000
  H   H3794     1.0  0.97666  0.69693  0.24888  1.0000
  H   H3795     1.0  0.81968  0.68269  0.27224  1.0000
  H   H3796     1.0  0.87345  0.85936  0.31917  1.0000
  C   C2134     1.0  0.59035  0.97204  0.41845  1.0000
  C   C2135     1.0  0.64327  0.84101  0.23760  1.0000
  H   H3797     1.0  0.57417  0.69616  0.46889  1.0000
  C   C2136     1.0  0.85386  0.85416  0.30438  1.0000
  C   C2137     1.0  0.71117  0.95305  0.46284  1.0000
  H   H3798     1.0  0.71432  0.69184  0.33653  1.0000
  C   C2138     1.0  0.82662  0.74777  0.24672  1.0000
  C   C2139     1.0  0.55879  0.90013  0.38426  1.0000
  C   C2140     1.0  0.56685  0.80061  0.46876  1.0000
  H   H3799     1.0  0.54427  0.83600  0.35781  1.0000
  H   H3800     1.0  0.86238  0.83571  0.30498  1.0000
  C   C2141     1.0  0.86988  0.81089  0.24588  1.0000
  H   H3801     1.0  0.83989  0.75778  0.24750  1.0000
  C   C2142     1.0  0.64262  0.83330  0.37265  1.0000
  H   H3802     1.0  0.82251  0.87760  0.29997  1.0000
  H   H3803     1.0  0.51058  0.88947  0.45934  1.0000
  N   N119      1.0  0.68186  0.73248  0.26198  1.0000
  C   C2143     1.0  0.67128  0.74062  0.27544  1.0000
  C   C2144     1.0  0.67889  0.70774  0.26255  1.0000
  C   C2145     1.0  0.70772  0.73293  0.25974  1.0000
  C   C2146     1.0  0.67178  0.74843  0.25022  1.0000
  C   C2147     1.0  0.64523  0.75106  0.25047  1.0000
  C   C2148     1.0  0.67407  0.76532  0.27671  1.0000
  C   C2149     1.0  0.63221  0.85280  0.34951  1.0000
  C   C2150     1.0  0.65571  0.70072  0.27065  1.0000
  C   C2151     1.0  0.65288  0.67726  0.26798  1.0000
  Fe  Fe242     1.0  0.65985  0.82748  0.47857  1.0000
  C   C2152     1.0  0.66318  0.77113  0.29089  1.0000
  N   N120      1.0  0.61435  0.86609  0.34069  1.0000
  H   H3804     1.0  0.67897  0.72821  0.28380  1.0000
  H   H3805     1.0  0.65234  0.74036  0.27796  1.0000
  H   H3806     1.0  0.61546  0.94881  0.43010  1.0000
  H   H3807     1.0  0.69275  0.69536  0.26763  1.0000
  H   H3808     1.0  0.71505  0.72526  0.26928  1.0000
  H   H3809     1.0  0.71077  0.75114  0.25726  1.0000
  H   H3810     1.0  0.77249  0.84792  0.29531  1.0000
  S   S486      1.0  0.50913  0.86949  0.37697  1.0000
  H   H3811     1.0  0.63490  0.75363  0.26057  1.0000
  H   H3812     1.0  0.76601  0.90111  0.28836  1.0000
  H   H3813     1.0  0.69271  0.76687  0.27518  1.0000
  H   H3814     1.0  0.66521  0.77860  0.26918  1.0000
  H   H3815     1.0  0.82715  0.74681  0.23585  1.0000
  H   H3816     1.0  0.75161  0.86403  0.46779  1.0000
  H   H3817     1.0  0.65569  0.69918  0.28178  1.0000
  H   H3818     1.0  0.64012  0.71346  0.26811  1.0000
  H   H3819     1.0  0.50271  0.82182  0.38244  1.0000
  H   H3820     1.0  0.54727  0.89492  0.44956  1.0000
  S   S487      1.0  0.53535  0.77365  0.46896  1.0000
  H   H3821     1.0  0.85174  0.66411  0.23836  1.0000
  H   H3822     1.0  0.88758  0.86044  0.26808  1.0000
  H   H3823     1.0  0.66521  0.78895  0.29148  1.0000
  H   H3824     1.0  0.64425  0.77049  0.29297  1.0000
  H   H3825     1.0  0.67209  0.75881  0.29882  1.0000
  H   H3826     1.0  0.57895  0.82890  0.44106  1.0000
  H   H3827     1.0  0.75871  0.88235  0.27840  1.0000
  H   H3828     1.0  0.53314  0.73749  0.43276  1.0000
  Fe  Fe243     1.0  0.71703  0.81448  0.27382  1.0000
  H   H3829     1.0  0.64281  0.83752  0.34508  1.0000
  C   C2153     1.0  0.77930  0.86421  0.29423  1.0000
  C   C2154     1.0  0.71419  0.90188  0.46626  1.0000
  C   C2155     1.0  0.84659  0.82187  0.24493  1.0000
  C   C2156     1.0  0.62966  0.78491  0.44458  1.0000
  C   C2157     1.0  0.65147  0.84065  0.24969  1.0000
  H   H3830     1.0  0.64148  0.85169  0.25691  1.0000
  H   H3831     1.0  0.90045  0.68532  0.24841  1.0000
  H   H3832     1.0  0.66252  0.84585  0.29976  1.0000
  H   H3833     1.0  0.68229  0.93839  0.47567  1.0000
  C   C2158     1.0  0.57271  0.82911  0.43139  1.0000
  H   H3834     1.0  0.53072  0.96840  0.35248  1.0000
  C   C2159     1.0  0.70866  0.76739  0.45882  1.0000
  H   H3835     1.0  0.65941  0.84639  0.32403  1.0000
  C   C2160     1.0  0.85427  0.68441  0.25994  1.0000
  C   C2161     1.0  0.56997  0.92353  0.34519  1.0000
  S   S488      1.0  0.94748  0.82014  0.23465  1.0000
  C   C2162     1.0  0.73186  0.78593  0.43114  1.0000
  H   H3836     1.0  0.98757  0.72114  0.26235  1.0000
  H   H3837     1.0  0.57359  0.67387  0.42824  1.0000
  S   S489      1.0  0.64839  0.67795  0.46785  1.0000
  N   N121      1.0  0.51398  0.81983  0.42291  1.0000
  S   S490      1.0  0.90355  0.77907  0.25866  1.0000
  N   N122      1.0  0.69664  0.76979  0.44656  1.0000
  H   H3838     1.0  0.57634  0.89728  0.33234  1.0000
  H   H3839     1.0  0.53690  0.83746  0.44037  1.0000
  H   H3840     1.0  0.61809  0.77178  0.23932  1.0000
  S   S491      1.0  0.68097  0.82673  0.26818  1.0000
  C   C2163     1.0  0.53866  0.82401  0.42120  1.0000
  H   H3841     1.0  0.63493  0.86540  0.29899  1.0000
  C   C2164     1.0  0.85603  0.78411  0.26535  1.0000
  C   C2165     1.0  0.85495  0.86204  0.31769  1.0000
  C   C2166     1.0  0.84805  0.70220  0.23597  1.0000
  C   C2167     1.0  0.52854  0.98566  0.35560  1.0000
  C   C2168     1.0  0.58675  0.90599  0.33705  1.0000
  H   H3842     1.0  0.84307  0.83676  0.23713  1.0000
  C   C2169     1.0  0.57455  0.85246  0.35086  1.0000
  C   C2170     1.0  0.83201  0.67331  0.26448  1.0000
  H   H3843     1.0  0.52892  0.92315  0.44782  1.0000
  H   H3844     1.0  0.50583  0.79174  0.39034  1.0000
  H   H3845     1.0  0.64519  0.93948  0.46074  1.0000
  H   H3846     1.0  0.51031  0.69040  0.46260  1.0000
  C   C2171     1.0  0.63632  0.77200  0.24031  1.0000
  C   C2172     1.0  0.52571  0.77483  0.42653  1.0000
  H   H3847     1.0  0.57802  0.79065  0.46132  1.0000
  H   H3848     1.0  0.59199  0.82167  0.46864  1.0000
  H   H3849     1.0  0.55377  0.89684  0.47198  1.0000
  H   H3850     1.0  0.54345  0.92703  0.47050  1.0000
  H   H3851     1.0  0.56869  0.92312  0.43451  1.0000
  H   H3852     1.0  0.78853  0.75347  0.25026  1.0000
  C   C2173     1.0  0.82796  0.81406  0.25424  1.0000
  S   S492      1.0  0.73632  0.84020  0.27812  1.0000
  C   C2174     1.0  0.89700  0.70296  0.24245  1.0000
  H   H3853     1.0  0.72443  0.70086  0.25139  1.0000
  H   H3854     1.0  0.51416  0.79664  0.44227  1.0000
  H   H3855     1.0  0.54457  0.77564  0.42436  1.0000
  H   H3856     1.0  0.61608  0.96078  0.47845  1.0000
  H   H3857     1.0  0.54843  0.80682  0.44113  1.0000
  H   H3858     1.0  0.62709  0.85239  0.23557  1.0000
  C   C2175     1.0  0.51209  0.88542  0.47036  1.0000
  H   H3859     1.0  0.61005  0.85564  0.36968  1.0000
  C   C2176     1.0  0.68536  0.81209  0.24304  1.0000
  C   C2177     1.0  0.52266  0.75305  0.43695  1.0000
  H   H3860     1.0  0.72607  0.75582  0.45743  1.0000
  H   H3861     1.0  0.50136  0.96737  0.43736  1.0000
  C   C2178     1.0  0.52401  0.89042  0.37928  1.0000
  H   H3862     1.0  0.64483  0.86398  0.34986  1.0000
  C   C2179     1.0  0.50704  0.82130  0.40910  1.0000
  H   H3863     1.0  0.57317  0.84649  0.42508  1.0000
  H   H3864     1.0  0.80594  0.88100  0.28099  1.0000
  H   H3865     1.0  0.68125  0.70366  0.25202  1.0000
  H   H3866     1.0  0.65163  0.84746  0.37328  1.0000
  H   H3867     1.0  0.73799  0.77125  0.42530  1.0000
  H   H3868     1.0  0.63396  0.83775  0.32078  1.0000
  H   H3869     1.0  0.82273  0.67434  0.25581  1.0000
  H   H3870     1.0  0.73135  0.67789  0.32262  1.0000
  C   C2180     1.0  0.52619  0.93056  0.37906  1.0000
  H   H3871     1.0  0.58744  0.67228  0.44290  1.0000
  H   H3872     1.0  0.74158  0.78259  0.43984  1.0000
  H   H3873     1.0  0.54019  0.84095  0.41446  1.0000
  C   C2181     1.0  0.54644  0.88350  0.38274  1.0000
  H   H3874     1.0  0.57070  0.81655  0.35226  1.0000
  C   C2182     1.0  0.50205  0.95146  0.46917  1.0000
  H   H3875     1.0  0.56297  0.86968  0.34935  1.0000
  S   S493      1.0  0.66130  0.95854  0.40233  1.0000
  Fe  Fe244     1.0  0.93461  0.78656  0.24254  1.0000
  H   H3876     1.0  0.55752  0.91468  0.35304  1.0000
  H   H3877     1.0  0.72675  0.94110  0.46623  1.0000
  C   C2183     1.0  0.65039  0.86034  0.30430  1.0000
  C   C2184     1.0  0.62276  0.84264  0.36431  1.0000
  C   C2185     1.0  0.72454  0.67508  0.33372  1.0000
  C   C2186     1.0  0.91704  0.71497  0.24295  1.0000
  H   H3878     1.0  0.68012  0.77226  0.47606  1.0000
  H   H3879     1.0  0.60245  0.96932  0.40881  1.0000
  C   C2187     1.0  0.52614  0.81179  0.39764  1.0000
  H   H3880     1.0  0.51388  0.95421  0.45932  1.0000
  H   H3881     1.0  0.52912  0.80170  0.37780  1.0000
  H   H3882     1.0  0.73164  0.90431  0.46037  1.0000
  H   H3883     1.0  0.57852  0.95933  0.42066  1.0000
  H   H3884     1.0  0.69830  0.87165  0.47649  1.0000
  C   C2188     1.0  0.54942  0.68190  0.44663  1.0000
  Fe  Fe245     1.0  0.98418  0.79925  0.23523  1.0000
  H   H3885     1.0  0.49978  0.84411  0.46848  1.0000
  H   H3886     1.0  0.51071  0.95490  0.47707  1.0000
  C   C2189     1.0  0.60506  0.96668  0.42988  1.0000
  H   H3887     1.0  0.73499  0.67326  0.23399  1.0000
  H   H3888     1.0  0.50291  0.85610  0.42524  1.0000
  H   H3889     1.0  0.80082  0.77960  0.24626  1.0000
  H   H3890     1.0  0.72597  0.73973  0.48197  1.0000
  H   H3891     1.0  0.73950  0.66960  0.33944  1.0000
  C   C2190     1.0  0.69537  0.75877  0.47308  1.0000
  H   H3892     1.0  0.82904  0.70397  0.23575  1.0000
  H   H3893     1.0  0.57580  0.70011  0.43384  1.0000
  H   H3894     1.0  0.70181  0.96629  0.48220  1.0000
  H   H3895     1.0  0.69350  0.66400  0.33195  1.0000
  C   C2191     1.0  0.52846  0.98526  0.42515  1.0000
  H   H3896     1.0  0.87153  0.73380  0.24078  1.0000
  H   H3897     1.0  0.50111  0.83978  0.40469  1.0000
  C   C2192     1.0  0.58619  0.71421  0.48200  1.0000
  H   H3898     1.0  0.59162  0.71726  0.46001  1.0000
  C   C2193     1.0  0.64225  0.73749  0.48296  1.0000
  H   H3899     1.0  0.57730  0.96935  0.48146  1.0000
  H   H3900     1.0  0.70413  0.67314  0.23612  1.0000
  H   H3901     1.0  0.75601  0.71955  0.25523  1.0000
  H   H3902     1.0  0.56178  0.72685  0.46750  1.0000
  H   H3903     1.0  0.50112  0.92586  0.41502  1.0000
  H   H3904     1.0  0.54425  0.67026  0.47753  1.0000
  H   H3905     1.0  0.49995  0.83630  0.44087  1.0000
  H   H3906     1.0  0.71639  0.72517  0.23858  1.0000
  H   H3907     1.0  0.63711  0.75585  0.47956  1.0000
  H   H3908     1.0  0.72052  0.98203  0.46926  1.0000
  C   C2194     1.0  0.57550  0.98293  0.47232  1.0000
  C   C2195     1.0  0.49801  0.83896  0.42992  1.0000
  H   H3909     1.0  0.59100  0.73143  0.48112  1.0000
  H   H3910     1.0  0.54043  0.97867  0.43275  1.0000
  H   H3911     1.0  0.61737  0.97895  0.42811  1.0000
  Fe  Fe246     1.0  0.49706  0.77387  0.47523  1.0000
  C   C2196     1.0  0.73534  0.86154  0.47500  1.0000
  H   H3912     1.0  0.73439  0.84278  0.47696  1.0000
  H   H3913     1.0  0.75916  0.71450  0.23793  1.0000
  H   H3914     1.0  0.99222  0.67822  0.26173  1.0000
  H   H3915     1.0  0.51883  0.83993  0.23530  1.0000
  H   H3916     1.0  0.52272  0.80915  0.23529  1.0000
  C   C2197     1.0  0.99392  0.69138  0.25238  1.0000
  C   C2198     1.0  0.56092  0.83025  0.48303  1.0000
  C   C2199     1.0  0.65377  0.70573  0.50053  1.0000
  Fe  Fe247     1.0  0.67051  0.96955  0.52671  1.0000
  S   S494      1.0  0.63644  0.85549  0.48921  1.0000
  H   H3917     1.0  0.63874  0.93362  0.49403  1.0000
  C   C2200     1.0  0.50152  0.96034  0.57913  1.0000
  S   S495      1.0  0.65696  0.96004  0.54898  1.0000
  C   C2201     1.0  0.51625  0.90018  0.49032  1.0000
  C   C2202     1.0  0.56912  0.75355  0.50489  1.0000
  C   C2203     1.0  0.57253  0.96799  0.53895  1.0000
  N   N123      1.0  0.58134  0.88001  0.54162  1.0000
  C   C2204     1.0  0.59220  0.90534  0.50260  1.0000
  C   C2205     1.0  0.59820  0.89228  0.54564  1.0000
  H   H3918     1.0  0.54156  0.92083  0.49267  1.0000
  H   H3919     1.0  0.53836  0.72288  0.51576  1.0000
  H   H3920     1.0  0.51856  0.87009  0.56843  1.0000
  H   H3921     1.0  0.56632  0.90873  0.52749  1.0000
  C   C2206     1.0  0.53880  0.87202  0.54790  1.0000
  C   C2207     1.0  0.60113  0.68283  0.52490  1.0000
  C   C2208     1.0  0.51761  0.69694  0.48579  1.0000
  C   C2209     1.0  0.66414  0.87483  0.52154  1.0000
  H   H3922     1.0  0.67127  0.91752  0.53748  1.0000
  H   H3923     1.0  0.51584  0.95929  0.58492  1.0000
  H   H3924     1.0  0.55098  0.90209  0.55077  1.0000
  H   H3925     1.0  0.54415  0.85286  0.54900  1.0000
  C   C2210     1.0  0.60573  0.81437  0.55344  1.0000
  C   C2211     1.0  0.59612  0.89370  0.56101  1.0000
  H   H3926     1.0  0.58875  0.72920  0.51883  1.0000
  C   C2212     1.0  0.55810  0.88323  0.55097  1.0000
  C   C2213     1.0  0.61638  0.65879  0.52735  1.0000
  C   C2214     1.0  0.67154  0.88434  0.50806  1.0000
  H   H3927     1.0  0.58221  0.89468  0.49894  1.0000
  C   C2215     1.0  0.54039  0.95458  0.53310  1.0000
  H   H3928     1.0  0.61653  0.88437  0.54186  1.0000
  H   H3929     1.0  0.49861  0.89765  0.49591  1.0000
  H   H3930     1.0  0.56729  0.88072  0.52336  1.0000
  H   H3931     1.0  0.61024  0.80413  0.56327  1.0000
  H   H3932     1.0  0.57995  0.90598  0.56424  1.0000
  S   S496      1.0  0.61878  0.81306  0.51216  1.0000
  C   C2216     1.0  0.54287  0.68583  0.52266  1.0000
  C   C2217     1.0  0.57245  0.98471  0.52718  1.0000
  H   H3933     1.0  0.61358  0.90594  0.57442  1.0000
  S   S497      1.0  0.64791  0.74932  0.50702  1.0000
  H   H3934     1.0  0.62157  0.81220  0.54553  1.0000
  H   H3935     1.0  0.59538  0.87671  0.56760  1.0000
  H   H3936     1.0  0.53474  0.87876  0.53750  1.0000
  H   H3937     1.0  0.62268  0.65621  0.53726  1.0000
  H   H3938     1.0  0.71745  0.76982  0.48452  1.0000
  C   C2218     1.0  0.55602  0.98658  0.51853  1.0000
  H   H3939     1.0  0.52808  0.88315  0.49257  1.0000
  C   C2219     1.0  0.56736  0.70957  0.49464  1.0000
  H   H3940     1.0  0.86908  0.96858  0.57923  1.0000
  C   C2220     1.0  0.58232  0.77306  0.50444  1.0000
  S   S498      1.0  0.65481  0.84798  0.52554  1.0000
  H   H3941     1.0  0.58218  0.84117  0.56318  1.0000
  H   H3942     1.0  0.55139  0.72294  0.49319  1.0000
  S   S499      1.0  0.57252  0.84932  0.48980  1.0000
  H   H3943     1.0  0.55428  0.67214  0.52871  1.0000
  H   H3944     1.0  0.61209  0.84569  0.55794  1.0000
  H   H3945     1.0  0.65921  0.87917  0.54256  1.0000
  H   H3946     1.0  0.59599  0.91080  0.54062  1.0000
  C   C2221     1.0  0.62505  0.96843  0.48454  1.0000
  H   H3947     1.0  0.53152  0.92034  0.51678  1.0000
  H   H3948     1.0  0.59179  0.80740  0.55057  1.0000
  H   H3949     1.0  0.60799  0.85275  0.53405  1.0000
  C   C2222     1.0  0.52391  0.90872  0.51232  1.0000
  Fe  Fe248     1.0  0.64775  0.83340  0.50816  1.0000
  C   C2223     1.0  0.50523  0.97574  0.56494  1.0000
  C   C2224     1.0  0.52372  0.91776  0.49721  1.0000
  H   H3950     1.0  0.56007  0.87616  0.56172  1.0000
  C   C2225     1.0  0.64825  0.72970  0.49597  1.0000
  C   C2226     1.0  0.67880  0.91796  0.51578  1.0000
  H   H3951     1.0  0.63306  0.88976  0.56217  1.0000
  C   C2227     1.0  0.53819  0.82628  0.48809  1.0000
  C   C2228     1.0  0.50055  0.93559  0.57764  1.0000
  C   C2229     1.0  0.61672  0.90273  0.56372  1.0000
  H   H3952     1.0  0.60996  0.87627  0.51491  1.0000
  C   C2230     1.0  0.62970  0.95052  0.49715  1.0000
  C   C2231     1.0  0.67924  0.90566  0.50525  1.0000
  H   H3953     1.0  0.58142  0.92286  0.50340  1.0000
  H   H3954     1.0  0.55582  0.71286  0.52872  1.0000
  H   H3955     1.0  0.65817  0.69957  0.51065  1.0000
  H   H3956     1.0  0.68542  0.91272  0.49493  1.0000
  H   H3957     1.0  0.50587  0.90844  0.51776  1.0000
  H   H3958     1.0  0.56274  0.69273  0.49411  1.0000
  H   H3959     1.0  0.50961  0.89638  0.55689  1.0000
  C   C2232     1.0  0.55688  0.95262  0.54167  1.0000
  H   H3960     1.0  0.56361  0.75563  0.49481  1.0000
  H   H3961     1.0  0.51218  0.67243  0.53368  1.0000
  C   C2233     1.0  0.59151  0.85468  0.54134  1.0000
  H   H3962     1.0  0.60805  0.68736  0.50316  1.0000
  Fe  Fe249     1.0  0.60972  0.83293  0.49214  1.0000
  C   C2234     1.0  0.51603  0.87735  0.55775  1.0000
  H   H3963     1.0  0.52815  0.94289  0.53549  1.0000
  S   S500      1.0  0.58992  0.96742  0.55125  1.0000
  H   H3964     1.0  0.67187  0.87500  0.49987  1.0000
  H   H3965     1.0  0.60815  0.90727  0.49502  1.0000
  H   H3966     1.0  0.50244  0.86945  0.55518  1.0000
  H   H3967     1.0  0.61900  0.91929  0.55685  1.0000
  H   H3968     1.0  0.61312  0.94797  0.50404  1.0000
  C   C2235     1.0  0.66425  0.88681  0.53211  1.0000
  C   C2236     1.0  0.53956  0.97191  0.52166  1.0000
  S   S501      1.0  0.67366  0.80704  0.49729  1.0000
  H   H3969     1.0  0.52066  0.66001  0.48950  1.0000
  H   H3970     1.0  0.51256  0.80578  0.48776  1.0000
  C   C2237     1.0  0.57716  0.89104  0.52735  1.0000
  H   H3971     1.0  0.51716  0.92753  0.57179  1.0000
  H   H3972     1.0  0.55684  0.93982  0.55080  1.0000
  H   H3973     1.0  0.52258  0.69565  0.49589  1.0000
  C   C2238     1.0  0.59750  0.83995  0.55494  1.0000
  Fe  Fe250     1.0  0.64379  0.78813  0.49970  1.0000
  S   S502      1.0  0.68827  0.94483  0.51192  1.0000
  C   C2239     1.0  0.67112  0.90852  0.52924  1.0000
  H   H3974     1.0  0.58903  0.77140  0.51415  1.0000
  H   H3975     1.0  0.57997  0.84623  0.53726  1.0000
  C   C2240     1.0  0.51837  0.68926  0.53102  1.0000
  C   C2241     1.0  0.58465  0.72952  0.50853  1.0000
  C   C2242     1.0  0.59920  0.89348  0.51638  1.0000
  H   H3976     1.0  0.61038  0.90399  0.51911  1.0000
  H   H3977     1.0  0.64112  0.95617  0.50282  1.0000
  H   H3978     1.0  0.52006  0.96625  0.55855  1.0000
  H   H3979     1.0  0.55320  0.75596  0.51268  1.0000
  H   H3980     1.0  0.49777  0.92491  0.58789  1.0000
  H   H3981     1.0  0.57043  0.79008  0.50289  1.0000
  H   H3982     1.0  0.54185  0.67917  0.51341  1.0000
  H   H3983     1.0  0.51121  0.93438  0.49657  1.0000
  C   C2243     1.0  0.59225  0.68703  0.51104  1.0000
  H   H3984     1.0  0.59721  0.77269  0.49588  1.0000
  H   H3985     1.0  0.73592  0.86687  0.48484  1.0000
  C   C2244     1.0  0.65372  0.68965  0.49206  1.0000
  H   H3986     1.0  0.60172  0.72887  0.50167  1.0000
  H   H3987     1.0  0.51848  0.69565  0.54060  1.0000
  H   H3988     1.0  0.53427  0.89088  0.51374  1.0000
  H   H3989     1.0  0.52732  0.83571  0.49587  1.0000
  C   C2245     1.0  0.55268  0.70871  0.51906  1.0000
  H   H3990     1.0  0.65817  0.67122  0.49562  1.0000
  N   N124      1.0  0.57426  0.70873  0.50834  1.0000
  H   H3991     1.0  0.58568  0.67140  0.51008  1.0000
  H   H3992     1.0  0.61202  0.69576  0.52496  1.0000
  H   H3993     1.0  0.50595  0.70183  0.52502  1.0000
  S   S503      1.0  0.51759  0.97626  0.51148  1.0000
  H   H3994     1.0  0.58655  0.68410  0.53357  1.0000
  H   H3995     1.0  0.70066  0.74855  0.49415  1.0000
  C   C2246     1.0  0.71093  0.75395  0.48405  1.0000
  C   C2247     1.0  0.52992  0.80920  0.48360  1.0000
  H   H3996     1.0  0.63182  0.65707  0.51916  1.0000
  H   H3997     1.0  0.54289  0.98081  0.57004  1.0000
  Fe  Fe251     1.0  0.62315  0.98178  0.54373  1.0000
  H   H3998     1.0  0.49843  0.70229  0.48705  1.0000
  C   C2248     1.0  0.86805  0.98767  0.57779  1.0000
  Fe  Fe252     1.0  0.92661  0.83324  0.92835  1.0000
  S   S504      1.0  0.96153  0.83229  0.93388  1.0000
  S   S505      1.0  0.90441  0.86831  0.92197  1.0000
  Fe  Fe253     1.0  0.93046  0.78024  0.93599  1.0000
  S   S506      1.0  0.96593  0.77582  0.94167  1.0000
  S   S507      1.0  0.91356  0.74821  0.94156  1.0000
  Fe  Fe254     1.0  0.95127  0.80677  0.95214  1.0000
  S   S508      1.0  0.95762  0.80575  0.97355  1.0000
  Fe  Fe255     1.0  0.97292  0.80170  0.92287  1.0000
  C   C2249     1.0  0.98189  0.75108  0.90491  1.0000
  S   S509      1.0  0.91512  0.80993  0.94771  1.0000
  S   S510      1.0  0.93856  0.80386  0.91608  1.0000
  C   C2250     1.0  0.92966  0.90612  0.95546  1.0000
  S   S511      1.0  0.95355  0.94628  0.88207  1.0000
  C   C2251     1.0  0.91858  0.89000  0.91125  1.0000
  C   C2252     1.0  0.90649  0.91303  0.90925  1.0000
  C   C2253     1.0  0.91730  0.93061  0.90075  1.0000
  C   C2254     1.0  0.94017  0.92520  0.89394  1.0000
  C   C2255     1.0  0.95228  0.90219  0.89596  1.0000
  C   C2256     1.0  0.94161  0.88469  0.90467  1.0000
  H   H3999     1.0  0.88864  0.91726  0.91421  1.0000
  H   H4000     1.0  0.90777  0.94824  0.89928  1.0000
  H   H4001     1.0  0.92193  0.97386  0.91616  1.0000
  H   H4002     1.0  0.95110  0.86700  0.90607  1.0000
  C   C2257     1.0  0.92290  0.72413  0.93284  1.0000
  C   C2258     1.0  0.92755  0.72709  0.91861  1.0000
  C   C2259     1.0  0.93219  0.70773  0.91185  1.0000
  C   C2260     1.0  0.93232  0.68527  0.91925  1.0000
  C   C2261     1.0  0.92817  0.68222  0.93351  1.0000
  C   C2262     1.0  0.92314  0.70164  0.94026  1.0000
  H   H4003     1.0  0.92670  0.74439  0.91281  1.0000
  H   H4004     1.0  0.93520  0.71024  0.90081  1.0000
  H   H4005     1.0  0.91702  0.87429  0.86517  1.0000
  H   H4006     1.0  0.91915  0.69927  0.95127  1.0000
  H   H4007     1.0  0.88051  0.67976  0.88011  1.0000
  H   H4008     1.0  0.87192  0.90117  0.96697  1.0000
  C   C2263     1.0  0.87264  0.66549  0.93096  1.0000
  C   C2264     1.0  0.97375  0.84698  0.96681  1.0000
  H   H4009     1.0  0.91057  0.97960  0.84702  1.0000
  H   H4010     1.0  0.92576  0.92531  0.86979  1.0000
  H   H4011     1.0  0.96994  0.89781  0.89069  1.0000
  C   C2265     1.0  0.97970  0.86657  0.96998  1.0000
  C   C2266     1.0  0.91384  0.92300  0.86317  1.0000
  H   H4012     1.0  0.82763  0.69737  0.91454  1.0000
  H   H4013     1.0  0.89590  0.90795  0.84371  1.0000
  H   H4014     1.0  0.92557  0.91356  0.85530  1.0000
  H   H4015     1.0  0.92976  0.88000  0.97965  1.0000
  H   H4016     1.0  0.97988  0.74516  0.97579  1.0000
  H   H4017     1.0  0.84517  0.91822  0.94975  1.0000
  H   H4018     1.0  0.82520  0.69705  0.93224  1.0000
  H   H4019     1.0  0.97665  0.84424  0.95635  1.0000
  H   H4020     1.0  0.87635  0.67862  0.94906  1.0000
  H   H4021     1.0  0.87054  0.94659  0.87242  1.0000
  C   C2267     1.0  0.95747  0.96980  0.83705  1.0000
  H   H4022     1.0  0.90017  0.94016  0.96602  1.0000
  H   H4023     1.0  0.87560  0.93919  0.95224  1.0000
  H   H4024     1.0  0.98920  0.97535  0.96873  1.0000
  H   H4025     1.0  0.88605  0.96157  0.83883  1.0000
  H   H4026     1.0  0.97135  0.96423  0.82864  1.0000
  C   C2268     1.0  0.96346  0.97682  0.95520  1.0000
  H   H4027     1.0  0.85655  0.93417  0.93371  1.0000
  H   H4028     1.0  0.98152  0.68321  0.90113  1.0000
  H   H4029     1.0  0.79670  0.67489  0.91564  1.0000
  C   C2269     1.0  0.95907  0.89352  0.93516  1.0000
  H   H4030     1.0  0.84810  0.67150  0.94990  1.0000
  H   H4031     1.0  0.93227  0.95540  0.83059  1.0000
  C   C2270     1.0  0.88807  0.94483  0.84601  1.0000
  Fe  Fe256     1.0  0.93892  0.98479  0.88112  1.0000
  H   H4032     1.0  0.86841  0.73229  0.90677  1.0000
  H   H4033     1.0  0.89968  0.87069  0.88193  1.0000
  H   H4034     1.0  0.93210  0.97961  0.93754  1.0000
  H   H4035     1.0  0.86572  0.90313  0.93721  1.0000
  H   H4036     1.0  0.84637  0.75205  0.93319  1.0000
  H   H4037     1.0  0.89598  0.92479  0.93954  1.0000
  H   H4038     1.0  0.98406  0.71974  0.89724  1.0000
  H   H4039     1.0  0.91687  0.92409  0.83338  1.0000
  H   H4040     1.0  0.89229  0.91331  0.81954  1.0000
  H   H4041     1.0  0.89092  0.91232  0.88209  1.0000
  C   C2271     1.0  0.91117  0.88167  0.87479  1.0000
  C   C2272     1.0  0.87177  0.68557  0.90739  1.0000
  H   H4042     1.0  0.94502  0.90429  0.96060  1.0000
  H   H4043     1.0  0.88770  0.94440  0.81828  1.0000
  C   C2273     1.0  0.94644  0.97335  0.92956  1.0000
  C   C2274     1.0  0.89779  0.90654  0.87203  1.0000
  C   C2275     1.0  0.86090  0.91928  0.94183  1.0000
  C   C2276     1.0  0.91361  0.88069  0.97551  1.0000
  H   H4044     1.0  0.92746  0.92399  0.94961  1.0000
  H   H4045     1.0  0.98727  0.73386  0.95983  1.0000
  H   H4046     1.0  0.88386  0.70651  0.92608  1.0000
  H   H4047     1.0  0.89124  0.88562  0.95483  1.0000
  C   C2277     1.0  0.86710  0.66609  0.94651  1.0000
  H   H4048     1.0  0.91761  0.86559  0.96996  1.0000
  H   H4049     1.0  0.89361  0.95666  0.87699  1.0000
  C   C2278     1.0  0.85680  0.73106  0.91681  1.0000
  H   H4050     1.0  0.92813  0.66500  0.93932  1.0000
  C   C2279     1.0  0.89807  0.92498  0.83741  1.0000
  C   C2280     1.0  0.83449  0.68725  0.92384  1.0000
  H   H4051     1.0  0.85238  0.76824  0.91633  1.0000
  H   H4052     1.0  0.95644  0.91128  0.92925  1.0000
  N   N125      1.0  0.90148  0.94638  0.85696  1.0000
  H   H4053     1.0  0.95952  0.94241  0.94300  1.0000
  H   H4054     1.0  0.97392  0.89099  0.94075  1.0000
  H   H4055     1.0  0.95443  0.96285  0.96151  1.0000
  H   H4056     1.0  0.90508  0.66321  0.88807  1.0000
  H   H4057     1.0  0.86317  0.70047  0.90056  1.0000
  H   H4058     1.0  0.93663  0.92564  0.97698  1.0000
  S   S512      1.0  0.93591  0.66186  0.91028  1.0000
  H   H4059     1.0  0.96371  0.75736  0.90288  1.0000
  H   H4060     1.0  0.88272  0.90649  0.86707  1.0000
  C   C2281     1.0  0.88793  0.90199  0.95922  1.0000
  C   C2282     1.0  0.93597  0.96129  0.92087  1.0000
  H   H4061     1.0  0.96574  0.96857  0.84618  1.0000
  H   H4062     1.0  0.98785  0.68142  0.92275  1.0000
  C   C2283     1.0  0.86492  0.70784  0.92600  1.0000
  C   C2284     1.0  0.88452  0.95701  0.86828  1.0000
  C   C2285     1.0  0.87128  0.66387  0.90129  1.0000
  H   H4063     1.0  0.98701  0.87896  0.96193  1.0000
  H   H4064     1.0  0.92816  0.94668  0.92716  1.0000
  H   H4065     1.0  0.85610  0.70978  0.93658  1.0000
  H   H4066     1.0  0.93999  0.87084  0.95014  1.0000
  N   N126      1.0  0.86058  0.68613  0.92209  1.0000
  H   H4067     1.0  0.85322  0.66385  0.89990  1.0000
  H   H4068     1.0  0.97836  0.94844  0.92755  1.0000
  H   H4069     1.0  0.96374  0.88118  0.92776  1.0000
  C   C2286     1.0  0.98831  0.67955  0.94894  1.0000
  H   H4070     1.0  0.92301  0.89100  0.93874  1.0000
  H   H4071     1.0  0.89189  0.66363  0.92802  1.0000
  C   C2287     1.0  0.96682  0.95675  0.93595  1.0000
  N   N127      1.0  0.90817  0.90310  0.96589  1.0000
  C   C2288     1.0  0.93682  0.88905  0.94498  1.0000
  H   H4072     1.0  0.86625  0.92836  0.82886  1.0000
  H   H4073     1.0  0.83858  0.73259  0.91516  1.0000
  H   H4074     1.0  0.87617  0.75140  0.92461  1.0000
  H   H4075     1.0  0.92664  0.88116  0.87956  1.0000
  C   C2289     1.0  0.98772  0.72464  0.90651  1.0000
  C   C2290     1.0  0.85800  0.75189  0.92317  1.0000
  C   C2291     1.0  0.82569  0.66379  0.92717  1.0000
  C   C2292     1.0  0.88121  0.92274  0.94798  1.0000
  H   H4076     1.0  0.86987  0.94253  0.85051  1.0000
  N   N128      1.0  0.98036  0.96752  0.94342  1.0000
  C   C2293     1.0  0.90159  0.92368  0.97340  1.0000
  C   C2294     1.0  0.88523  0.92803  0.82530  1.0000
  H   H4077     1.0  0.99127  0.71468  0.97560  1.0000
  H   H4078     1.0  0.98905  0.68594  0.95841  1.0000
  H   H4079     1.0  0.97592  0.71794  0.91558  1.0000
  H   H4080     1.0  0.94948  0.95479  0.91254  1.0000
  C   C2295     1.0  0.99239  0.73242  0.96998  1.0000
  H   H4081     1.0  0.98332  0.75686  0.91443  1.0000
  C   C2296     1.0  0.91880  0.92530  0.98278  1.0000
  H   H4082     1.0  0.89033  0.68764  0.90605  1.0000
  H   H4083     1.0  0.99230  0.94038  0.95956  1.0000
  C   C2297     1.0  0.96483  0.83064  0.97722  1.0000
  C   C2298     1.0  0.91915  0.96206  0.85148  1.0000
  H   H4084     1.0  0.88387  0.92426  0.97962  1.0000
  H   H4085     1.0  0.83772  0.97867  0.87625  1.0000
  H   H4086     1.0  0.99381  0.75905  0.89627  1.0000
  C   C2299     1.0  0.93924  0.95413  0.84016  1.0000
  C   C2300     1.0  0.87194  0.98240  0.86437  1.0000
  H   H4087     1.0  0.94847  0.93619  0.84311  1.0000
  H   H4088     1.0  0.92710  0.96477  0.86001  1.0000
  H   H4089     1.0  0.78920  0.67915  0.93333  1.0000
  H   H4090     1.0  0.97031  0.68546  0.94652  1.0000
  C   C2301     1.0  0.88653  0.66394  0.88725  1.0000
  H   H4091     1.0  0.98095  0.65614  0.88576  1.0000
  H   H4092     1.0  0.91040  0.96312  0.98124  1.0000
  C   C2302     1.0  0.79975  0.66740  0.92622  1.0000
  H   H4093     1.0  0.99227  0.66029  0.95079  1.0000
  H   H4094     1.0  0.86526  0.98495  0.85459  1.0000
  H   H4095     1.0  0.85711  0.98716  0.88535  1.0000
  C   C2303     1.0  0.97406  0.98744  0.96489  1.0000
  C   C2304     1.0  0.99035  0.98752  0.93446  1.0000
  H   H4096     1.0  0.82786  0.65530  0.93773  1.0000
