data_image0
_chemical_formula_structural       FeHSFeSH3S2FeHSFeSHCHS2CHC5HCSH2C3H3C2H4NHC2SCHCH3CH8CHCH3C3HC3H6CHCH3SCH2NFeHCH2CHCH3CH5C2FeCH10SH3CH2CSCHCHSCHFeSHCHFeHSCH3CS2HSHSFeSFeSHFeCSFeSCFeHS2C6HCH2SCH2FeCH3SC6H4CHC3H2CH2CH6FeCH2C3HCH2CH2C3H2C2HSH4CH7SCHC2H3CH5C2NCHCNC12H17CH8CHSCHCNFeH3CH2FeCHFeH5CH3SH2CH2SC2HCH2SH6CH4CH7NHCFeH3NSCNSHFeSHFeHSH4SCHC8H4CSHCH4FeCHFeH2C2HCH6CH2CH3CH4CSHCHCFeH4CH2C4H4CH3CH5CH2CH2FeCH3C2SH4C3HFeS2FeS2FeSFeS4HSCHSFeHSC2FeS2FeS2FeSFeS3C6H4C7H3CHCH3C6H6CHCH3CHC2H2C6H4C2H4CHC2HC3H8NHC2HCH2CH3CHCH5NC4HCH19C2H2CH5C2H2CH5CH5C2HCH5NC5H15CH8C2H2CH2CH3NCHCHCHC2H3CH2CH4CHCH3C2H2C3HC3H3CH2CHCH3CHCH4CH2CHCHCH2CHC3H6FeH2SH7C2HC2H2CNCHNH2CHCH11CH2FeH2CHC2H2CH3CHC2H4CHCH2CH3C2HNHSCHCH2CSH2CHSFeS2FeSFeSFeS2FeS2FeSFeS3HSHSFeS2FeS2FeSFeS7C6H4C6H4C6H4C6H4C6H4C6H4C6H4C6H4C6H4C6HCH3C2H2C3HFe2H8CH2CH3FeC2HNC12H28NC12H29NC12H30C3H6CHNC7H2C3H2CH6SH5C2H3C2H4C4H8CHFeS2FeH3FeH5CH3C2H2NCH5CHNCHCHCHFeCHCH4C2HCHCH2CNHNCHCH5CH3C2H2NCHCH2CSFeHC2HCH2CH13SCH10CHC3SC2H2CH3CHCH4CH4SH3SH3CHCHCH2SCSHCNH3CHSH5SHSCH7SH3SHCSFeSCFeS2FeHFeS3FeH3FeSH2FeS2FeS2FeSFeS3C6H4C6H7SHCHC7H3C2H2C8H4C2N2C6SH2C2H4CH3CH5CHCH2CH8CH3C2NC8H2C2H16CHCH7C3H7SH2CHNC2HC3HC2H7CH6C2H8C3H2CH3CH3CH2FeH4CH5CH2CHCH9CHCH2CH4NC2HNCHCH2CHC2H3C2SHC3HSCH3CH2C2H3CH5C3H2C3H8CHC2NCH8CH5CHC3HNCHCH3SH5SH2CH2CHCH7SHC2HCH3S2FeS2FeS2FeS2FeSFeS3H3SHFeS2FeS2FeSFeS3CHC2HC2H4C3H4C6H4C6H4C6H4CH2CH2C7H5C3NC7HCHC2H3CH5CH5SH12NC2SC6HC2H6CH14FeH5CH3C2HCH3CHCHCH5SCH5CHCH2C2HC2HCH2CNH2C2HC3HC2H9CFeH3CH3CH5NC2H2CHCNC3HCH2C2H2CHCH3NC12H30NC2HC2H7CFeH2C2H3CHCH6FeH2SCH4SCH5SHFeS2FeS2FeSFeS3HSFeSFeSFeS3FeSHS4HSHFeS2FeS2FeSFeS3C2HCHC6H4C6H3C6H4C6H4C6H4C2H2C7H4C6H4C6H4C6H4C6H5Fe2H3C5H10NC10H23NC4HC4HC2H20CH8CH2CHCH9CH8CHSH3CSCSCHC4H2C4HCH6SCHNH6CH2CSH2CHNC8HC2H16NH6C2H3CH2C2H4SH2CH4FeHC3H12CNC12H28NHC5HFeHCH2CFeH7C2H6SH3FeHSH3CH2C2NCHFeCHCHCH3CHCH8C2H3CH2CH4CN2C2HC2HC2H4CHCHC2H15CSH2CHC3H2CH2CHCH2SHCSCH2C3H5S3CSFeS2FeS2FeSFeCS2HFeHSHFeCHFeS2FeS2FeSFeS3HC6H4C2H3C6H5CH5C6H6CH5C6H5C3H8CHCHC2HC3SH2SNC8H18NC9HCH7CH3C2H14CH3CHCHC2H4CH2NCH3CH2CH3NH5CH5CH2C2HNH2CH2CH2CH6CFeC3HC3HCHC3HCH5FeCNCH6C2H4CH3C2H4NCH4CH4C2H3CHSH3CH3CH2CH6CH2CH2CHNCH5C2H3CH3CH2CH2CH2CH2S2CH2SH2C3HC2H2CHSCH3CHCSH2CHSHCHFeHSC2SHSHCH2C7H4C2H5FeCHC4HCHCH2CH3CH3CH4CH2FeH3S2H5CSNFeH5CH2CH4CH3FeCSH2SCH3SCHCSFeHSFeSHS2FeCSFeSH3S2C6H4C3H2C6H4CH3C2H4FeC3HC2HCHCH6CH2CH17NH4CH2CHCH3NHCH2CHC2H2C2H3CH7C2HC2SCH2CH2CHC3H4CNH13CH3NC7H3C2HSFeHCH4CHC2HC2HSH5FeC4FeH4SHC2H2CHSH2SC3SCSH2SH5C2H2CHCFeH3C2HC3HCH2CNHC2FeC2HCH2CFe2H3CFeSCH3SH3CH5CSH5
_chemical_formula_sum              "Fe128 H2048 S256 C1152 N64"
_cell_length_a       53.1296
_cell_length_b       52.9269
_cell_length_c       76.4423
_cell_angle_alpha    90.3616
_cell_angle_beta     90.3897
_cell_angle_gamma    116.824

_space_group_name_H-M_alt    "P 1"
_space_group_IT_number       1

loop_
  _space_group_symop_operation_xyz
  'x, y, z'

loop_
  _atom_site_type_symbol
  _atom_site_label
  _atom_site_symmetry_multiplicity
  _atom_site_fract_x
  _atom_site_fract_y
  _atom_site_fract_z
  _atom_site_occupancy
  Fe  Fe1       1.0  0.45764  0.08832  0.06927  1.0000
  H   H1        1.0  0.43971  0.24339  0.08863  1.0000
  S   S1        1.0  0.42250  0.04392  0.07556  1.0000
  Fe  Fe2       1.0  0.46932  0.14122  0.04690  1.0000
  S   S2        1.0  0.44832  0.15921  0.02791  1.0000
  H   H2        1.0  0.07987  0.48543  0.09278  1.0000
  H   H3        1.0  0.39222  0.46693  0.01357  1.0000
  H   H4        1.0  0.44487  0.01571  0.12010  1.0000
  S   S3        1.0  0.47465  0.10176  0.04223  1.0000
  S   S4        1.0  0.44922  0.12624  0.07302  1.0000
  Fe  Fe3       1.0  0.10686  0.45963  0.05591  1.0000
  H   H5        1.0  0.09085  0.40504  0.09235  1.0000
  S   S5        1.0  0.06022  0.45004  0.05929  1.0000
  Fe  Fe4       1.0  0.15805  0.45373  0.04046  1.0000
  S   S6        1.0  0.17222  0.42963  0.02129  1.0000
  H   H6        1.0  0.48974  0.01932  0.01080  1.0000
  C   C1        1.0  0.40316  0.15437  0.08328  1.0000
  H   H7        1.0  0.37633  0.42956  0.01808  1.0000
  S   S7        1.0  0.13321  0.43859  0.06550  1.0000
  S   S8        1.0  0.12913  0.47100  0.03011  1.0000
  C   C2        1.0  0.07044  0.36268  0.06964  1.0000
  H   H8        1.0  0.40344  0.14337  0.07091  1.0000
  C   C3        1.0  0.20832  0.44256  0.01565  1.0000
  C   C4        1.0  0.22994  0.46119  0.02669  1.0000
  C   C5        1.0  0.07568  0.40113  0.12418  1.0000
  C   C6        1.0  0.43659  0.00496  0.05871  1.0000
  C   C7        1.0  0.47700  0.24479  0.10154  1.0000
  H   H9        1.0  0.44460  0.26482  0.02322  1.0000
  C   C8        1.0  0.02550  0.42150  0.05683  1.0000
  S   S9        1.0  0.18529  0.48799  0.10272  1.0000
  H   H10       1.0  0.03774  0.39149  0.04545  1.0000
  H   H11       1.0  0.02165  0.38564  0.12666  1.0000
  C   C9        1.0  0.25837  0.47041  0.02214  1.0000
  C   C10       1.0  0.05407  0.36590  0.08515  1.0000
  C   C11       1.0  0.43394  0.20150  0.06932  1.0000
  H   H12       1.0  0.45683  0.02264  0.05606  1.0000
  H   H13       1.0  0.29723  0.39030  0.01658  1.0000
  H   H14       1.0  0.10268  0.45888  0.12032  1.0000
  C   C12       1.0  0.41618  0.00967  0.06769  1.0000
  C   C13       1.0  0.46484  0.19330  0.01853  1.0000
  H   H15       1.0  0.05374  0.35491  0.12887  1.0000
  H   H16       1.0  0.07173  0.37743  0.05901  1.0000
  H   H17       1.0  0.41473  0.20479  0.06912  1.0000
  H   H18       1.0  0.08563  0.36691  0.11611  1.0000
  N   N1        1.0  0.05749  0.40267  0.10936  1.0000
  H   H19       1.0  0.41045  0.45263  0.02736  1.0000
  C   C14       1.0  0.02033  0.39497  0.05001  1.0000
  C   C15       1.0  0.45935  0.24473  0.05265  1.0000
  S   S10       1.0  0.49977  0.11050  0.08330  1.0000
  C   C16       1.0  0.09220  0.37291  0.14371  1.0000
  H   H20       1.0  0.06978  0.40803  0.13666  1.0000
  C   C17       1.0  0.46145  0.24758  0.08486  1.0000
  H   H21       1.0  0.44929  0.25018  0.12052  1.0000
  H   H22       1.0  0.48060  0.12981  0.00650  1.0000
  H   H23       1.0  0.09215  0.36714  0.07377  1.0000
  C   C18       1.0  0.26562  0.46179  0.00633  1.0000
  H   H24       1.0  0.48254  0.20815  0.05742  1.0000
  H   H25       1.0  0.05055  0.43629  0.12130  1.0000
  H   H26       1.0  0.00602  0.44583  0.06794  1.0000
  H   H27       1.0  0.48811  0.21347  0.07996  1.0000
  H   H28       1.0  0.47212  0.27050  0.08154  1.0000
  H   H29       1.0  0.43286  0.18903  0.05725  1.0000
  H   H30       1.0  0.09825  0.41599  0.12199  1.0000
  H   H31       1.0  0.42742  0.19272  0.09736  1.0000
  C   C19       1.0  0.43214  0.24813  0.04954  1.0000
  H   H32       1.0  0.23067  0.48428  0.08322  1.0000
  C   C20       1.0  0.07540  0.37212  0.12722  1.0000
  H   H33       1.0  0.08260  0.37738  0.15546  1.0000
  H   H34       1.0  0.11444  0.38940  0.14265  1.0000
  H   H35       1.0  0.40162  0.14032  0.09439  1.0000
  C   C21       1.0  0.06753  0.39700  0.09197  1.0000
  C   C22       1.0  0.30206  0.40476  0.00527  1.0000
  C   C23       1.0  0.49048  0.24667  0.00198  1.0000
  H   H36       1.0  0.42657  0.18891  0.00598  1.0000
  C   C24       1.0  0.43627  0.26983  0.03536  1.0000
  C   C25       1.0  0.49359  0.21111  0.02102  1.0000
  C   C26       1.0  0.42160  0.00733  0.12081  1.0000
  H   H37       1.0  0.04823  0.43506  0.09803  1.0000
  H   H38       1.0  0.09218  0.35208  0.14544  1.0000
  H   H39       1.0  0.47946  0.28279  0.11438  1.0000
  H   H40       1.0  0.06378  0.40924  0.08138  1.0000
  H   H41       1.0  0.22477  0.46780  0.03898  1.0000
  H   H42       1.0  0.41477  0.22766  0.04496  1.0000
  C   C27       1.0  0.09060  0.45687  0.10805  1.0000
  H   H43       1.0  0.32270  0.42349  0.00774  1.0000
  C   C28       1.0  0.48567  0.22388  0.06801  1.0000
  H   H44       1.0  0.44806  0.17753  0.08704  1.0000
  H   H45       1.0  0.45180  0.47347  0.00766  1.0000
  H   H46       1.0  0.03779  0.47917  0.01117  1.0000
  S   S11       1.0  0.18981  0.49484  0.05199  1.0000
  C   C29       1.0  0.39663  0.44851  0.01563  1.0000
  H   H47       1.0  0.43639  0.08682  0.00233  1.0000
  H   H48       1.0  0.41675  0.01956  0.13096  1.0000
  N   N2        1.0  0.46028  0.22949  0.06915  1.0000
  Fe  Fe5       1.0  0.16363  0.48173  0.07619  1.0000
  H   H49       1.0  0.46191  0.23356  0.04094  1.0000
  C   C30       1.0  0.43000  0.18239  0.08531  1.0000
  H   H50       1.0  0.38419  0.15809  0.08325  1.0000
  H   H51       1.0  0.41577  0.26967  0.03219  1.0000
  C   C31       1.0  0.09022  0.48531  0.10543  1.0000
  H   H52       1.0  0.45104  0.29136  0.04007  1.0000
  C   C32       1.0  0.47205  0.25998  0.11721  1.0000
  H   H53       1.0  0.50010  0.25446  0.09945  1.0000
  H   H54       1.0  0.05332  0.35079  0.09528  1.0000
  H   H55       1.0  0.10208  0.45336  0.09697  1.0000
  C   C33       1.0  0.06019  0.43239  0.10931  1.0000
  H   H56       1.0  0.06972  0.45945  0.02008  1.0000
  H   H57       1.0  0.42550  0.25494  0.06168  1.0000
  H   H58       1.0  0.47743  0.26634  0.05241  1.0000
  H   H59       1.0  0.48399  0.25823  0.12875  1.0000
  H   H60       1.0  0.26159  0.48048  0.07760  1.0000
  C   C34       1.0  0.02702  0.38259  0.11299  1.0000
  C   C35       1.0  0.44887  0.20254  0.00797  1.0000
  Fe  Fe6       1.0  0.49313  0.14962  0.08436  1.0000
  C   C36       1.0  0.06392  0.45910  0.00606  1.0000
  H   H61       1.0  0.27489  0.48405  0.03105  1.0000
  H   H62       1.0  0.41352  0.01069  0.10805  1.0000
  H   H63       1.0  0.47033  0.22252  0.10524  1.0000
  H   H64       1.0  0.03209  0.35935  0.08060  1.0000
  H   H65       1.0  0.48675  0.31957  0.01712  1.0000
  H   H66       1.0  0.46677  0.44112  0.00814  1.0000
  H   H67       1.0  0.04583  0.43821  0.00312  1.0000
  H   H68       1.0  0.02319  0.36022  0.11231  1.0000
  H   H69       1.0  0.05959  0.34068  0.06440  1.0000
  H   H70       1.0  0.28566  0.41225  0.00420  1.0000
  S   S12       1.0  0.30188  0.47356  0.00174  1.0000
  H   H71       1.0  0.41407  0.42451  0.00203  1.0000
  H   H72       1.0  0.01177  0.38800  0.08708  1.0000
  H   H73       1.0  0.48486  0.40567  0.00691  1.0000
  C   C37       1.0  0.25253  0.49571  0.07828  1.0000
  H   H74       1.0  0.49647  0.33224  0.03935  1.0000
  H   H75       1.0  0.07888  0.48970  0.11626  1.0000
  C   C38       1.0  0.00500  0.38558  0.10086  1.0000
  S   S13       1.0  0.13611  0.50173  0.06839  1.0000
  C   C39       1.0  0.05559  0.48269  0.00240  1.0000
  H   H76       1.0  0.00245  0.40459  0.10469  1.0000
  C   C40       1.0  0.00237  0.42551  0.06253  1.0000
  H   H77       1.0  0.37314  0.09445  0.48308  1.0000
  S   S14       1.0  0.45132  0.28801  0.55443  1.0000
  C   C41       1.0  0.01944  0.36315  0.47657  1.0000
  H   H78       1.0  0.42420  0.16898  0.51880  1.0000
  Fe  Fe7       1.0  0.45394  0.33154  0.54958  1.0000
  S   S15       1.0  0.41818  0.34345  0.54356  1.0000
  H   H79       1.0  0.21305  0.48850  0.53665  1.0000
  C   C42       1.0  0.28135  0.00750  0.48562  1.0000
  H   H80       1.0  0.45277  0.37810  0.48655  1.0000
  Fe  Fe8       1.0  0.44278  0.07581  0.44235  1.0000
  H   H81       1.0  0.17875  0.49296  0.51276  1.0000
  S   S16       1.0  0.41226  0.03229  0.43114  1.0000
  C   C43       1.0  0.00224  0.39087  0.43282  1.0000
  H   H82       1.0  0.32296  0.01511  0.49336  1.0000
  H   H83       1.0  0.42343  0.40873  0.50559  1.0000
  H   H84       1.0  0.48958  0.07311  0.51755  1.0000
  C   C44       1.0  0.32657  0.04735  0.47410  1.0000
  S   S17       1.0  0.43846  0.11647  0.44076  1.0000
  S   S18       1.0  0.45506  0.08212  0.47068  1.0000
  H   H85       1.0  0.46397  0.01913  0.42618  1.0000
  S   S19       1.0  0.34692  0.45542  0.53352  1.0000
  H   H86       1.0  0.34154  0.06218  0.44008  1.0000
  S   S20       1.0  0.33733  0.47734  0.57220  1.0000
  Fe  Fe9       1.0  0.36993  0.46687  0.55931  1.0000
  S   S21       1.0  0.39205  0.44302  0.57209  1.0000
  Fe  Fe10      1.0  0.31658  0.46966  0.54541  1.0000
  S   S22       1.0  0.26884  0.44466  0.54315  1.0000
  H   H87       1.0  0.48206  0.35084  0.46611  1.0000
  Fe  Fe11      1.0  0.11128  0.47122  0.45377  1.0000
  C   C45       1.0  0.02907  0.41210  0.43819  1.0000
  S   S23       1.0  0.06449  0.45633  0.46052  1.0000
  Fe  Fe12      1.0  0.16558  0.47025  0.46914  1.0000
  S   S24       1.0  0.17485  0.44616  0.49098  1.0000
  C   C46       1.0  0.43989  0.18467  0.51056  1.0000
  Fe  Fe13      1.0  0.16421  0.48795  0.43134  1.0000
  H   H88       1.0  0.04483  0.49864  0.55927  1.0000
  S   S25       1.0  0.13882  0.49081  0.47746  1.0000
  S   S26       1.0  0.13652  0.44811  0.44622  1.0000
  C   C47       1.0  0.24492  0.44673  0.52745  1.0000
  C   C48       1.0  0.25235  0.46786  0.51467  1.0000
  C   C49       1.0  0.23149  0.46823  0.50303  1.0000
  C   C50       1.0  0.20317  0.44762  0.50431  1.0000
  C   C51       1.0  0.19621  0.42672  0.51705  1.0000
  C   C52       1.0  0.21679  0.42620  0.52839  1.0000
  H   H89       1.0  0.04880  0.40423  0.48822  1.0000
  C   C53       1.0  0.04839  0.38361  0.48483  1.0000
  H   H90       1.0  0.17461  0.41060  0.51814  1.0000
  H   H91       1.0  0.21073  0.40976  0.53810  1.0000
  S   S27       1.0  0.50017  0.29314  0.59557  1.0000
  C   C54       1.0  0.03138  0.43098  0.45174  1.0000
  H   H92       1.0  0.00791  0.44348  0.46976  1.0000
  H   H93       1.0  0.04795  0.41349  0.43206  1.0000
  Fe  Fe14      1.0  0.49079  0.31173  0.57106  1.0000
  C   C55       1.0  0.48383  0.33563  0.47536  1.0000
  H   H94       1.0  0.12469  0.48909  0.54821  1.0000
  H   H95       1.0  0.48834  0.47593  0.48954  1.0000
  H   H96       1.0  0.36694  0.15124  0.45902  1.0000
  S   S28       1.0  0.49072  0.35410  0.56809  1.0000
  C   C56       1.0  0.41343  0.37303  0.55093  1.0000
  C   C57       1.0  0.42505  0.38714  0.56671  1.0000
  C   C58       1.0  0.41878  0.40892  0.57276  1.0000
  C   C59       1.0  0.40136  0.41735  0.56297  1.0000
  C   C60       1.0  0.39059  0.40397  0.54686  1.0000
  C   C61       1.0  0.39633  0.38173  0.54101  1.0000
  H   H97       1.0  0.43799  0.38054  0.57458  1.0000
  H   H98       1.0  0.42714  0.41900  0.58527  1.0000
  H   H99       1.0  0.37713  0.41013  0.53917  1.0000
  H   H100      1.0  0.38716  0.37093  0.52881  1.0000
  C   C62       1.0  0.47067  0.23418  0.50423  1.0000
  H   H101      1.0  0.07415  0.37027  0.46870  1.0000
  C   C63       1.0  0.00647  0.42890  0.45937  1.0000
  C   C64       1.0  0.44944  0.17586  0.49570  1.0000
  C   C65       1.0  0.46961  0.19638  0.48510  1.0000
  H   H102      1.0  0.22491  0.46615  0.56043  1.0000
  H   H103      1.0  0.43979  0.30517  0.47084  1.0000
  C   C66       1.0  0.46616  0.02770  0.51242  1.0000
  H   H104      1.0  0.48116  0.40915  0.51077  1.0000
  H   H105      1.0  0.06905  0.39928  0.45984  1.0000
  C   C67       1.0  0.48000  0.01908  0.43558  1.0000
  H   H106      1.0  0.27406  0.48376  0.51372  1.0000
  H   H107      1.0  0.45249  0.45965  0.50714  1.0000
  H   H108      1.0  0.23738  0.48412  0.49300  1.0000
  H   H109      1.0  0.44438  0.01086  0.51456  1.0000
  H   H110      1.0  0.33750  0.09974  0.46186  1.0000
  H   H111      1.0  0.32742  0.06115  0.48540  1.0000
  Fe  Fe15      1.0  0.37226  0.50138  0.52760  1.0000
  C   C68       1.0  0.47367  0.02879  0.49277  1.0000
  H   H112      1.0  0.43967  0.44559  0.52796  1.0000
  H   H113      1.0  0.18911  0.44293  0.55436  1.0000
  C   C69       1.0  0.48009  0.22534  0.48933  1.0000
  C   C70       1.0  0.33727  0.02033  0.44056  1.0000
  C   C71       1.0  0.47031  0.48966  0.52824  1.0000
  H   H114      1.0  0.48257  0.30757  0.45473  1.0000
  C   C72       1.0  0.17137  0.48155  0.54536  1.0000
  H   H115      1.0  0.09274  0.40533  0.47806  1.0000
  H   H116      1.0  0.41743  0.37360  0.48283  1.0000
  C   C73       1.0  0.11949  0.46805  0.52360  1.0000
  H   H117      1.0  0.49360  0.21632  0.54423  1.0000
  H   H118      1.0  0.45460  0.30068  0.49127  1.0000
  C   C74       1.0  0.20315  0.46403  0.56010  1.0000
  C   C75       1.0  0.45048  0.21369  0.51484  1.0000
  C   C76       1.0  0.09086  0.46519  0.51747  1.0000
  H   H119      1.0  0.32928  0.49895  0.48181  1.0000
  H   H120      1.0  0.31474  0.01132  0.44419  1.0000
  C   C77       1.0  0.45416  0.31649  0.48194  1.0000
  C   C78       1.0  0.49651  0.31780  0.46620  1.0000
  H   H121      1.0  0.35992  0.02675  0.41592  1.0000
  S   S29       1.0  0.48727  0.09701  0.43215  1.0000
  H   H122      1.0  0.15901  0.47413  0.55758  1.0000
  H   H123      1.0  0.16290  0.46270  0.53647  1.0000
  H   H124      1.0  0.37185  0.00966  0.50225  1.0000
  H   H125      1.0  0.40001  0.07348  0.49419  1.0000
  C   C79       1.0  0.31223  0.01659  0.48119  1.0000
  H   H126      1.0  0.48609  0.24614  0.54652  1.0000
  H   H127      1.0  0.11573  0.44878  0.53111  1.0000
  H   H128      1.0  0.13153  0.46812  0.51186  1.0000
  H   H129      1.0  0.27961  0.02210  0.49551  1.0000
  H   H130      1.0  0.36112  0.02055  0.47309  1.0000
  H   H131      1.0  0.42631  0.36284  0.50336  1.0000
  H   H132      1.0  0.39610  0.03794  0.51617  1.0000
  S   S30       1.0  0.43540  0.13917  0.49057  1.0000
  C   C80       1.0  0.00211  0.30946  0.49864  1.0000
  H   H133      1.0  0.45372  0.40112  0.52591  1.0000
  C   C81       1.0  0.48710  0.44581  0.54087  1.0000
  C   C82       1.0  0.37570  0.13843  0.46582  1.0000
  H   H134      1.0  0.49819  0.04057  0.43581  1.0000
  H   H135      1.0  0.40800  0.03081  0.49560  1.0000
  H   H136      1.0  0.07775  0.46475  0.52883  1.0000
  C   C83       1.0  0.35306  0.05170  0.44656  1.0000
  H   H137      1.0  0.07959  0.44526  0.50979  1.0000
  H   H138      1.0  0.28038  0.40021  0.51904  1.0000
  H   H139      1.0  0.26920  0.00725  0.47367  1.0000
  H   H140      1.0  0.39211  0.04987  0.46657  1.0000
  H   H141      1.0  0.36435  0.05339  0.50122  1.0000
  C   C84       1.0  0.38982  0.03128  0.50237  1.0000
  C   C85       1.0  0.33788  0.01760  0.42066  1.0000
  N   N3        1.0  0.35541  0.05737  0.46606  1.0000
  C   C86       1.0  0.37190  0.08902  0.46889  1.0000
  H   H142      1.0  0.44558  0.32931  0.48890  1.0000
  C   C87       1.0  0.07244  0.38988  0.47203  1.0000
  N   N4        1.0  0.29681  0.36489  0.57274  1.0000
  C   C88       1.0  0.30803  0.34434  0.57798  1.0000
  C   C89       1.0  0.26566  0.35284  0.57681  1.0000
  C   C90       1.0  0.30012  0.36868  0.55316  1.0000
  C   C91       1.0  0.31313  0.39361  0.58129  1.0000
  C   C92       1.0  0.31485  0.39432  0.60151  1.0000
  C   C93       1.0  0.33955  0.35349  0.57407  1.0000
  C   C94       1.0  0.28666  0.38636  0.54463  1.0000
  C   C95       1.0  0.25479  0.33364  0.59311  1.0000
  C   C96       1.0  0.22452  0.32755  0.59736  1.0000
  C   C97       1.0  0.33464  0.42398  0.60836  1.0000
  C   C98       1.0  0.34883  0.33199  0.58111  1.0000
  C   C99       1.0  0.28880  0.38621  0.52470  1.0000
  H   H143      1.0  0.29548  0.32355  0.57128  1.0000
  H   H144      1.0  0.30538  0.33976  0.59215  1.0000
  H   H145      1.0  0.25941  0.37025  0.57807  1.0000
  H   H146      1.0  0.25269  0.33930  0.56572  1.0000
  H   H147      1.0  0.29108  0.34762  0.54642  1.0000
  H   H148      1.0  0.32283  0.37957  0.54961  1.0000
  H   H149      1.0  0.33493  0.40419  0.57614  1.0000
  H   H150      1.0  0.30379  0.40794  0.57767  1.0000
  H   H151      1.0  0.32294  0.37978  0.60659  1.0000
  H   H152      1.0  0.29377  0.38875  0.60701  1.0000
  H   H153      1.0  0.34326  0.35483  0.55979  1.0000
  H   H154      1.0  0.35328  0.37423  0.58029  1.0000
  H   H155      1.0  0.29774  0.40867  0.54918  1.0000
  H   H156      1.0  0.26401  0.37818  0.54779  1.0000
  H   H157      1.0  0.25487  0.31298  0.59050  1.0000
  H   H158      1.0  0.26795  0.34314  0.60490  1.0000
  H   H159      1.0  0.21701  0.31314  0.60872  1.0000
  C   C100      1.0  0.48884  0.01114  0.46730  1.0000
  H   H160      1.0  0.21026  0.31720  0.58602  1.0000
  H   H161      1.0  0.35644  0.43069  0.60363  1.0000
  H   H162      1.0  0.32727  0.43954  0.60405  1.0000
  H   H163      1.0  0.33518  0.42401  0.62288  1.0000
  H   H164      1.0  0.37133  0.33888  0.57789  1.0000
  H   H165      1.0  0.34670  0.33039  0.59555  1.0000
  H   H166      1.0  0.33613  0.31083  0.57502  1.0000
  H   H167      1.0  0.27624  0.36448  0.51935  1.0000
  C   C101      1.0  0.45938  0.45914  0.52080  1.0000
  H   H168      1.0  0.31111  0.39420  0.52065  1.0000
  S   S31       1.0  0.48457  0.27108  0.50858  1.0000
  C   C102      1.0  0.13536  0.49481  0.53537  1.0000
  H   H169      1.0  0.02207  0.34559  0.47029  1.0000
  C   C103      1.0  0.44278  0.40849  0.50032  1.0000
  N   N5        1.0  0.47950  0.44616  0.52180  1.0000
  Fe  Fe16      1.0  0.45439  0.12430  0.46861  1.0000
  H   H170      1.0  0.31185  0.04967  0.46453  1.0000
  H   H171      1.0  0.19646  0.46504  0.57372  1.0000
  H   H172      1.0  0.01558  0.37452  0.46550  1.0000
  C   C104      1.0  0.43435  0.37890  0.49284  1.0000
  H   H173      1.0  0.46107  0.05438  0.53240  1.0000
  H   H174      1.0  0.05296  0.37454  0.49675  1.0000
  Fe  Fe17      1.0  0.48147  0.29648  0.53211  1.0000
  C   C105      1.0  0.46763  0.05592  0.51853  1.0000
  H   H175      1.0  0.09374  0.48310  0.50885  1.0000
  Fe  Fe18      1.0  0.48456  0.13822  0.43346  1.0000
  H   H176      1.0  0.39414  0.09652  0.46481  1.0000
  H   H177      1.0  0.45036  0.42362  0.48940  1.0000
  H   H178      1.0  0.36392  0.10781  0.44518  1.0000
  H   H179      1.0  0.45589  0.02969  0.48555  1.0000
  H   H180      1.0  0.39857  0.14752  0.46289  1.0000
  C   C106      1.0  0.36039  0.10764  0.45949  1.0000
  H   H181      1.0  0.47690  0.18997  0.47351  1.0000
  H   H182      1.0  0.44281  0.22018  0.52624  1.0000
  H   H183      1.0  0.22346  0.34750  0.60076  1.0000
  S   S32       1.0  0.18186  0.49077  0.40407  1.0000
  H   H184      1.0  0.34677  0.00740  0.44628  1.0000
  H   H185      1.0  0.37454  0.06102  0.44070  1.0000
  C   C107      1.0  0.37240  0.04395  0.47413  1.0000
  H   H186      1.0  0.37313  0.13999  0.48014  1.0000
  H   H187      1.0  0.46754  0.43620  0.54883  1.0000
  S   S33       1.0  0.48084  0.33761  0.52595  1.0000
  C   C108      1.0  0.20223  0.48771  0.54916  1.0000
  C   C109      1.0  0.38144  0.05225  0.49353  1.0000
  H   H188      1.0  0.49000  0.41893  0.57199  1.0000
  C   C110      1.0  0.46518  0.41584  0.51515  1.0000
  H   H189      1.0  0.01114  0.39007  0.50510  1.0000
  H   H190      1.0  0.45351  0.06163  0.51049  1.0000
  S   S34       1.0  0.49973  0.14774  0.46128  1.0000
  H   H191      1.0  0.40547  0.01201  0.46737  1.0000
  H   H192      1.0  0.49215  0.04946  0.49018  1.0000
  H   H193      1.0  0.49898  0.28785  0.43585  1.0000
  H   H194      1.0  0.49551  0.24098  0.48095  1.0000
  H   H195      1.0  0.42823  0.48708  0.53018  1.0000
  H   H196      1.0  0.45969  0.02723  0.45733  1.0000
  C   C111      1.0  0.00859  0.29665  0.51490  1.0000
  H   H197      1.0  0.47317  0.48996  0.54265  1.0000
  H   H198      1.0  0.49376  0.29999  0.47494  1.0000
  H   H199      1.0  0.49639  0.44667  0.48522  1.0000
  H   H200      1.0  0.02850  0.31215  0.52129  1.0000
  C   C112      1.0  0.46704  0.01136  0.45374  1.0000
  H   H201      1.0  0.32682  0.02857  0.41420  1.0000
  H   H202      1.0  0.01116  0.27766  0.51108  1.0000
  H   H203      1.0  0.48071  0.02340  0.52092  1.0000
  H   H204      1.0  0.01997  0.31499  0.48958  1.0000
  H   H205      1.0  0.49684  0.34775  0.48670  1.0000
  H   H206      1.0  0.49383  0.40731  0.54101  1.0000
  H   H207      1.0  0.01501  0.34937  0.51249  1.0000
  N   N6        1.0  0.47880  0.00473  0.48593  1.0000
  H   H208      1.0  0.00077  0.37614  0.42252  1.0000
  C   C113      1.0  0.44913  0.50121  0.52459  1.0000
  Fe  Fe19      1.0  0.49893  0.10511  0.46051  1.0000
  H   H209      1.0  0.49951  0.46775  0.54600  1.0000
  H   H210      1.0  0.48706  0.00341  0.43096  1.0000
  H   H211      1.0  0.05115  0.50166  0.47536  1.0000
  N   N7        1.0  0.45450  0.46768  0.97961  1.0000
  S   S35       1.0  0.46081  0.29413  0.95159  1.0000
  C   C114      1.0  0.27334  0.37224  0.95270  1.0000
  N   N8        1.0  0.27141  0.35071  0.96622  1.0000
  S   S36       1.0  0.36114  0.46426  0.97520  1.0000
  H   H212      1.0  0.26264  0.34411  0.92921  1.0000
  Fe  Fe20      1.0  0.46140  0.33641  0.95852  1.0000
  S   S37       1.0  0.42490  0.34554  0.96770  1.0000
  H   H213      1.0  0.43085  0.48948  0.93207  1.0000
  Fe  Fe21      1.0  0.34543  0.44404  0.94896  1.0000
  H   H214      1.0  0.43864  0.42234  0.97817  1.0000
  S   S38       1.0  0.35178  0.40596  0.93959  1.0000
  H   H215      1.0  0.23484  0.35160  0.93648  1.0000
  H   H216      1.0  0.25826  0.37142  0.98618  1.0000
  H   H217      1.0  0.21832  0.34822  0.96485  1.0000
  H   H218      1.0  0.26468  0.38642  0.95789  1.0000
  S   S39       1.0  0.30489  0.44866  0.95078  1.0000
  C   C115      1.0  0.48143  0.18089  0.95989  1.0000
  H   H219      1.0  0.49857  0.23807  0.93776  1.0000
  C   C116      1.0  0.47096  0.12557  0.99324  1.0000
  C   C117      1.0  0.21555  0.43365  0.99990  1.0000
  C   C118      1.0  0.40779  0.36562  0.95966  1.0000
  C   C119      1.0  0.40803  0.37271  0.94201  1.0000
  C   C120      1.0  0.39176  0.38613  0.93613  1.0000
  C   C121      1.0  0.37589  0.39370  0.94786  1.0000
  C   C122      1.0  0.37662  0.38766  0.96561  1.0000
  C   C123      1.0  0.39197  0.37329  0.97137  1.0000
  H   H220      1.0  0.41979  0.36676  0.93275  1.0000
  H   H221      1.0  0.39106  0.39018  0.92232  1.0000
  H   H222      1.0  0.36427  0.39282  0.97481  1.0000
  H   H223      1.0  0.39141  0.36781  0.98503  1.0000
  C   C124      1.0  0.25803  0.36079  0.93488  1.0000
  S   S40       1.0  0.36727  0.48425  0.93354  1.0000
  H   H224      1.0  0.41622  0.44609  0.96392  1.0000
  C   C125      1.0  0.43152  0.46885  0.93091  1.0000
  H   H225      1.0  0.48443  0.18174  0.98817  1.0000
  H   H226      1.0  0.45046  0.44545  0.94345  1.0000
  H   H227      1.0  0.29583  0.38658  0.94997  1.0000
  H   H228      1.0  0.39540  0.43831  0.98854  1.0000
  Fe  Fe22      1.0  0.49506  0.30454  0.97204  1.0000
  C   C126      1.0  0.43885  0.46963  0.99559  1.0000
  H   H229      1.0  0.26097  0.40124  0.92618  1.0000
  Fe  Fe23      1.0  0.32281  0.47226  0.97603  1.0000
  H   H230      1.0  0.48227  0.12910  0.96615  1.0000
  H   H231      1.0  0.24933  0.43660  0.98295  1.0000
  C   C127      1.0  0.26656  0.38451  0.92150  1.0000
  C   C128      1.0  0.24406  0.44354  0.99511  1.0000
  H   H232      1.0  0.46760  0.15830  0.95689  1.0000
  C   C129      1.0  0.24350  0.32437  0.96560  1.0000
  H   H233      1.0  0.17593  0.48673  0.97456  1.0000
  H   H234      1.0  0.22665  0.49503  0.97344  1.0000
  H   H235      1.0  0.47137  0.44118  0.96795  1.0000
  H   H236      1.0  0.28964  0.39410  0.91910  1.0000
  H   H237      1.0  0.44576  0.18482  0.97112  1.0000
  H   H238      1.0  0.45170  0.19394  0.94836  1.0000
  C   C130      1.0  0.18648  0.48149  0.98554  1.0000
  H   H239      1.0  0.27541  0.30984  0.94326  1.0000
  H   H240      1.0  0.21669  0.33065  0.98514  1.0000
  C   C131      1.0  0.46230  0.19539  0.96117  1.0000
  H   H241      1.0  0.47467  0.21811  0.96479  1.0000
  H   H242      1.0  0.25532  0.37586  0.90890  1.0000
  H   H243      1.0  0.44074  0.46795  0.91807  1.0000
  C   C132      1.0  0.31748  0.31605  0.94778  1.0000
  H   H244      1.0  0.46542  0.08215  0.99355  1.0000
  H   H245      1.0  0.23934  0.31422  0.95247  1.0000
  H   H246      1.0  0.18204  0.45897  0.98409  1.0000
  H   H247      1.0  0.31150  0.29950  0.95796  1.0000
  C   C133      1.0  0.44947  0.46575  0.94565  1.0000
  S   S41       1.0  0.49317  0.34441  0.98029  1.0000
  H   H248      1.0  0.45017  0.39190  0.99724  1.0000
  C   C134      1.0  0.30337  0.38977  0.98840  1.0000
  H   H249      1.0  0.30277  0.34353  0.93605  1.0000
  C   C135      1.0  0.29597  0.32780  0.94675  1.0000
  Fe  Fe24      1.0  0.32903  0.49124  0.93791  1.0000
  H   H250      1.0  0.46194  0.00520  0.99464  1.0000
  H   H251      1.0  0.18803  0.28366  0.97066  1.0000
  H   H252      1.0  0.17173  0.30698  0.96916  1.0000
  H   H253      1.0  0.19899  0.41915  0.99131  1.0000
  C   C136      1.0  0.21744  0.32870  0.97068  1.0000
  H   H254      1.0  0.32005  0.38288  0.99035  1.0000
  H   H255      1.0  0.31840  0.30648  0.93498  1.0000
  C   C137      1.0  0.46159  0.22916  0.99977  1.0000
  C   C138      1.0  0.45914  0.44161  0.97961  1.0000
  C   C139      1.0  0.45245  0.09360  0.99185  1.0000
  C   C140      1.0  0.27456  0.36393  0.98423  1.0000
  H   H256      1.0  0.18893  0.30149  0.95032  1.0000
  H   H257      1.0  0.31580  0.36134  0.96504  1.0000
  H   H258      1.0  0.29455  0.32845  0.97516  1.0000
  H   H259      1.0  0.17751  0.48390  0.99816  1.0000
  C   C141      1.0  0.47509  0.43777  0.99556  1.0000
  H   H260      1.0  0.30977  0.40542  0.97770  1.0000
  H   H261      1.0  0.44136  0.08781  0.97898  1.0000
  H   H262      1.0  0.27088  0.34787  0.99455  1.0000
  C   C142      1.0  0.29497  0.34240  0.96417  1.0000
  H   H263      1.0  0.24407  0.30810  0.97458  1.0000
  H   H264      1.0  0.04843  0.48042  0.98857  1.0000
  H   H265      1.0  0.33886  0.33317  0.95085  1.0000
  H   H266      1.0  0.40968  0.45145  0.93128  1.0000
  H   H267      1.0  0.45695  0.13593  0.99206  1.0000
  C   C143      1.0  0.47254  0.40782  0.99575  1.0000
  H   H268      1.0  0.44914  0.23593  0.99155  1.0000
  H   H269      1.0  0.47102  0.48338  0.94444  1.0000
  C   C144      1.0  0.18990  0.30360  0.96481  1.0000
  H   H270      1.0  0.20146  0.49304  0.92633  1.0000
  H   H271      1.0  0.22752  0.49491  0.99690  1.0000
  Fe  Fe25      1.0  0.49643  0.31998  0.93320  1.0000
  C   C145      1.0  0.43643  0.46575  0.96379  1.0000
  H   H272      1.0  0.48074  0.40323  0.98342  1.0000
  H   H273      1.0  0.49598  0.19052  0.94882  1.0000
  H   H274      1.0  0.43457  0.48835  0.99451  1.0000
  C   C146      1.0  0.49373  0.13597  0.97880  1.0000
  C   C147      1.0  0.49871  0.18509  0.97697  1.0000
  S   S42       1.0  0.49432  0.36095  0.93853  1.0000
  H   H275      1.0  0.00461  0.38924  0.99835  1.0000
  H   H276      1.0  0.43051  0.48338  0.96408  1.0000
  H   H277      1.0  0.49786  0.45276  0.99474  1.0000
  H   H278      1.0  0.49708  0.48998  0.96968  1.0000
  C   C148      1.0  0.48219  0.49429  0.97792  1.0000
  C   C149      1.0  0.41059  0.44334  0.99950  1.0000
  C   C150      1.0  0.21831  0.50040  0.98541  1.0000
  H   H279      1.0  0.08200  0.46148  0.99783  1.0000
  Fe  Fe26      1.0  0.36619  0.87335  0.05417  1.0000
  S   S43       1.0  0.37874  0.84601  0.07119  1.0000
  S   S44       1.0  0.39900  0.91954  0.04952  1.0000
  Fe  Fe27      1.0  0.31491  0.82019  0.03860  1.0000
  S   S45       1.0  0.32408  0.78987  0.05441  1.0000
  S   S46       1.0  0.27946  0.80520  0.01827  1.0000
  Fe  Fe28      1.0  0.33252  0.82068  0.07652  1.0000
  S   S47       1.0  0.31469  0.80124  0.10267  1.0000
  Fe  Fe29      1.0  0.36904  0.81722  0.04790  1.0000
  S   S48       1.0  0.39645  0.79699  0.04025  1.0000
  S   S49       1.0  0.31997  0.84987  0.06128  1.0000
  S   S50       1.0  0.35973  0.84580  0.03039  1.0000
  S   S51       1.0  0.47428  0.64855  0.04995  1.0000
  H   H280      1.0  0.35297  0.78690  0.25656  1.0000
  S   S52       1.0  0.44474  0.56847  0.04377  1.0000
  C   C151      1.0  0.11296  0.56925  0.02448  1.0000
  H   H281      1.0  0.36389  0.94102  0.06803  1.0000
  S   S53       1.0  0.17853  0.55487  0.03192  1.0000
  Fe  Fe30      1.0  0.31482  0.64585  0.31964  1.0000
  H   H282      1.0  0.33914  0.74135  0.18085  1.0000
  S   S54       1.0  0.29918  0.63045  0.29137  1.0000
  C   C152      1.0  0.28783  0.69757  0.07572  1.0000
  C   C153      1.0  0.33609  0.74637  0.24260  1.0000
  Fe  Fe31      1.0  0.34964  0.68876  0.15013  1.0000
  S   S55       1.0  0.37446  0.67311  0.16690  1.0000
  S   S56       1.0  0.37229  0.73383  0.14044  1.0000
  Fe  Fe32      1.0  0.29834  0.63079  0.14918  1.0000
  S   S57       1.0  0.31908  0.61100  0.16649  1.0000
  S   S58       1.0  0.25652  0.61232  0.13427  1.0000
  Fe  Fe33      1.0  0.33487  0.65128  0.18296  1.0000
  S   S59       1.0  0.34479  0.66158  0.21256  1.0000
  Fe  Fe34      1.0  0.35706  0.63484  0.14946  1.0000
  S   S60       1.0  0.38047  0.61296  0.13668  1.0000
  S   S61       1.0  0.31107  0.66937  0.16672  1.0000
  S   S62       1.0  0.33536  0.65207  0.13149  1.0000
  C   C154      1.0  0.31181  0.64028  0.26950  1.0000
  C   C155      1.0  0.29637  0.62266  0.25539  1.0000
  C   C156      1.0  0.30578  0.62893  0.23793  1.0000
  C   C157      1.0  0.33099  0.65291  0.23425  1.0000
  C   C158      1.0  0.34631  0.67071  0.24833  1.0000
  C   C159      1.0  0.33679  0.66456  0.26578  1.0000
  H   H283      1.0  0.27699  0.60386  0.25800  1.0000
  H   H284      1.0  0.29366  0.61499  0.22735  1.0000
  H   H285      1.0  0.36583  0.68935  0.24574  1.0000
  H   H286      1.0  0.34882  0.67855  0.27635  1.0000
  C   C160      1.0  0.20625  0.52285  0.11078  1.0000
  C   C161      1.0  0.22543  0.52743  0.12464  1.0000
  C   C162      1.0  0.24168  0.55485  0.13166  1.0000
  C   C163      1.0  0.23836  0.57780  0.12512  1.0000
  C   C164      1.0  0.21916  0.57317  0.11128  1.0000
  C   C165      1.0  0.20354  0.54595  0.10394  1.0000
  C   C166      1.0  0.43531  0.74410  0.02752  1.0000
  H   H287      1.0  0.25604  0.55807  0.14250  1.0000
  H   H288      1.0  0.21629  0.59074  0.10621  1.0000
  H   H289      1.0  0.47592  0.92812  0.01991  1.0000
  C   C167      1.0  0.17489  0.55567  0.00919  1.0000
  H   H290      1.0  0.35517  0.74355  0.24542  1.0000
  C   C168      1.0  0.05294  0.53865  0.01258  1.0000
  H   H291      1.0  0.21876  0.61370  0.33057  1.0000
  H   H292      1.0  0.38816  0.60093  0.23002  1.0000
  H   H293      1.0  0.05287  0.52976  0.02578  1.0000
  C   C169      1.0  0.46377  0.66080  0.10723  1.0000
  C   C170      1.0  0.45392  0.67565  0.11830  1.0000
  C   C171      1.0  0.42806  0.66142  0.12705  1.0000
  C   C172      1.0  0.41231  0.63204  0.12524  1.0000
  C   C173      1.0  0.42229  0.61720  0.11429  1.0000
  C   C174      1.0  0.44765  0.63154  0.10508  1.0000
  H   H294      1.0  0.46629  0.69826  0.12007  1.0000
  H   H295      1.0  0.42066  0.67307  0.13552  1.0000
  H   H296      1.0  0.41043  0.59446  0.11297  1.0000
  H   H297      1.0  0.45507  0.61985  0.09666  1.0000
  H   H298      1.0  0.36666  0.71427  0.18948  1.0000
  H   H299      1.0  0.24565  0.56336  0.02212  1.0000
  C   C175      1.0  0.44017  0.55608  0.02219  1.0000
  H   H300      1.0  0.45999  0.85630  0.03693  1.0000
  C   C176      1.0  0.33794  0.75429  0.19210  1.0000
  H   H301      1.0  0.39486  0.53480  0.02389  1.0000
  H   H302      1.0  0.33862  0.54929  0.14808  1.0000
  H   H303      1.0  0.49491  0.77055  0.06628  1.0000
  C   C177      1.0  0.36869  0.91716  0.11047  1.0000
  H   H304      1.0  0.36582  0.89562  0.14390  1.0000
  C   C178      1.0  0.26894  0.74883  0.01618  1.0000
  C   C179      1.0  0.28673  0.55622  0.29640  1.0000
  H   H305      1.0  0.37668  0.57787  0.26209  1.0000
  H   H306      1.0  0.28651  0.75441  0.02513  1.0000
  C   C180      1.0  0.33008  0.78135  0.11251  1.0000
  C   C181      1.0  0.31576  0.76215  0.12583  1.0000
  C   C182      1.0  0.32780  0.74621  0.13387  1.0000
  C   C183      1.0  0.35471  0.75024  0.12906  1.0000
  C   C184      1.0  0.36913  0.76971  0.11592  1.0000
  C   C185      1.0  0.35665  0.78477  0.10743  1.0000
  H   H307      1.0  0.29530  0.75958  0.12992  1.0000
  H   H308      1.0  0.31679  0.73164  0.14422  1.0000
  H   H309      1.0  0.39007  0.77315  0.11229  1.0000
  H   H310      1.0  0.36791  0.79949  0.09721  1.0000
  C   C186      1.0  0.46036  0.87745  0.03677  1.0000
  C   C187      1.0  0.40284  0.80389  0.01804  1.0000
  H   H311      1.0  0.38571  0.60032  0.01885  1.0000
  H   H312      1.0  0.42669  0.65232  0.06950  1.0000
  H   H313      1.0  0.12920  0.61519  0.02454  1.0000
  H   H314      1.0  0.43382  0.74646  0.08089  1.0000
  C   C188      1.0  0.37091  0.74427  0.21086  1.0000
  H   H315      1.0  0.31381  0.57274  0.13250  1.0000
  C   C189      1.0  0.40474  0.95391  0.05672  1.0000
  C   C190      1.0  0.38427  0.95860  0.06560  1.0000
  H   H316      1.0  0.44685  0.69647  0.05080  1.0000
  C   C191      1.0  0.34816  0.57623  0.08557  1.0000
  C   C192      1.0  0.36506  0.55907  0.08264  1.0000
  C   C193      1.0  0.39184  0.57619  0.07225  1.0000
  H   H317      1.0  0.36243  0.59623  0.09263  1.0000
  H   H318      1.0  0.34444  0.58248  0.07232  1.0000
  H   H319      1.0  0.32359  0.60952  0.07513  1.0000
  H   H320      1.0  0.35253  0.53930  0.07510  1.0000
  H   H321      1.0  0.37152  0.55336  0.09525  1.0000
  H   H322      1.0  0.40503  0.59691  0.07869  1.0000
  H   H323      1.0  0.40448  0.56428  0.07145  1.0000
  H   H324      1.0  0.38655  0.57985  0.05872  1.0000
  N   N9        1.0  0.36665  0.59777  0.28397  1.0000
  H   H325      1.0  0.40356  0.63723  0.23803  1.0000
  C   C194      1.0  0.37217  0.62657  0.29113  1.0000
  C   C195      1.0  0.39997  0.65227  0.28546  1.0000
  H   H326      1.0  0.29239  0.69905  0.06148  1.0000
  C   C196      1.0  0.40617  0.67859  0.29650  1.0000
  H   H327      1.0  0.40178  0.61314  0.26587  1.0000
  H   H328      1.0  0.26928  0.60263  0.09285  1.0000
  C   C197      1.0  0.48080  0.74770  0.06837  1.0000
  H   H329      1.0  0.35494  0.63189  0.28727  1.0000
  H   H330      1.0  0.38077  0.79075  0.19214  1.0000
  H   H331      1.0  0.39829  0.65761  0.27162  1.0000
  C   C198      1.0  0.35744  0.79431  0.17015  1.0000
  H   H332      1.0  0.32318  0.59153  0.30730  1.0000
  C   C199      1.0  0.29007  0.61517  0.08672  1.0000
  H   H333      1.0  0.27481  0.52951  0.03715  1.0000
  H   H334      1.0  0.32177  0.74094  0.07980  1.0000
  H   H335      1.0  0.40866  0.67467  0.31053  1.0000
  H   H336      1.0  0.42606  0.69651  0.29211  1.0000
  H   H337      1.0  0.38379  0.93285  0.14812  1.0000
  N   N10       1.0  0.26190  0.70158  0.07908  1.0000
  C   C200      1.0  0.23673  0.67708  0.07084  1.0000
  C   C201      1.0  0.25673  0.70231  0.09842  1.0000
  C   C202      1.0  0.25655  0.67763  0.10938  1.0000
  C   C203      1.0  0.23645  0.67533  0.05052  1.0000
  H   H338      1.0  0.47626  0.77093  0.03908  1.0000
  C   C204      1.0  0.25024  0.68082  0.12854  1.0000
  H   H339      1.0  0.28414  0.67588  0.07948  1.0000
  H   H340      1.0  0.23522  0.65662  0.07562  1.0000
  H   H341      1.0  0.21675  0.67721  0.07500  1.0000
  H   H342      1.0  0.23599  0.70217  0.10061  1.0000
  H   H343      1.0  0.27724  0.67724  0.10904  1.0000
  H   H344      1.0  0.24015  0.65686  0.10455  1.0000
  H   H345      1.0  0.23695  0.69460  0.04459  1.0000
  H   H346      1.0  0.25477  0.67273  0.04568  1.0000
  H   H347      1.0  0.40149  0.88862  0.16188  1.0000
  H   H348      1.0  0.31405  0.88116  0.12267  1.0000
  H   H349      1.0  0.16633  0.61934  0.32184  1.0000
  H   H350      1.0  0.22896  0.67973  0.12979  1.0000
  H   H351      1.0  0.25078  0.66349  0.13636  1.0000
  H   H352      1.0  0.26626  0.70125  0.13409  1.0000
  H   H353      1.0  0.40649  0.65168  0.08842  1.0000
  H   H354      1.0  0.41913  0.72170  0.02698  1.0000
  H   H355      1.0  0.37405  0.98961  0.07801  1.0000
  H   H356      1.0  0.41567  0.70063  0.05161  1.0000
  H   H357      1.0  0.35953  0.92404  0.12139  1.0000
  C   C205      1.0  0.44987  0.78477  0.06602  1.0000
  C   C206      1.0  0.45340  0.91292  0.01759  1.0000
  H   H358      1.0  0.41851  0.64811  0.28653  1.0000
  H   H359      1.0  0.41957  0.92637  0.16638  1.0000
  C   C207      1.0  0.39005  0.98625  0.07114  1.0000
  H   H360      1.0  0.41693  0.61821  0.30673  1.0000
  H   H361      1.0  0.36934  0.58169  0.30956  1.0000
  H   H362      1.0  0.22883  0.76857  0.06408  1.0000
  H   H363      1.0  0.00644  0.54480  0.02399  1.0000
  H   H364      1.0  0.25996  0.70486  0.01430  1.0000
  C   C208      1.0  0.38692  0.91377  0.14610  1.0000
  C   C209      1.0  0.25392  0.72077  0.00997  1.0000
  H   H365      1.0  0.46636  0.88065  0.00901  1.0000
  H   H366      1.0  0.43842  0.96631  0.11374  1.0000
  C   C210      1.0  0.41288  0.66084  0.07520  1.0000
  H   H367      1.0  0.33509  0.69098  0.08661  1.0000
  H   H368      1.0  0.44164  0.91530  0.02899  1.0000
  H   H369      1.0  0.47210  0.79506  0.07060  1.0000
  H   H370      1.0  0.41480  0.70017  0.08380  1.0000
  H   H371      1.0  0.39358  0.65413  0.06698  1.0000
  C   C211      1.0  0.24764  0.76458  0.06382  1.0000
  H   H372      1.0  0.41694  0.59546  0.02117  1.0000
  H   H373      1.0  0.15453  0.60300  0.01811  1.0000
  H   H374      1.0  0.12106  0.55411  0.02848  1.0000
  H   H375      1.0  0.25150  0.50326  0.06494  1.0000
  H   H376      1.0  0.13624  0.58914  0.29801  1.0000
  C   C212      1.0  0.25167  0.54592  0.02101  1.0000
  C   C213      1.0  0.35037  0.88482  0.10772  1.0000
  H   H377      1.0  0.26490  0.78171  0.07141  1.0000
  C   C214      1.0  0.23368  0.57183  0.32482  1.0000
  H   H378      1.0  0.35591  0.87237  0.11727  1.0000
  H   H379      1.0  0.44130  0.81887  0.07554  1.0000
  H   H380      1.0  0.27380  0.73139  0.05769  1.0000
  H   H381      1.0  0.37196  0.56122  0.29166  1.0000
  H   H382      1.0  0.40218  0.91857  0.08575  1.0000
  N   N11       1.0  0.34169  0.74228  0.20920  1.0000
  C   C215      1.0  0.33740  0.75875  0.22407  1.0000
  C   C216      1.0  0.32065  0.71144  0.20991  1.0000
  C   C217      1.0  0.28904  0.70460  0.20952  1.0000
  C   C218      1.0  0.33409  0.76592  0.25673  1.0000
  C   C219      1.0  0.27043  0.67302  0.21251  1.0000
  H   H383      1.0  0.35483  0.78075  0.22444  1.0000
  H   H384      1.0  0.31790  0.76126  0.22193  1.0000
  H   H385      1.0  0.32446  0.70141  0.22171  1.0000
  H   H386      1.0  0.32369  0.69970  0.19876  1.0000
  H   H387      1.0  0.31647  0.75289  0.19112  1.0000
  H   H388      1.0  0.28310  0.70981  0.19658  1.0000
  H   H389      1.0  0.28402  0.71642  0.21981  1.0000
  H   H390      1.0  0.31481  0.76881  0.25475  1.0000
  H   H391      1.0  0.33294  0.75642  0.26981  1.0000
  H   H392      1.0  0.27435  0.66012  0.20236  1.0000
  H   H393      1.0  0.27477  0.66678  0.22562  1.0000
  H   H394      1.0  0.24785  0.66831  0.21179  1.0000
  H   H395      1.0  0.37233  0.62365  0.22445  1.0000
  H   H396      1.0  0.25422  0.76531  0.05000  1.0000
  H   H397      1.0  0.47103  0.73656  0.03311  1.0000
  C   C220      1.0  0.13686  0.59917  0.02707  1.0000
  H   H398      1.0  0.41246  0.96517  0.09858  1.0000
  H   H399      1.0  0.33055  0.55892  0.27568  1.0000
  H   H400      1.0  0.47694  0.74565  0.08272  1.0000
  H   H401      1.0  0.18881  0.54273  0.09332  1.0000
  H   H402      1.0  0.11685  0.58155  0.31815  1.0000
  H   H403      1.0  0.38635  0.75071  0.18369  1.0000
  H   H404      1.0  0.44699  0.97392  0.04661  1.0000
  H   H405      1.0  0.28624  0.53890  0.12595  1.0000
  C   C221      1.0  0.33980  0.71209  0.08123  1.0000
  C   C222      1.0  0.13460  0.58020  0.31131  1.0000
  H   H406      1.0  0.33550  0.78926  0.16618  1.0000
  H   H407      1.0  0.05738  0.56112  0.01497  1.0000
  C   C223      1.0  0.30078  0.53653  0.08419  1.0000
  H   H408      1.0  0.36053  0.62613  0.25553  1.0000
  H   H409      1.0  0.34370  0.71227  0.06696  1.0000
  C   C224      1.0  0.02223  0.52423  0.00526  1.0000
  H   H410      1.0  0.38888  0.68475  0.29501  1.0000
  H   H411      1.0  0.37153  0.62621  0.30571  1.0000
  H   H412      1.0  0.31312  0.71962  0.09913  1.0000
  N   N12       1.0  0.32070  0.56126  0.09532  1.0000
  C   C225      1.0  0.36490  0.60855  0.25113  1.0000
  H   H413      1.0  0.22240  0.71960  0.06409  1.0000
  C   C226      1.0  0.43621  0.70689  0.05839  1.0000
  H   H414      1.0  0.36553  0.78295  0.16133  1.0000
  C   C227      1.0  0.38349  0.61814  0.23496  1.0000
  H   H415      1.0  0.34447  0.59063  0.24708  1.0000
  C   C228      1.0  0.45189  0.88295  0.01858  1.0000
  C   C229      1.0  0.43681  0.75198  0.06678  1.0000
  H   H416      1.0  0.35933  0.72812  0.08770  1.0000
  H   H417      1.0  0.41436  0.55914  0.30405  1.0000
  H   H418      1.0  0.28338  0.74730  0.07869  1.0000
  C   C230      1.0  0.38263  0.80689  0.00769  1.0000
  H   H419      1.0  0.27249  0.72256  0.10442  1.0000
  H   H420      1.0  0.37165  0.73078  0.22179  1.0000
  C   C231      1.0  0.33513  0.57931  0.28243  1.0000
  H   H421      1.0  0.42509  0.75709  0.03212  1.0000
  H   H422      1.0  0.30323  0.53799  0.15581  1.0000
  H   H423      1.0  0.34909  0.56470  0.11684  1.0000
  H   H424      1.0  0.41513  0.74319  0.06106  1.0000
  C   C232      1.0  0.42916  0.80980  0.01112  1.0000
  H   H425      1.0  0.30018  0.54326  0.07050  1.0000
  C   C233      1.0  0.41286  0.54038  0.01548  1.0000
  H   H426      1.0  0.36194  0.80130  0.01283  1.0000
  H   H427      1.0  0.28918  0.57956  0.07274  1.0000
  H   H428      1.0  0.30375  0.63221  0.09595  1.0000
  C   C234      1.0  0.37878  0.59908  0.26599  1.0000
  C   C235      1.0  0.31854  0.57195  0.29979  1.0000
  H   H429      1.0  0.23344  0.73607  0.08530  1.0000
  H   H430      1.0  0.38450  0.96902  0.12570  1.0000
  C   C236      1.0  0.40853  0.60959  0.01584  1.0000
  C   C237      1.0  0.43091  0.97727  0.05335  1.0000
  C   C238      1.0  0.30367  0.59606  0.08194  1.0000
  H   H431      1.0  0.31729  0.72553  0.24388  1.0000
  C   C239      1.0  0.08051  0.51215  0.00614  1.0000
  C   C240      1.0  0.31591  0.53735  0.14447  1.0000
  C   C241      1.0  0.38209  0.73533  0.19442  1.0000
  H   H432      1.0  0.38415  0.90551  0.17398  1.0000
  H   H433      1.0  0.38675  0.76612  0.21453  1.0000
  H   H434      1.0  0.19885  0.60105  0.00817  1.0000
  C   C242      1.0  0.42872  0.69311  0.07672  1.0000
  H   H435      1.0  0.30641  0.85354  0.10662  1.0000
  H   H436      1.0  0.13001  0.55761  0.30992  1.0000
  C   C243      1.0  0.31547  0.71929  0.08477  1.0000
  H   H437      1.0  0.08532  0.51256  0.02037  1.0000
  C   C244      1.0  0.40961  0.73389  0.19848  1.0000
  H   H438      1.0  0.21015  0.64947  0.02912  1.0000
  H   H439      1.0  0.41072  0.78484  0.07475  1.0000
  H   H440      1.0  0.23829  0.58627  0.31349  1.0000
  C   C245      1.0  0.20980  0.65009  0.04366  1.0000
  H   H441      1.0  0.35372  0.87852  0.09439  1.0000
  C   C246      1.0  0.30946  0.58252  0.09847  1.0000
  H   H442      1.0  0.32463  0.60017  0.10693  1.0000
  H   H443      1.0  0.32400  0.55780  0.30792  1.0000
  H   H444      1.0  0.40597  0.71714  0.20824  1.0000
  H   H445      1.0  0.35285  0.79956  0.19763  1.0000
  C   C247      1.0  0.35862  0.78593  0.18912  1.0000
  H   H446      1.0  0.32527  0.58980  0.27418  1.0000
  H   H447      1.0  0.28946  0.57298  0.10588  1.0000
  C   C248      1.0  0.41062  0.59801  0.29944  1.0000
  H   H448      1.0  0.31261  0.88824  0.09959  1.0000
  C   C249      1.0  0.30909  0.55075  0.12865  1.0000
  H   H449      1.0  0.48198  0.89369  0.04031  1.0000
  C   C250      1.0  0.32695  0.55105  0.11256  1.0000
  H   H450      1.0  0.30863  0.52034  0.08316  1.0000
  H   H451      1.0  0.28673  0.62506  0.07473  1.0000
  C   C251      1.0  0.26888  0.54711  0.03734  1.0000
  H   H452      1.0  0.19068  0.65203  0.04764  1.0000
  C   C252      1.0  0.26113  0.76955  0.01080  1.0000
  C   C253      1.0  0.24040  0.73568  0.07171  1.0000
  C   C254      1.0  0.26629  0.72945  0.07141  1.0000
  H   H453      1.0  0.32561  0.52954  0.11101  1.0000
  H   H454      1.0  0.25966  0.53461  0.09106  1.0000
  H   H455      1.0  0.41764  0.72855  0.18634  1.0000
  H   H456      1.0  0.27945  0.56931  0.28855  1.0000
  H   H457      1.0  0.43702  0.79260  0.09174  1.0000
  H   H458      1.0  0.41953  0.63057  0.02247  1.0000
  Fe  Fe35      1.0  0.15979  0.51124  0.04327  1.0000
  H   H459      1.0  0.40900  0.57560  0.32361  1.0000
  H   H460      1.0  0.44500  0.80795  0.01921  1.0000
  S   S63       1.0  0.35765  0.67948  0.32800  1.0000
  H   H461      1.0  0.42588  0.75458  0.20356  1.0000
  H   H462      1.0  0.29020  0.56544  0.00615  1.0000
  H   H463      1.0  0.44517  0.87753  0.04666  1.0000
  H   H464      1.0  0.45212  0.94746  0.09201  1.0000
  H   H465      1.0  0.44076  0.88526  0.08868  1.0000
  H   H466      1.0  0.40586  0.89550  0.12881  1.0000
  H   H467      1.0  0.44023  0.90759  0.07097  1.0000
  C   C255      1.0  0.41532  0.95858  0.11197  1.0000
  C   C256      1.0  0.44924  0.90745  0.08411  1.0000
  H   H468      1.0  0.36525  0.92766  0.09873  1.0000
  C   C257      1.0  0.40980  0.91449  0.09849  1.0000
  C   C258      1.0  0.44216  0.92544  0.09701  1.0000
  H   H469      1.0  0.45176  0.92507  0.10988  1.0000
  H   H470      1.0  0.46258  0.77464  0.00839  1.0000
  C   C259      1.0  0.16229  0.59686  0.32135  1.0000
  N   N13       1.0  0.39985  0.92670  0.11329  1.0000
  C   C260      1.0  0.37833  0.58333  0.29627  1.0000
  H   H471      1.0  0.44783  0.69855  0.08486  1.0000
  N   N14       1.0  0.45354  0.73867  0.05826  1.0000
  H   H472      1.0  0.14498  0.60185  0.04072  1.0000
  H   H473      1.0  0.40044  0.89104  0.09954  1.0000
  C   C261      1.0  0.31897  0.87657  0.10928  1.0000
  H   H474      1.0  0.42862  0.93101  0.13458  1.0000
  C   C262      1.0  0.40652  0.91675  0.13043  1.0000
  H   H475      1.0  0.42246  0.60211  0.28705  1.0000
  H   H476      1.0  0.27555  0.55150  0.30908  1.0000
  H   H477      1.0  0.41521  0.97405  0.13858  1.0000
  H   H478      1.0  0.47248  0.91625  0.08291  1.0000
  H   H479      1.0  0.25599  0.54505  0.04913  1.0000
  H   H480      1.0  0.43025  0.86613  0.01593  1.0000
  H   H481      1.0  0.49957  0.62496  0.11588  1.0000
  H   H482      1.0  0.48454  0.57427  0.01665  1.0000
  H   H483      1.0  0.37091  0.81740  0.16863  1.0000
  H   H484      1.0  0.28826  0.56762  0.03820  1.0000
  H   H485      1.0  0.44928  0.79186  0.05246  1.0000
  C   C263      1.0  0.39887  0.90823  0.16309  1.0000
  H   H486      1.0  0.20854  0.62985  0.04862  1.0000
  H   H487      1.0  0.15055  0.51072  0.00574  1.0000
  Fe  Fe36      1.0  0.48241  0.61084  0.04673  1.0000
  H   H488      1.0  0.28111  0.53593  0.28935  1.0000
  H   H489      1.0  0.42808  0.94647  0.01459  1.0000
  C   C264      1.0  0.46056  0.74817  0.03956  1.0000
  H   H490      1.0  0.23205  0.52556  0.02118  1.0000
  C   C265      1.0  0.40750  0.97589  0.12535  1.0000
  C   C266      1.0  0.41961  0.57966  0.31072  1.0000
  H   H491      1.0  0.09585  0.56694  0.03351  1.0000
  H   H492      1.0  0.22754  0.50965  0.13007  1.0000
  C   C267      1.0  0.46341  0.56305  0.01135  1.0000
  H   H493      1.0  0.40203  0.88871  0.01033  1.0000
  H   H494      1.0  0.26936  0.51138  0.10362  1.0000
  H   H495      1.0  0.48731  0.70937  0.06745  1.0000
  C   C268      1.0  0.43369  0.79586  0.07773  1.0000
  H   H496      1.0  0.17926  0.59549  0.31367  1.0000
  C   C269      1.0  0.44505  0.75277  0.00876  1.0000
  C   C270      1.0  0.27002  0.52052  0.09056  1.0000
  H   H497      1.0  0.47973  0.97152  0.02035  1.0000
  H   H498      1.0  0.48619  0.51851  0.00213  1.0000
  H   H499      1.0  0.23008  0.55067  0.31990  1.0000
  H   H500      1.0  0.31076  0.51493  0.14162  1.0000
  C   C271      1.0  0.26851  0.54807  0.00408  1.0000
  H   H501      1.0  0.45236  0.73802  0.00289  1.0000
  C   C272      1.0  0.44234  0.94795  0.00355  1.0000
  H   H502      1.0  0.18953  0.55993  0.32513  1.0000
  H   H503      1.0  0.34414  0.72879  0.01024  1.0000
  C   C273      1.0  0.47136  0.97359  0.00738  1.0000
  H   H504      1.0  0.44277  0.59082  0.31306  1.0000
  H   H505      1.0  0.25226  0.58008  0.33377  1.0000
  H   H506      1.0  0.30719  0.70887  0.00482  1.0000
  C   C274      1.0  0.10290  0.56380  0.00506  1.0000
  C   C275      1.0  0.49846  0.73196  0.06377  1.0000
  H   H507      1.0  0.27138  0.52849  0.00305  1.0000
  N   N15       1.0  0.07579  0.53731  0.00139  1.0000
  H   H508      1.0  0.45736  0.64004  0.00096  1.0000
  S   S64       1.0  0.49656  0.67924  0.09666  1.0000
  C   C276      1.0  0.46892  0.00131  0.00764  1.0000
  H   H509      1.0  0.45361  0.00067  0.01768  1.0000
  C   C277      1.0  0.00112  0.52315  0.01909  1.0000
  H   H510      1.0  0.00110  0.50975  0.03023  1.0000
  H   H511      1.0  0.11222  0.50251  0.10526  1.0000
  C   C278      1.0  0.16589  0.52832  0.56742  1.0000
  S   S65       1.0  0.37477  0.56574  0.57496  1.0000
  H   H512      1.0  0.45775  0.95388  0.46485  1.0000
  H   H513      1.0  0.22495  0.53211  0.52665  1.0000
  C   C279      1.0  0.19374  0.62940  0.35443  1.0000
  H   H514      1.0  0.48079  0.60201  0.48928  1.0000
  S   S66       1.0  0.44066  0.66724  0.43355  1.0000
  Fe  Fe37      1.0  0.35636  0.64892  0.34873  1.0000
  S   S67       1.0  0.33647  0.66516  0.36850  1.0000
  S   S68       1.0  0.39539  0.64317  0.35484  1.0000
  Fe  Fe38      1.0  0.33452  0.69320  0.34754  1.0000
  S   S69       1.0  0.35044  0.73946  0.35493  1.0000
  Fe  Fe39      1.0  0.29501  0.63267  0.35799  1.0000
  S   S70       1.0  0.26463  0.61581  0.38061  1.0000
  Fe  Fe40      1.0  0.33588  0.86462  0.45777  1.0000
  S   S71       1.0  0.35566  0.85161  0.43568  1.0000
  S   S72       1.0  0.34191  0.90961  0.46426  1.0000
  Fe  Fe41      1.0  0.31540  0.80641  0.47650  1.0000
  S   S73       1.0  0.33562  0.79072  0.45634  1.0000
  S   S74       1.0  0.29628  0.77519  0.49895  1.0000
  Fe  Fe42      1.0  0.37196  0.83405  0.45710  1.0000
  S   S75       1.0  0.41755  0.84349  0.45891  1.0000
  Fe  Fe43      1.0  0.31720  0.80895  0.43665  1.0000
  S   S76       1.0  0.29216  0.77614  0.41580  1.0000
  S   S77       1.0  0.35400  0.84846  0.47915  1.0000
  S   S78       1.0  0.29519  0.82320  0.45687  1.0000
  H   H515      1.0  0.46161  0.82453  0.42425  1.0000
  S   S79       1.0  0.43735  0.83182  0.53900  1.0000
  H   H516      1.0  0.35689  0.92850  0.42807  1.0000
  S   S80       1.0  0.18426  0.57257  0.46839  1.0000
  Fe  Fe44      1.0  0.08998  0.63270  0.55644  1.0000
  S   S81       1.0  0.11014  0.61220  0.57358  1.0000
  S   S82       1.0  0.04351  0.62444  0.55400  1.0000
  Fe  Fe45      1.0  0.14710  0.66996  0.53783  1.0000
  S   S83       1.0  0.17079  0.65097  0.55272  1.0000
  S   S84       1.0  0.16613  0.70537  0.51784  1.0000
  Fe  Fe46      1.0  0.13177  0.60986  0.54901  1.0000
  S   S85       1.0  0.13127  0.56868  0.54195  1.0000
  Fe  Fe47      1.0  0.14782  0.65519  0.57618  1.0000
  S   S86       1.0  0.17464  0.67539  0.60040  1.0000
  S   S87       1.0  0.11005  0.62795  0.53160  1.0000
  S   S88       1.0  0.12573  0.67646  0.56153  1.0000
  S   S89       1.0  0.38972  0.74924  0.63976  1.0000
  S   S90       1.0  0.26848  0.63761  0.62255  1.0000
  S   S91       1.0  0.36067  0.60527  0.65157  1.0000
  S   S92       1.0  0.34556  0.66693  0.63128  1.0000
  C   C280      1.0  0.20038  0.66448  0.60673  1.0000
  C   C281      1.0  0.21873  0.67809  0.62087  1.0000
  C   C282      1.0  0.23997  0.67043  0.62581  1.0000
  C   C283      1.0  0.24256  0.64858  0.61689  1.0000
  C   C284      1.0  0.22388  0.63464  0.60298  1.0000
  C   C285      1.0  0.20306  0.64268  0.59781  1.0000
  H   H517      1.0  0.21641  0.69455  0.62807  1.0000
  H   H518      1.0  0.25400  0.68108  0.63669  1.0000
  H   H519      1.0  0.22534  0.61734  0.59628  1.0000
  H   H520      1.0  0.18883  0.63174  0.58709  1.0000
  C   C286      1.0  0.16877  0.57374  0.48822  1.0000
  C   C287      1.0  0.18411  0.59410  0.50098  1.0000
  C   C288      1.0  0.17223  0.59331  0.51742  1.0000
  C   C289      1.0  0.14539  0.57172  0.52112  1.0000
  C   C290      1.0  0.13004  0.55171  0.50829  1.0000
  C   C291      1.0  0.14148  0.55307  0.49174  1.0000
  H   H521      1.0  0.20526  0.61009  0.49824  1.0000
  H   H522      1.0  0.18410  0.60883  0.52738  1.0000
  H   H523      1.0  0.10934  0.53507  0.51117  1.0000
  H   H524      1.0  0.12917  0.53808  0.48167  1.0000
  C   C292      1.0  0.46978  0.78354  0.60616  1.0000
  C   C293      1.0  0.45860  0.80134  0.61215  1.0000
  C   C294      1.0  0.43459  0.79054  0.62282  1.0000
  C   C295      1.0  0.42082  0.76168  0.62709  1.0000
  C   C296      1.0  0.43174  0.74373  0.62090  1.0000
  C   C297      1.0  0.45637  0.75473  0.61069  1.0000
  H   H525      1.0  0.46898  0.82362  0.60901  1.0000
  H   H526      1.0  0.42671  0.80473  0.62787  1.0000
  H   H527      1.0  0.42147  0.72151  0.62420  1.0000
  H   H528      1.0  0.40854  0.52848  0.45041  1.0000
  C   C298      1.0  0.25993  0.75586  0.50378  1.0000
  C   C299      1.0  0.25088  0.73138  0.51401  1.0000
  C   C300      1.0  0.22226  0.71568  0.51841  1.0000
  C   C301      1.0  0.20243  0.72453  0.51282  1.0000
  C   C302      1.0  0.21148  0.74898  0.50256  1.0000
  C   C303      1.0  0.24008  0.76458  0.49804  1.0000
  H   H529      1.0  0.26602  0.72430  0.51837  1.0000
  H   H530      1.0  0.21544  0.69655  0.52595  1.0000
  H   H531      1.0  0.19627  0.75592  0.49808  1.0000
  H   H532      1.0  0.24678  0.78348  0.49025  1.0000
  C   C304      1.0  0.42343  0.84076  0.48115  1.0000
  C   C305      1.0  0.40147  0.82160  0.49135  1.0000
  C   C306      1.0  0.40578  0.81945  0.50923  1.0000
  C   C307      1.0  0.43208  0.83629  0.51690  1.0000
  C   C308      1.0  0.45397  0.85581  0.50679  1.0000
  C   C309      1.0  0.44962  0.85811  0.48887  1.0000
  H   H533      1.0  0.38112  0.80831  0.48547  1.0000
  H   H534      1.0  0.38879  0.80461  0.51707  1.0000
  H   H535      1.0  0.47408  0.86932  0.51280  1.0000
  H   H536      1.0  0.46628  0.87368  0.48113  1.0000
  C   C310      1.0  0.24460  0.58043  0.38736  1.0000
  C   C311      1.0  0.23937  0.55722  0.37644  1.0000
  C   C312      1.0  0.22030  0.52967  0.38168  1.0000
  C   C313      1.0  0.20666  0.52520  0.39790  1.0000
  C   C314      1.0  0.21246  0.54841  0.40889  1.0000
  C   C315      1.0  0.23123  0.57583  0.40361  1.0000
  H   H537      1.0  0.24953  0.56050  0.36389  1.0000
  H   H538      1.0  0.44537  0.97264  0.50087  1.0000
  H   H539      1.0  0.20205  0.54531  0.42137  1.0000
  H   H540      1.0  0.23500  0.59361  0.41210  1.0000
  C   C316      1.0  0.33457  0.74898  0.37236  1.0000
  C   C317      1.0  0.30938  0.72934  0.37979  1.0000
  C   C318      1.0  0.29681  0.73786  0.39324  1.0000
  C   C319      1.0  0.30955  0.76584  0.39967  1.0000
  C   C320      1.0  0.33495  0.78533  0.39243  1.0000
  C   C321      1.0  0.34731  0.77697  0.37875  1.0000
  H   H541      1.0  0.29932  0.70774  0.37492  1.0000
  H   H542      1.0  0.27706  0.72280  0.39863  1.0000
  H   H543      1.0  0.34459  0.80709  0.39700  1.0000
  H   H544      1.0  0.36665  0.79236  0.37297  1.0000
  C   C322      1.0  0.42879  0.65961  0.41159  1.0000
  C   C323      1.0  0.44572  0.65801  0.39812  1.0000
  C   C324      1.0  0.43526  0.65267  0.38075  1.0000
  C   C325      1.0  0.40788  0.64888  0.37679  1.0000
  C   C326      1.0  0.39088  0.64985  0.39038  1.0000
  C   C327      1.0  0.40132  0.65536  0.40763  1.0000
  H   H545      1.0  0.46690  0.66115  0.40103  1.0000
  H   H546      1.0  0.44851  0.65175  0.37034  1.0000
  H   H547      1.0  0.36946  0.64587  0.38768  1.0000
  H   H548      1.0  0.38785  0.65598  0.41800  1.0000
  C   C328      1.0  0.37121  0.57571  0.59660  1.0000
  C   C329      1.0  0.35978  0.55609  0.61005  1.0000
  C   C330      1.0  0.35690  0.56534  0.62694  1.0000
  C   C331      1.0  0.36461  0.59408  0.63033  1.0000
  C   C332      1.0  0.37590  0.61360  0.61684  1.0000
  C   C333      1.0  0.37960  0.60449  0.60018  1.0000
  H   H549      1.0  0.35340  0.53390  0.60748  1.0000
  H   H550      1.0  0.34836  0.55015  0.63735  1.0000
  H   H551      1.0  0.38239  0.63582  0.61937  1.0000
  H   H552      1.0  0.38898  0.61984  0.58996  1.0000
  C   C334      1.0  0.41989  0.55109  0.50575  1.0000
  C   C335      1.0  0.44378  0.56359  0.49528  1.0000
  C   C336      1.0  0.46207  0.59252  0.49716  1.0000
  C   C337      1.0  0.45612  0.60907  0.50921  1.0000
  C   C338      1.0  0.43277  0.59637  0.52009  1.0000
  C   C339      1.0  0.41469  0.56736  0.51839  1.0000
  H   H553      1.0  0.44813  0.55092  0.48574  1.0000
  C   C340      1.0  0.45998  0.66074  0.58693  1.0000
  H   H554      1.0  0.42820  0.60904  0.52952  1.0000
  H   H555      1.0  0.39637  0.55780  0.52661  1.0000
  H   H556      1.0  0.47383  0.71423  0.57295  1.0000
  C   C341      1.0  0.00926  0.59528  0.55658  1.0000
  C   C342      1.0  0.00476  0.57120  0.56619  1.0000
  H   H557      1.0  0.17901  0.58048  0.40485  1.0000
  H   H558      1.0  0.02251  0.56991  0.57236  1.0000
  C   C343      1.0  0.37883  0.96674  0.46583  1.0000
  C   C344      1.0  0.36510  0.94278  0.45485  1.0000
  C   C345      1.0  0.36765  0.94655  0.43673  1.0000
  H   H559      1.0  0.37686  0.96418  0.47985  1.0000
  Fe  Fe48      1.0  0.35091  0.64274  0.65375  1.0000
  Fe  Fe49      1.0  0.30363  0.65743  0.64303  1.0000
  H   H560      1.0  0.20144  0.54043  0.55045  1.0000
  H   H561      1.0  0.02420  0.53075  0.55344  1.0000
  H   H562      1.0  0.20797  0.54374  0.49018  1.0000
  H   H563      1.0  0.41678  0.92064  0.49406  1.0000
  H   H564      1.0  0.05996  0.52915  0.57365  1.0000
  H   H565      1.0  0.04205  0.57900  0.52998  1.0000
  H   H566      1.0  0.17468  0.63098  0.35905  1.0000
  H   H567      1.0  0.39390  0.76620  0.39358  1.0000
  C   C346      1.0  0.41754  0.54711  0.44169  1.0000
  H   H568      1.0  0.03425  0.62434  0.49443  1.0000
  H   H569      1.0  0.29056  0.59018  0.63559  1.0000
  C   C347      1.0  0.28068  0.51480  0.56720  1.0000
  H   H570      1.0  0.42932  0.70671  0.36441  1.0000
  H   H571      1.0  0.35839  0.55088  0.40025  1.0000
  H   H572      1.0  0.44105  0.74965  0.39515  1.0000
  Fe  Fe50      1.0  0.16582  0.52669  0.46020  1.0000
  C   C348      1.0  0.27359  0.61505  0.56072  1.0000
  C   C349      1.0  0.46717  0.67121  0.56816  1.0000
  H   H573      1.0  0.45779  0.71236  0.54284  1.0000
  N   N16       1.0  0.23572  0.75812  0.57180  1.0000
  C   C350      1.0  0.25207  0.76840  0.58879  1.0000
  C   C351      1.0  0.24959  0.77929  0.55731  1.0000
  C   C352      1.0  0.20668  0.75594  0.57466  1.0000
  C   C353      1.0  0.23216  0.72919  0.56658  1.0000
  C   C354      1.0  0.25967  0.72653  0.56392  1.0000
  C   C355      1.0  0.24126  0.74797  0.60450  1.0000
  C   C356      1.0  0.18704  0.74801  0.55826  1.0000
  C   C357      1.0  0.28220  0.79688  0.55800  1.0000
  C   C358      1.0  0.29315  0.81478  0.54160  1.0000
  C   C359      1.0  0.25359  0.69562  0.56170  1.0000
  C   C360      1.0  0.25960  0.76089  0.62079  1.0000
  C   C361      1.0  0.16056  0.75157  0.56189  1.0000
  H   H574      1.0  0.25268  0.78898  0.59277  1.0000
  H   H575      1.0  0.27441  0.77287  0.58727  1.0000
  H   H576      1.0  0.24373  0.76851  0.54426  1.0000
  H   H577      1.0  0.24153  0.79545  0.55711  1.0000
  H   H578      1.0  0.20847  0.77629  0.58010  1.0000
  H   H579      1.0  0.19488  0.73947  0.58450  1.0000
  H   H580      1.0  0.21873  0.71301  0.57614  1.0000
  H   H581      1.0  0.22022  0.72223  0.55405  1.0000
  H   H582      1.0  0.27430  0.73522  0.57521  1.0000
  H   H583      1.0  0.27024  0.73777  0.55187  1.0000
  H   H584      1.0  0.21930  0.74306  0.60792  1.0000
  H   H585      1.0  0.24220  0.72790  0.60150  1.0000
  H   H586      1.0  0.18020  0.72556  0.55460  1.0000
  H   H587      1.0  0.19743  0.76116  0.54676  1.0000
  H   H588      1.0  0.28859  0.81177  0.56935  1.0000
  H   H589      1.0  0.29293  0.78327  0.55920  1.0000
  H   H590      1.0  0.28428  0.83010  0.54040  1.0000
  H   H591      1.0  0.31652  0.82676  0.54225  1.0000
  H   H592      1.0  0.28730  0.80108  0.52975  1.0000
  H   H593      1.0  0.27358  0.69439  0.55929  1.0000
  H   H594      1.0  0.24391  0.68365  0.57376  1.0000
  H   H595      1.0  0.23908  0.68563  0.55044  1.0000
  H   H596      1.0  0.25892  0.78081  0.62472  1.0000
  H   H597      1.0  0.25160  0.74579  0.63180  1.0000
  H   H598      1.0  0.28180  0.76532  0.61835  1.0000
  H   H599      1.0  0.14620  0.74412  0.55031  1.0000
  H   H600      1.0  0.14920  0.73886  0.57336  1.0000
  H   H601      1.0  0.16614  0.77419  0.56438  1.0000
  N   N17       1.0  0.37724  0.77319  0.57969  1.0000
  C   C362      1.0  0.35814  0.74759  0.59013  1.0000
  C   C363      1.0  0.40357  0.77054  0.57509  1.0000
  C   C364      1.0  0.38597  0.79888  0.59149  1.0000
  C   C365      1.0  0.36326  0.77745  0.56339  1.0000
  C   C366      1.0  0.34029  0.75043  0.55432  1.0000
  C   C367      1.0  0.33278  0.74940  0.59900  1.0000
  C   C368      1.0  0.40931  0.82714  0.58444  1.0000
  C   C369      1.0  0.39961  0.74536  0.56311  1.0000
  C   C370      1.0  0.42711  0.74299  0.56150  1.0000
  C   C371      1.0  0.33145  0.75722  0.53659  1.0000
  C   C372      1.0  0.31044  0.72023  0.60467  1.0000
  C   C373      1.0  0.41286  0.85223  0.59597  1.0000
  H   H602      1.0  0.37044  0.74377  0.60081  1.0000
  H   H603      1.0  0.34980  0.72799  0.58206  1.0000
  H   H604      1.0  0.41874  0.78954  0.56800  1.0000
  H   H605      1.0  0.41465  0.76946  0.58728  1.0000
  H   H606      1.0  0.39336  0.79503  0.60438  1.0000
  H   H607      1.0  0.36752  0.80276  0.59441  1.0000
  H   H608      1.0  0.35284  0.79114  0.56625  1.0000
  H   H609      1.0  0.37954  0.78950  0.55348  1.0000
  H   H610      1.0  0.32119  0.74096  0.56251  1.0000
  H   H611      1.0  0.34743  0.73403  0.55214  1.0000
  H   H612      1.0  0.34023  0.76298  0.61095  1.0000
  H   H613      1.0  0.32273  0.75883  0.59018  1.0000
  H   H614      1.0  0.40425  0.83109  0.57093  1.0000
  H   H615      1.0  0.43004  0.82675  0.58445  1.0000
  H   H616      1.0  0.38355  0.72495  0.56817  1.0000
  H   H617      1.0  0.39351  0.74873  0.54973  1.0000
  H   H618      1.0  0.42363  0.72506  0.55261  1.0000
  H   H619      1.0  0.44397  0.76274  0.55603  1.0000
  H   H620      1.0  0.43412  0.73903  0.57448  1.0000
  H   H621      1.0  0.32432  0.77390  0.53789  1.0000
  H   H622      1.0  0.34927  0.76446  0.52731  1.0000
  H   H623      1.0  0.31382  0.73792  0.53094  1.0000
  H   H624      1.0  0.31974  0.71052  0.61392  1.0000
  H   H625      1.0  0.29303  0.72233  0.61144  1.0000
  H   H626      1.0  0.30139  0.70592  0.59318  1.0000
  H   H627      1.0  0.41842  0.84927  0.60959  1.0000
  H   H628      1.0  0.43019  0.87194  0.59081  1.0000
  H   H629      1.0  0.39319  0.85471  0.59599  1.0000
  H   H630      1.0  0.47940  0.66466  0.59443  1.0000
  N   N18       1.0  0.22889  0.69774  0.45442  1.0000
  C   C374      1.0  0.22415  0.67331  0.44229  1.0000
  C   C375      1.0  0.20578  0.68865  0.46800  1.0000
  C   C376      1.0  0.22737  0.72073  0.44348  1.0000
  C   C377      1.0  0.25760  0.71000  0.46312  1.0000
  C   C378      1.0  0.26483  0.68914  0.47353  1.0000
  C   C379      1.0  0.24481  0.68009  0.42677  1.0000
  C   C380      1.0  0.22955  0.74712  0.45371  1.0000
  C   C381      1.0  0.19185  0.65712  0.47367  1.0000
  C   C382      1.0  0.17178  0.65220  0.48895  1.0000
  C   C383      1.0  0.29511  0.70386  0.48059  1.0000
  C   C384      1.0  0.24151  0.65301  0.41760  1.0000
  C   C385      1.0  0.22415  0.76714  0.44168  1.0000
  H   H631      1.0  0.20249  0.66448  0.43650  1.0000
  H   H632      1.0  0.22473  0.65547  0.44953  1.0000
  H   H633      1.0  0.21353  0.70205  0.48002  1.0000
  H   H634      1.0  0.18780  0.69222  0.46316  1.0000
  H   H635      1.0  0.20736  0.71187  0.43568  1.0000
  H   H636      1.0  0.24478  0.72908  0.43383  1.0000
  H   H637      1.0  0.27455  0.72103  0.45344  1.0000
  H   H638      1.0  0.25987  0.72693  0.47260  1.0000
  H   H639      1.0  0.26304  0.67112  0.46526  1.0000
  H   H640      1.0  0.25075  0.68112  0.48495  1.0000
  H   H641      1.0  0.24022  0.69279  0.41691  1.0000
  H   H642      1.0  0.26711  0.69196  0.43109  1.0000
  H   H643      1.0  0.25101  0.75920  0.45943  1.0000
  H   H644      1.0  0.21399  0.74118  0.46440  1.0000
  H   H645      1.0  0.17915  0.64333  0.46267  1.0000
  H   H646      1.0  0.20762  0.64994  0.47765  1.0000
  H   H647      1.0  0.15685  0.66114  0.48619  1.0000
  H   H648      1.0  0.15923  0.62915  0.49118  1.0000
  H   H649      1.0  0.18387  0.66207  0.50110  1.0000
  H   H650      1.0  0.29794  0.72150  0.48961  1.0000
  H   H651      1.0  0.29989  0.68848  0.48793  1.0000
  H   H652      1.0  0.31031  0.71241  0.46969  1.0000
  H   H653      1.0  0.25529  0.65846  0.40594  1.0000
  H   H654      1.0  0.24781  0.64035  0.42655  1.0000
  H   H655      1.0  0.21933  0.63994  0.41324  1.0000
  H   H656      1.0  0.20250  0.75647  0.43602  1.0000
  H   H657      1.0  0.22633  0.78599  0.44928  1.0000
  H   H658      1.0  0.23971  0.77448  0.43092  1.0000
  H   H659      1.0  0.49661  0.99606  0.46250  1.0000
  H   H660      1.0  0.46509  0.74089  0.60630  1.0000
  C   C386      1.0  0.15971  0.58302  0.38008  1.0000
  C   C387      1.0  0.15911  0.56833  0.39735  1.0000
  C   C388      1.0  0.04544  0.61542  0.50276  1.0000
  H   H661      1.0  0.20275  0.59059  0.37539  1.0000
  H   H662      1.0  0.22820  0.68793  0.35761  1.0000
  H   H663      1.0  0.44178  0.68712  0.50672  1.0000
  H   H664      1.0  0.45846  0.57222  0.42962  1.0000
  H   H665      1.0  0.14133  0.56710  0.40545  1.0000
  H   H666      1.0  0.15628  0.54644  0.39499  1.0000
  C   C389      1.0  0.38494  0.77139  0.42000  1.0000
  H   H667      1.0  0.44683  0.66562  0.56128  1.0000
  N   N19       1.0  0.38586  0.56940  0.45292  1.0000
  C   C390      1.0  0.36904  0.56188  0.43606  1.0000
  C   C391      1.0  0.37114  0.54600  0.46583  1.0000
  C   C392      1.0  0.38826  0.59728  0.45969  1.0000
  C   C393      1.0  0.41526  0.57270  0.45013  1.0000
  C   C394      1.0  0.18111  0.55587  0.57794  1.0000
  C   C395      1.0  0.38317  0.58166  0.42041  1.0000
  C   C396      1.0  0.40050  0.60593  0.47850  1.0000
  H   H668      1.0  0.44845  0.99029  0.45263  1.0000
  H   H669      1.0  0.14332  0.52362  0.56683  1.0000
  C   C397      1.0  0.45218  0.95094  0.47890  1.0000
  C   C398      1.0  0.36379  0.57294  0.40431  1.0000
  C   C399      1.0  0.40325  0.63500  0.48360  1.0000
  H   H670      1.0  0.34844  0.56218  0.43805  1.0000
  H   H671      1.0  0.36350  0.53976  0.43194  1.0000
  C   C400      1.0  0.33008  0.51942  0.48607  1.0000
  H   H672      1.0  0.38445  0.54953  0.47775  1.0000
  H   H673      1.0  0.36747  0.59762  0.45912  1.0000
  H   H674      1.0  0.40213  0.61484  0.45107  1.0000
  H   H675      1.0  0.42774  0.59177  0.44216  1.0000
  H   H676      1.0  0.42674  0.57660  0.46283  1.0000
  H   H677      1.0  0.47843  0.81464  0.45306  1.0000
  S   S93       1.0  0.31494  0.61396  0.33942  1.0000
  H   H678      1.0  0.38801  0.60376  0.42373  1.0000
  H   H679      1.0  0.40306  0.58114  0.41665  1.0000
  H   H680      1.0  0.42183  0.60724  0.47954  1.0000
  H   H681      1.0  0.38685  0.59062  0.48832  1.0000
  H   H682      1.0  0.21134  0.55678  0.52141  1.0000
  C   C401      1.0  0.38267  0.97396  0.42972  1.0000
  C   C402      1.0  0.04576  0.53712  0.54856  1.0000
  H   H683      1.0  0.34138  0.56096  0.47643  1.0000
  H   H684      1.0  0.37746  0.80723  0.42697  1.0000
  H   H685      1.0  0.45157  0.74454  0.36338  1.0000
  C   C403      1.0  0.49268  0.83744  0.45549  1.0000
  C   C404      1.0  0.48055  0.71886  0.51864  1.0000
  H   H686      1.0  0.34409  0.57464  0.40704  1.0000
  H   H687      1.0  0.38245  0.63516  0.48284  1.0000
  H   H688      1.0  0.41135  0.64001  0.49726  1.0000
  H   H689      1.0  0.41840  0.65154  0.47489  1.0000
  C   C405      1.0  0.37068  0.71178  0.40449  1.0000
  C   C406      1.0  0.41014  0.73245  0.37468  1.0000
  C   C407      1.0  0.35087  0.70040  0.42048  1.0000
  C   C408      1.0  0.32058  0.68080  0.41474  1.0000
  H   H690      1.0  0.13854  0.57154  0.37389  1.0000
  H   H691      1.0  0.35996  0.71900  0.39453  1.0000
  H   H692      1.0  0.37119  0.69265  0.39875  1.0000
  H   H693      1.0  0.42136  0.71212  0.39580  1.0000
  H   H694      1.0  0.38849  0.71575  0.37206  1.0000
  H   H695      1.0  0.31962  0.66232  0.40723  1.0000
  H   H696      1.0  0.30704  0.67278  0.42642  1.0000
  H   H697      1.0  0.31199  0.69234  0.40650  1.0000
  C   C409      1.0  0.25204  0.62673  0.56056  1.0000
  H   H698      1.0  0.20360  0.55407  0.34530  1.0000
  Fe  Fe51      1.0  0.49546  0.65914  0.48314  1.0000
  S   S94       1.0  0.39724  0.51237  0.55253  1.0000
  S   S95       1.0  0.30806  0.63102  0.66457  1.0000
  Fe  Fe52      1.0  0.36319  0.70436  0.64958  1.0000
  H   H699      1.0  0.26617  0.59718  0.55123  1.0000
  H   H700      1.0  0.36843  0.52538  0.46040  1.0000
  H   H701      1.0  0.35048  0.71760  0.42857  1.0000
  Fe  Fe53      1.0  0.48077  0.66968  0.44601  1.0000
  H   H702      1.0  0.45683  0.74712  0.42127  1.0000
  H   H703      1.0  0.35803  0.68783  0.42894  1.0000
  H   H704      1.0  0.44903  0.76681  0.50299  1.0000
  H   H705      1.0  0.20341  0.67650  0.37554  1.0000
  H   H706      1.0  0.05845  0.56027  0.55080  1.0000
  C   C410      1.0  0.45163  0.97769  0.48697  1.0000
  H   H707      1.0  0.49283  0.99183  0.50950  1.0000
  H   H708      1.0  0.40887  0.70796  0.42588  1.0000
  H   H709      1.0  0.47758  0.65949  0.56185  1.0000
  C   C411      1.0  0.45342  0.71050  0.50804  1.0000
  C   C412      1.0  0.41933  0.73201  0.39398  1.0000
  H   H710      1.0  0.41092  0.75318  0.37142  1.0000
  H   H711      1.0  0.07516  0.53383  0.46495  1.0000
  N   N20       1.0  0.49848  0.71577  0.55008  1.0000
  C   C413      1.0  0.21192  0.59845  0.34159  1.0000
  H   H712      1.0  0.39162  0.80938  0.40541  1.0000
  H   H713      1.0  0.31774  0.55424  0.56487  1.0000
  H   H714      1.0  0.36083  0.66031  0.55495  1.0000
  H   H715      1.0  0.25103  0.63495  0.54737  1.0000
  H   H716      1.0  0.17910  0.57348  0.57125  1.0000
  C   C414      1.0  0.27719  0.60561  0.57938  1.0000
  H   H717      1.0  0.24035  0.68747  0.37957  1.0000
  N   N21       1.0  0.40047  0.73457  0.40791  1.0000
  C   C415      1.0  0.05483  0.52344  0.47200  1.0000
  H   H718      1.0  0.32179  0.60971  0.55799  1.0000
  C   C416      1.0  0.04197  0.57049  0.51662  1.0000
  H   H719      1.0  0.33878  0.59934  0.57423  1.0000
  C   C417      1.0  0.02821  0.52649  0.49881  1.0000
  H   H720      1.0  0.45664  0.52258  0.53063  1.0000
  Fe  Fe54      1.0  0.48303  0.84912  0.54643  1.0000
  C   C418      1.0  0.02733  0.58352  0.50461  1.0000
  H   H721      1.0  0.19958  0.64157  0.34205  1.0000
  C   C419      1.0  0.44843  0.55410  0.43869  1.0000
  H   H722      1.0  0.32627  0.53309  0.46028  1.0000
  H   H723      1.0  0.04955  0.62613  0.51575  1.0000
  H   H724      1.0  0.40645  0.54114  0.42886  1.0000
  H   H725      1.0  0.07418  0.54171  0.49657  1.0000
  C   C420      1.0  0.34123  0.64022  0.57938  1.0000
  C   C421      1.0  0.32452  0.60938  0.57242  1.0000
  H   H726      1.0  0.42446  0.90616  0.47461  1.0000
  C   C422      1.0  0.41104  0.72991  0.42541  1.0000
  H   H727      1.0  0.36207  0.75939  0.41689  1.0000
  C   C423      1.0  0.29898  0.54519  0.57342  1.0000
  H   H728      1.0  0.02222  0.50348  0.49969  1.0000
  H   H729      1.0  0.34862  0.64019  0.59300  1.0000
  C   C424      1.0  0.22112  0.53825  0.49923  1.0000
  N   N22       1.0  0.16681  0.50513  0.53736  1.0000
  H   H730      1.0  0.39797  0.73125  0.43627  1.0000
  N   N23       1.0  0.02865  0.53861  0.51682  1.0000
  C   C425      1.0  0.40202  0.76365  0.40656  1.0000
  H   H731      1.0  0.17475  0.54828  0.54213  1.0000
  C   C426      1.0  0.44939  0.74439  0.44872  1.0000
  H   H732      1.0  0.27985  0.56542  0.55797  1.0000
  H   H733      1.0  0.25813  0.64427  0.57026  1.0000
  H   H734      1.0  0.31950  0.58391  0.60217  1.0000
  H   H735      1.0  0.26096  0.55060  0.57720  1.0000
  H   H736      1.0  0.03766  0.52222  0.46313  1.0000
  C   C427      1.0  0.20752  0.56920  0.33447  1.0000
  H   H737      1.0  0.38042  0.64568  0.56712  1.0000
  H   H738      1.0  0.27189  0.98580  0.49109  1.0000
  H   H739      1.0  0.44585  0.63757  0.58677  1.0000
  C   C428      1.0  0.42961  0.72751  0.36199  1.0000
  C   C429      1.0  0.18275  0.58276  0.36781  1.0000
  H   H740      1.0  0.24322  0.55507  0.49855  1.0000
  H   H741      1.0  0.23072  0.60988  0.56374  1.0000
  N   N24       1.0  0.29660  0.59191  0.58104  1.0000
  C   C430      1.0  0.30183  0.58944  0.60025  1.0000
  H   H742      1.0  0.30900  0.61034  0.60696  1.0000
  C   C431      1.0  0.42337  0.92507  0.48021  1.0000
  H   H743      1.0  0.40715  0.92842  0.47273  1.0000
  H   H744      1.0  0.16345  0.60488  0.38332  1.0000
  C   C432      1.0  0.21036  0.53593  0.51792  1.0000
  S   S96       1.0  0.39610  0.51539  0.50269  1.0000
  Fe  Fe55      1.0  0.36318  0.52212  0.56312  1.0000
  H   H745      1.0  0.26496  0.55365  0.63733  1.0000
  C   C433      1.0  0.47773  0.79852  0.48537  1.0000
  C   C434      1.0  0.36724  0.65699  0.56826  1.0000
  H   H746      1.0  0.37465  0.58722  0.39328  1.0000
  C   C435      1.0  0.28270  0.56320  0.57219  1.0000
  H   H747      1.0  0.42432  0.78023  0.40704  1.0000
  H   H748      1.0  0.38024  0.67794  0.57451  1.0000
  C   C436      1.0  0.28371  0.56863  0.63003  1.0000
  H   H749      1.0  0.23837  0.64714  0.36259  1.0000
  H   H750      1.0  0.45921  0.79753  0.47801  1.0000
  H   H751      1.0  0.44891  0.67150  0.59363  1.0000
  H   H752      1.0  0.28416  0.62441  0.58823  1.0000
  H   H753      1.0  0.32826  0.65177  0.57935  1.0000
  H   H754      1.0  0.06462  0.57936  0.51308  1.0000
  H   H755      1.0  0.30091  0.56242  0.63186  1.0000
  H   H756      1.0  0.03939  0.50675  0.52748  1.0000
  H   H757      1.0  0.43971  0.71856  0.51443  1.0000
  H   H758      1.0  0.34383  0.52725  0.49789  1.0000
  H   H759      1.0  0.44521  0.72192  0.44992  1.0000
  H   H760      1.0  0.25574  0.59099  0.58402  1.0000
  H   H761      1.0  0.17684  0.56009  0.36508  1.0000
  S   S97       1.0  0.32069  0.69630  0.66036  1.0000
  C   C437      1.0  0.47675  0.84718  0.42606  1.0000
  H   H762      1.0  0.14316  0.58763  0.34665  1.0000
  H   H763      1.0  0.46767  0.94587  0.48589  1.0000
  H   H764      1.0  0.44606  0.77262  0.42989  1.0000
  H   H765      1.0  0.41399  0.81588  0.42443  1.0000
  H   H766      1.0  0.38890  0.76707  0.43363  1.0000
  H   H767      1.0  0.44974  0.53548  0.43284  1.0000
  H   H768      1.0  0.21410  0.63582  0.38054  1.0000
  H   H769      1.0  0.26939  0.54606  0.60581  1.0000
  H   H770      1.0  0.45866  0.71961  0.49473  1.0000
  H   H771      1.0  0.01152  0.52750  0.49037  1.0000
  C   C438      1.0  0.39612  0.99792  0.44068  1.0000
  H   H772      1.0  0.29382  0.63208  0.55603  1.0000
  C   C439      1.0  0.39480  0.99398  0.45880  1.0000
  C   C440      1.0  0.39251  0.80285  0.41907  1.0000
  C   C441      1.0  0.46735  0.78812  0.50378  1.0000
  S   S98       1.0  0.13685  0.50926  0.43711  1.0000
  C   C442      1.0  0.44213  0.75021  0.43027  1.0000
  C   C443      1.0  0.21829  0.64592  0.36752  1.0000
  H   H773      1.0  0.30611  0.54422  0.58693  1.0000
  H   H774      1.0  0.42224  0.72744  0.34835  1.0000
  C   C444      1.0  0.27622  0.56801  0.61066  1.0000
  H   H775      1.0  0.25819  0.57313  0.60970  1.0000
  H   H776      1.0  0.06089  0.56217  0.48455  1.0000
  H   H777      1.0  0.06850  0.54021  0.52502  1.0000
  C   C445      1.0  0.34132  0.54122  0.47148  1.0000
  H   H778      1.0  0.46051  0.80262  0.51046  1.0000
  C   C446      1.0  0.05625  0.54039  0.48856  1.0000
  H   H779      1.0  0.38346  0.97664  0.41568  1.0000
  H   H780      1.0  0.43680  0.74911  0.45860  1.0000
  H   H781      1.0  0.00687  0.58012  0.51033  1.0000
  H   H782      1.0  0.46355  0.68341  0.53545  1.0000
  C   C447      1.0  0.48635  0.70371  0.56771  1.0000
  H   H783      1.0  0.32720  0.99487  0.41679  1.0000
  H   H784      1.0  0.49292  0.70991  0.51161  1.0000
  H   H785      1.0  0.27313  0.51430  0.55354  1.0000
  H   H786      1.0  0.49697  0.75553  0.55455  1.0000
  S   S99       1.0  0.48009  0.63173  0.45919  1.0000
  H   H787      1.0  0.43398  0.98035  0.48077  1.0000
  H   H788      1.0  0.20376  0.56140  0.57970  1.0000
  H   H789      1.0  0.21414  0.50782  0.55647  1.0000
  S   S100      1.0  0.47626  0.64588  0.50956  1.0000
  H   H790      1.0  0.48488  0.78379  0.47931  1.0000
  H   H791      1.0  0.30845  0.51570  0.48961  1.0000
  H   H792      1.0  0.17150  0.55334  0.59108  1.0000
  C   C448      1.0  0.04592  0.52983  0.52885  1.0000
  H   H793      1.0  0.06591  0.62001  0.49659  1.0000
  C   C449      1.0  0.22268  0.67628  0.37016  1.0000
  H   H794      1.0  0.07985  0.52653  0.55538  1.0000
  C   C450      1.0  0.47400  0.70681  0.53735  1.0000
  H   H795      1.0  0.21597  0.51176  0.37314  1.0000
  H   H796      1.0  0.46589  0.85845  0.43244  1.0000
  S   S101      1.0  0.34029  0.51473  0.53722  1.0000
  C   C451      1.0  0.16056  0.58514  0.34010  1.0000
  S   S102      1.0  0.29151  0.66195  0.33785  1.0000
  H   H797      1.0  0.47922  0.84661  0.46105  1.0000
  C   C452      1.0  0.17827  0.53145  0.54878  1.0000
  N   N25       1.0  0.18722  0.59892  0.35098  1.0000
  H   H798      1.0  0.02326  0.57405  0.49130  1.0000
  H   H799      1.0  0.48394  0.85657  0.41298  1.0000
  H   H800      1.0  0.23059  0.60605  0.35045  1.0000
  C   C453      1.0  0.05840  0.52188  0.55984  1.0000
  H   H801      1.0  0.47213  0.75791  0.45147  1.0000
  S   S103      1.0  0.49248  0.69577  0.47076  1.0000
  H   H802      1.0  0.48418  0.78675  0.51172  1.0000
  H   H803      1.0  0.46042  0.55958  0.45127  1.0000
  H   H804      1.0  0.49194  0.74221  0.51874  1.0000
  H   H805      1.0  0.16700  0.51932  0.51069  1.0000
  H   H806      1.0  0.22038  0.51793  0.49481  1.0000
  S   S104      1.0  0.19483  0.50782  0.45364  1.0000
  H   H807      1.0  0.15312  0.56182  0.33919  1.0000
  S   S105      1.0  0.49416  0.86476  0.57396  1.0000
  C   C454      1.0  0.17959  0.51220  0.51928  1.0000
  H   H808      1.0  0.13110  0.51218  0.53034  1.0000
  H   H809      1.0  0.49352  0.84296  0.49166  1.0000
  H   H810      1.0  0.16804  0.51137  0.57474  1.0000
  H   H811      1.0  0.26240  0.50421  0.57599  1.0000
  H   H812      1.0  0.49054  0.50433  0.52222  1.0000
  H   H813      1.0  0.44662  0.50309  0.51029  1.0000
  H   H814      1.0  0.31290  0.00092  0.47181  1.0000
  S   S106      1.0  0.49920  0.81691  0.54813  1.0000
  H   H815      1.0  0.29323  0.50277  0.56754  1.0000
  H   H816      1.0  0.22954  0.55729  0.93354  1.0000
  H   H817      1.0  0.26638  0.59413  0.96006  1.0000
  S   S107      1.0  0.42552  0.84222  0.96417  1.0000
  H   H818      1.0  0.18871  0.58217  0.89299  1.0000
  C   C455      1.0  0.18988  0.56450  0.90014  1.0000
  S   S108      1.0  0.42680  0.53391  0.96432  1.0000
  Fe  Fe56      1.0  0.15857  0.60078  0.94952  1.0000
  S   S109      1.0  0.14428  0.61521  0.97329  1.0000
  C   C456      1.0  0.33993  0.77059  0.95262  1.0000
  Fe  Fe57      1.0  0.16787  0.65251  0.92958  1.0000
  S   S110      1.0  0.15351  0.67110  0.95198  1.0000
  S   S111      1.0  0.18942  0.67639  0.90520  1.0000
  Fe  Fe58      1.0  0.18056  0.65794  0.96881  1.0000
  H   H819      1.0  0.22943  0.59777  0.92891  1.0000
  Fe  Fe59      1.0  0.11787  0.62632  0.95472  1.0000
  S   S112      1.0  0.07318  0.61046  0.96620  1.0000
  S   S113      1.0  0.19651  0.64209  0.94628  1.0000
  S   S114      1.0  0.13053  0.60919  0.93099  1.0000
  Fe  Fe60      1.0  0.46884  0.84830  0.95761  1.0000
  H   H820      1.0  0.01816  0.63186  0.95813  1.0000
  H   H821      1.0  0.04943  0.59720  0.93042  1.0000
  H   H822      1.0  0.40416  0.75925  0.79314  1.0000
  Fe  Fe61      1.0  0.32903  0.67056  0.68132  1.0000
  S   S115      1.0  0.31481  0.66712  0.71036  1.0000
  H   H823      1.0  0.20403  0.53836  0.87351  1.0000
  H   H824      1.0  0.45657  0.67309  0.90972  1.0000
  Fe  Fe62      1.0  0.34777  0.63590  0.85350  1.0000
  S   S116      1.0  0.32805  0.65690  0.87024  1.0000
  S   S117      1.0  0.36737  0.60940  0.86546  1.0000
  Fe  Fe63      1.0  0.34237  0.66511  0.81929  1.0000
  S   S118      1.0  0.32234  0.68838  0.83419  1.0000
  S   S119      1.0  0.35770  0.67326  0.79041  1.0000
  Fe  Fe64      1.0  0.35491  0.69642  0.85539  1.0000
  S   S120      1.0  0.37300  0.73788  0.87084  1.0000
  Fe  Fe65      1.0  0.29728  0.64738  0.84803  1.0000
  S   S121      1.0  0.25016  0.62828  0.85262  1.0000
  S   S122      1.0  0.37682  0.67625  0.83992  1.0000
  S   S123      1.0  0.31501  0.62314  0.83196  1.0000
  C   C457      1.0  0.32730  0.66798  0.73243  1.0000
  C   C458      1.0  0.35602  0.67948  0.73685  1.0000
  C   C459      1.0  0.36474  0.68072  0.75454  1.0000
  C   C460      1.0  0.34504  0.67047  0.76822  1.0000
  C   C461      1.0  0.31632  0.65880  0.76380  1.0000
  C   C462      1.0  0.30761  0.65772  0.74611  1.0000
  H   H825      1.0  0.37155  0.68809  0.72669  1.0000
  H   H826      1.0  0.38702  0.68995  0.75766  1.0000
  H   H827      1.0  0.30074  0.65065  0.77400  1.0000
  H   H828      1.0  0.28534  0.64890  0.74300  1.0000
  C   C463      1.0  0.20716  0.66194  0.89205  1.0000
  C   C464      1.0  0.19187  0.63639  0.88303  1.0000
  C   C465      1.0  0.20536  0.62673  0.87083  1.0000
  C   C466      1.0  0.23443  0.64198  0.86791  1.0000
  C   C467      1.0  0.24999  0.66722  0.87724  1.0000
  C   C468      1.0  0.23628  0.67740  0.88907  1.0000
  H   H829      1.0  0.16935  0.62467  0.88490  1.0000
  H   H830      1.0  0.19308  0.60746  0.86347  1.0000
  H   H831      1.0  0.27239  0.67925  0.87503  1.0000
  H   H832      1.0  0.24816  0.69749  0.89570  1.0000
  H   H833      1.0  0.40498  0.68947  0.70473  1.0000
  H   H834      1.0  0.31499  0.74684  0.76280  1.0000
  H   H835      1.0  0.47880  0.51101  0.97095  1.0000
  S   S124      1.0  0.16230  0.56038  0.95072  1.0000
  H   H836      1.0  0.18749  0.56867  0.91412  1.0000
  C   C469      1.0  0.45698  0.67817  0.85442  1.0000
  H   H837      1.0  0.37441  0.82218  0.98342  1.0000
  C   C470      1.0  0.32489  0.53884  0.90597  1.0000
  C   C471      1.0  0.31037  0.55323  0.89912  1.0000
  C   C472      1.0  0.32326  0.57528  0.88700  1.0000
  C   C473      1.0  0.35074  0.58287  0.88140  1.0000
  C   C474      1.0  0.36540  0.56876  0.88844  1.0000
  C   C475      1.0  0.35267  0.54701  0.90076  1.0000
  C   C476      1.0  0.36077  0.82651  0.81522  1.0000
  H   H838      1.0  0.31183  0.58603  0.88171  1.0000
  H   H839      1.0  0.38649  0.57421  0.88402  1.0000
  H   H840      1.0  0.36401  0.53597  0.90580  1.0000
  C   C477      1.0  0.26387  0.63723  0.92138  1.0000
  C   C478      1.0  0.01815  0.65271  0.95686  1.0000
  H   H841      1.0  0.45956  0.71056  0.93828  1.0000
  H   H842      1.0  0.39206  0.56058  0.94840  1.0000
  C   C479      1.0  0.44770  0.69645  0.94912  1.0000
  C   C480      1.0  0.44714  0.65895  0.97004  1.0000
  C   C481      1.0  0.46101  0.78926  0.89580  1.0000
  C   C482      1.0  0.43659  0.78519  0.90473  1.0000
  C   C483      1.0  0.40982  0.76893  0.89702  1.0000
  C   C484      1.0  0.40708  0.75613  0.88049  1.0000
  C   C485      1.0  0.43149  0.76003  0.87158  1.0000
  C   C486      1.0  0.45829  0.77674  0.87916  1.0000
  H   H843      1.0  0.43836  0.79487  0.91749  1.0000
  H   H844      1.0  0.39108  0.76632  0.90386  1.0000
  H   H845      1.0  0.42977  0.75077  0.85872  1.0000
  H   H846      1.0  0.47710  0.78035  0.87202  1.0000
  C   C487      1.0  0.03231  0.58785  0.93959  1.0000
  C   C488      1.0  0.03823  0.59051  0.95756  1.0000
  N   N26       1.0  0.21803  0.56481  0.89691  1.0000
  N   N27       1.0  0.31051  0.75764  0.96023  1.0000
  C   C489      1.0  0.28861  0.74295  0.94608  1.0000
  C   C490      1.0  0.35377  0.74878  0.77524  1.0000
  C   C491      1.0  0.30840  0.73529  0.97317  1.0000
  C   C492      1.0  0.30528  0.77967  0.96997  1.0000
  C   C493      1.0  0.30443  0.80358  0.95888  1.0000
  C   C494      1.0  0.25738  0.72889  0.95194  1.0000
  S   S125      1.0  0.34505  0.51460  0.96331  1.0000
  H   H847      1.0  0.49036  0.72089  0.98113  1.0000
  H   H848      1.0  0.42427  0.65277  0.96967  1.0000
  C   C495      1.0  0.29433  0.82151  0.96978  1.0000
  C   C496      1.0  0.23754  0.71677  0.93624  1.0000
  H   H849      1.0  0.22080  0.61728  0.91284  1.0000
  H   H850      1.0  0.29277  0.72631  0.93956  1.0000
  H   H851      1.0  0.28994  0.75771  0.93551  1.0000
  H   H852      1.0  0.25921  0.64997  0.93126  1.0000
  C   C497      1.0  0.23689  0.61041  0.91688  1.0000
  H   H853      1.0  0.24344  0.58371  0.99780  1.0000
  H   H854      1.0  0.28749  0.72583  0.97960  1.0000
  H   H855      1.0  0.28548  0.76946  0.97757  1.0000
  C   C498      1.0  0.25210  0.59377  0.97066  1.0000
  H   H856      1.0  0.28992  0.79522  0.94749  1.0000
  H   H857      1.0  0.32597  0.81784  0.95427  1.0000
  H   H858      1.0  0.25296  0.71106  0.96093  1.0000
  H   H859      1.0  0.25182  0.74445  0.95845  1.0000
  H   H860      1.0  0.45701  0.66211  0.94186  1.0000
  C   C499      1.0  0.46158  0.92014  0.98622  1.0000
  H   H861      1.0  0.23221  0.77776  0.99470  1.0000
  C   C500      1.0  0.08053  0.53628  0.95018  1.0000
  H   H862      1.0  0.11113  0.55407  0.97057  1.0000
  H   H863      1.0  0.33466  0.76376  0.92423  1.0000
  C   C501      1.0  0.13646  0.53838  0.90052  1.0000
  H   H864      1.0  0.29582  0.83978  0.96201  1.0000
  H   H865      1.0  0.27200  0.80871  0.97360  1.0000
  H   H866      1.0  0.19287  0.60321  0.97626  1.0000
  H   H867      1.0  0.21536  0.70717  0.94072  1.0000
  H   H868      1.0  0.24035  0.73360  0.92673  1.0000
  H   H869      1.0  0.24131  0.70010  0.92957  1.0000
  H   H870      1.0  0.06634  0.55669  0.97922  1.0000
  H   H871      1.0  0.40172  0.91691  0.97537  1.0000
  C   C502      1.0  0.15697  0.53196  0.98124  1.0000
  H   H872      1.0  0.39414  0.60416  0.96275  1.0000
  H   H873      1.0  0.43473  0.58966  0.96536  1.0000
  H   H874      1.0  0.47728  0.56059  0.98525  1.0000
  C   C503      1.0  0.40938  0.75168  0.82003  1.0000
  C   C504      1.0  0.46026  0.67625  0.95332  1.0000
  N   N28       1.0  0.35811  0.60084  0.71356  1.0000
  C   C505      1.0  0.37512  0.58471  0.71088  1.0000
  C   C506      1.0  0.35120  0.60139  0.73275  1.0000
  C   C507      1.0  0.33066  0.58507  0.70355  1.0000
  C   C508      1.0  0.37288  0.63051  0.70648  1.0000
  C   C509      1.0  0.40239  0.64968  0.71440  1.0000
  C   C510      1.0  0.38344  0.58220  0.69174  1.0000
  C   C511      1.0  0.30831  0.59604  0.70610  1.0000
  C   C512      1.0  0.37317  0.60199  0.74647  1.0000
  H   H875      1.0  0.47852  0.74467  0.90677  1.0000
  H   H876      1.0  0.33356  0.70605  0.99112  1.0000
  C   C513      1.0  0.25610  0.62410  0.97303  1.0000
  C   C514      1.0  0.28024  0.57613  0.69740  1.0000
  H   H877      1.0  0.36324  0.56281  0.71601  1.0000
  H   H878      1.0  0.39506  0.59417  0.71856  1.0000
  H   H879      1.0  0.34674  0.61969  0.73556  1.0000
  H   H880      1.0  0.33140  0.58220  0.73606  1.0000
  H   H881      1.0  0.32067  0.56221  0.70705  1.0000
  H   H882      1.0  0.33442  0.58598  0.68920  1.0000
  H   H883      1.0  0.37457  0.63001  0.69198  1.0000
  H   H884      1.0  0.36002  0.64195  0.70877  1.0000
  H   H885      1.0  0.41637  0.63927  0.71413  1.0000
  H   H886      1.0  0.40017  0.65546  0.72809  1.0000
  H   H887      1.0  0.43835  0.69054  0.71041  1.0000
  H   H888      1.0  0.39564  0.60338  0.68589  1.0000
  H   H889      1.0  0.31570  0.61694  0.69991  1.0000
  H   H890      1.0  0.30409  0.59827  0.72006  1.0000
  H   H891      1.0  0.37360  0.58118  0.74654  1.0000
  H   H892      1.0  0.39473  0.61851  0.74374  1.0000
  C   C515      1.0  0.44417  0.62322  0.99136  1.0000
  H   H893      1.0  0.38087  0.60648  0.77455  1.0000
  C   C516      1.0  0.34191  0.74462  0.74278  1.0000
  H   H894      1.0  0.48254  0.91454  0.95432  1.0000
  H   H895      1.0  0.40721  0.56517  0.67707  1.0000
  H   H896      1.0  0.20748  0.52056  0.90013  1.0000
  H   H897      1.0  0.02028  0.53651  0.99405  1.0000
  H   H898      1.0  0.35014  0.72646  0.77362  1.0000
  H   H899      1.0  0.42551  0.63854  0.84282  1.0000
  H   H900      1.0  0.28894  0.54702  0.90307  1.0000
  C   C517      1.0  0.01547  0.57840  0.96923  1.0000
  C   C518      1.0  0.24887  0.56312  0.87106  1.0000
  C   C519      1.0  0.24779  0.55622  0.85154  1.0000
  H   H901      1.0  0.26162  0.59174  0.90467  1.0000
  H   H902      1.0  0.45647  0.82571  0.98897  1.0000
  H   H903      1.0  0.25517  0.54851  0.87800  1.0000
  H   H904      1.0  0.26569  0.58508  0.87307  1.0000
  H   H905      1.0  0.28018  0.63170  0.92679  1.0000
  H   H906      1.0  0.23235  0.53387  0.84887  1.0000
  H   H907      1.0  0.24186  0.57042  0.84377  1.0000
  S   S126      1.0  0.37252  0.68106  0.67146  1.0000
  H   H908      1.0  0.32202  0.79057  0.98003  1.0000
  H   H909      1.0  0.34407  0.59114  0.76843  1.0000
  C   C520      1.0  0.22365  0.73389  0.99253  1.0000
  H   H910      1.0  0.36638  0.62865  0.76585  1.0000
  N   N29       1.0  0.34700  0.75404  0.79363  1.0000
  C   C521      1.0  0.36323  0.74502  0.80631  1.0000
  C   C522      1.0  0.31591  0.73709  0.79734  1.0000
  H   H911      1.0  0.47390  0.93863  0.94217  1.0000
  C   C523      1.0  0.35498  0.78508  0.79581  1.0000
  C   C524      1.0  0.35294  0.79496  0.81468  1.0000
  C   C525      1.0  0.39585  0.76202  0.80590  1.0000
  H   H912      1.0  0.31005  0.71752  0.96621  1.0000
  C   C526      1.0  0.30223  0.70551  0.79147  1.0000
  C   C527      1.0  0.27202  0.68956  0.79806  1.0000
  H   H913      1.0  0.23012  0.58045  0.96616  1.0000
  H   H914      1.0  0.21473  0.57485  0.86982  1.0000
  H   H915      1.0  0.28318  0.57318  0.68329  1.0000
  H   H916      1.0  0.35831  0.72260  0.80389  1.0000
  H   H917      1.0  0.35638  0.74555  0.81998  1.0000
  H   H918      1.0  0.31206  0.73737  0.81163  1.0000
  H   H919      1.0  0.30345  0.74693  0.79121  1.0000
  C   C528      1.0  0.23123  0.71313  0.99812  1.0000
  H   H920      1.0  0.33190  0.72114  0.74287  1.0000
  H   H921      1.0  0.37672  0.79833  0.79097  1.0000
  H   H922      1.0  0.34113  0.79081  0.78745  1.0000
  H   H923      1.0  0.27220  0.65044  0.90956  1.0000
  H   H924      1.0  0.33118  0.78325  0.81971  1.0000
  H   H925      1.0  0.48315  0.60187  0.96878  1.0000
  C   C529      1.0  0.43715  0.63789  0.89140  1.0000
  C   C530      1.0  0.27153  0.54898  0.97209  1.0000
  H   H926      1.0  0.41320  0.87821  0.99097  1.0000
  H   H927      1.0  0.30135  0.70358  0.77699  1.0000
  H   H928      1.0  0.31427  0.69458  0.79647  1.0000
  H   H929      1.0  0.26280  0.66715  0.79354  1.0000
  H   H930      1.0  0.27164  0.68978  0.81259  1.0000
  H   H931      1.0  0.25875  0.69918  0.79290  1.0000
  H   H932      1.0  0.27095  0.55521  0.70390  1.0000
  H   H933      1.0  0.48335  0.68933  0.95531  1.0000
  C   C531      1.0  0.41736  0.67728  0.70435  1.0000
  C   C532      1.0  0.00408  0.57407  0.93345  1.0000
  C   C533      1.0  0.25833  0.58248  0.98805  1.0000
  H   H934      1.0  0.33834  0.58236  0.95320  1.0000
  H   H935      1.0  0.01968  0.58066  0.98316  1.0000
  C   C534      1.0  0.45930  0.55528  0.99362  1.0000
  H   H936      1.0  0.45326  0.94869  0.96858  1.0000
  H   H937      1.0  0.30740  0.82968  0.98183  1.0000
  H   H938      1.0  0.35923  0.83303  0.82886  1.0000
  C   C535      1.0  0.09013  0.53578  0.96902  1.0000
  H   H939      1.0  0.38716  0.78869  0.93234  1.0000
  H   H940      1.0  0.42520  0.68440  0.94510  1.0000
  H   H941      1.0  0.35064  0.88461  0.97502  1.0000
  C   C536      1.0  0.18382  0.58291  0.98265  1.0000
  H   H942      1.0  0.36455  0.56990  0.68344  1.0000
  H   H943      1.0  0.48681  0.97546  0.99720  1.0000
  Fe  Fe66      1.0  0.38117  0.50429  0.95992  1.0000
  H   H944      1.0  0.20619  0.72829  0.98345  1.0000
  H   H945      1.0  0.43266  0.76453  0.81989  1.0000
  H   H946      1.0  0.20957  0.50982  0.94744  1.0000
  H   H947      1.0  0.49229  0.71402  0.87690  1.0000
  C   C537      1.0  0.31549  0.56752  0.95351  1.0000
  H   H948      1.0  0.19249  0.53559  0.92868  1.0000
  H   H949      1.0  0.35494  0.86538  0.99322  1.0000
  H   H950      1.0  0.27958  0.59804  0.99284  1.0000
  H   H951      1.0  0.37654  0.80501  0.91505  1.0000
  H   H952      1.0  0.45570  0.65817  0.82931  1.0000
  C   C538      1.0  0.41273  0.61268  0.99606  1.0000
  H   H953      1.0  0.27105  0.52772  0.97248  1.0000
  H   H954      1.0  0.39041  0.54514  0.69623  1.0000
  C   C539      1.0  0.49066  0.73423  0.90107  1.0000
  H   H955      1.0  0.38300  0.82022  0.93671  1.0000
  C   C540      1.0  0.22094  0.54140  0.90648  1.0000
  H   H956      1.0  0.30671  0.59268  0.97215  1.0000
  H   H957      1.0  0.45543  0.67388  0.98140  1.0000
  H   H958      1.0  0.47187  0.69939  0.84950  1.0000
  H   H959      1.0  0.21295  0.53552  0.99643  1.0000
  H   H960      1.0  0.07836  0.55593  0.94783  1.0000
  H   H961      1.0  0.04819  0.51934  0.97870  1.0000
  H   H962      1.0  0.24722  0.60807  0.89039  1.0000
  H   H963      1.0  0.26526  0.58540  0.69855  1.0000
  H   H964      1.0  0.13589  0.53998  0.91500  1.0000
  C   C541      1.0  0.21990  0.55998  0.87753  1.0000
  H   H965      1.0  0.44439  0.62371  0.91678  1.0000
  C   C542      1.0  0.24191  0.59352  0.90175  1.0000
  H   H966      1.0  0.31534  0.56650  0.98158  1.0000
  H   H967      1.0  0.45153  0.61290  0.94810  1.0000
  C   C543      1.0  0.40909  0.60614  0.95224  1.0000
  H   H968      1.0  0.41179  0.62435  0.94399  1.0000
  H   H969      1.0  0.21595  0.53604  0.97354  1.0000
  H   H970      1.0  0.37473  0.57677  0.93562  1.0000
  H   H971      1.0  0.38755  0.52198  0.99248  1.0000
  N   N30       1.0  0.44247  0.91969  0.00085  1.0000
  C   C544      1.0  0.40874  0.53314  0.99770  1.0000
  C   C545      1.0  0.39543  0.57952  0.94074  1.0000
  H   H972      1.0  0.40429  0.62729  0.99175  1.0000
  N   N31       1.0  0.45268  0.63370  0.97294  1.0000
  C   C546      1.0  0.43794  0.61015  0.95967  1.0000
  H   H973      1.0  0.40896  0.58080  0.92948  1.0000
  C   C547      1.0  0.36556  0.87830  0.98166  1.0000
  H   H974      1.0  0.33168  0.75123  0.73226  1.0000
  H   H975      1.0  0.36751  0.79164  0.82379  1.0000
  C   C548      1.0  0.37443  0.79997  0.92922  1.0000
  H   H976      1.0  0.42055  0.67291  0.69051  1.0000
  C   C549      1.0  0.44075  0.66014  0.83865  1.0000
  C   C550      1.0  0.41272  0.89673  0.99765  1.0000
  H   H977      1.0  0.40296  0.78492  0.80828  1.0000
  H   H978      1.0  0.34637  0.77927  0.75935  1.0000
  H   H979      1.0  0.49286  0.61739  0.99046  1.0000
  C   C551      1.0  0.33795  0.75595  0.76044  1.0000
  C   C552      1.0  0.47624  0.71818  0.88392  1.0000
  S   S127      1.0  0.21314  0.67737  0.99093  1.0000
  H   H980      1.0  0.46028  0.89872  0.98424  1.0000
  C   C553      1.0  0.06878  0.53731  0.98219  1.0000
  C   C554      1.0  0.39215  0.90471  0.98727  1.0000
  C   C555      1.0  0.40184  0.56685  0.69091  1.0000
  H   H981      1.0  0.27868  0.63888  0.97546  1.0000
  S   S128      1.0  0.47851  0.81150  0.95464  1.0000
  C   C556      1.0  0.21598  0.51255  0.93356  1.0000
  H   H982      1.0  0.06001  0.51760  0.94739  1.0000
  H   H983      1.0  0.33235  0.79502  0.93140  1.0000
  H   H984      1.0  0.34850  0.75485  0.95233  1.0000
  C   C557      1.0  0.38946  0.81809  0.99092  1.0000
  H   H985      1.0  0.37657  0.76172  0.77258  1.0000
  H   H986      1.0  0.36465  0.75282  0.73975  1.0000
  C   C558      1.0  0.16867  0.55810  0.97292  1.0000
  C   C559      1.0  0.48416  0.64378  0.97159  1.0000
  H   H987      1.0  0.42967  0.69634  0.86240  1.0000
  H   H988      1.0  0.11769  0.51889  0.89615  1.0000
  H   H989      1.0  0.37692  0.69872  0.89950  1.0000
  C   C560      1.0  0.16336  0.53700  0.89482  1.0000
  H   H990      1.0  0.41466  0.63171  0.89382  1.0000
  H   H991      1.0  0.43885  0.63250  0.87756  1.0000
  H   H992      1.0  0.42610  0.71499  0.89008  1.0000
  H   H993      1.0  0.35481  0.78813  0.96117  1.0000
  H   H994      1.0  0.16203  0.53404  0.88040  1.0000
  C   C561      1.0  0.44591  0.61943  0.90271  1.0000
  C   C562      1.0  0.21415  0.53849  0.92621  1.0000
  C   C563      1.0  0.36555  0.60735  0.76491  1.0000
  H   H995      1.0  0.38554  0.91781  0.99572  1.0000
  H   H996      1.0  0.02485  0.66075  0.94343  1.0000
  C   C564      1.0  0.34340  0.78189  0.93362  1.0000
  C   C565      1.0  0.43688  0.68125  0.86798  1.0000
  C   C566      1.0  0.47926  0.93378  0.95538  1.0000
  H   H997      1.0  0.14490  0.51276  0.97376  1.0000
  H   H998      1.0  0.30487  0.57248  0.94243  1.0000
  H   H999      1.0  0.46790  0.62360  0.89980  1.0000
  H   H1000     1.0  0.26893  0.55935  0.84725  1.0000
  H   H1001     1.0  0.13527  0.55698  0.89466  1.0000
  H   H1002     1.0  0.24351  0.62568  0.98415  1.0000
  H   H1003     1.0  0.44933  0.71002  0.96066  1.0000
  H   H1004     1.0  0.39998  0.59149  0.98998  1.0000
  C   C567      1.0  0.42922  0.69787  0.89657  1.0000
  H   H1005     1.0  0.43181  0.59673  0.89992  1.0000
  C   C568      1.0  0.38050  0.68428  0.90856  1.0000
  C   C569      1.0  0.43576  0.82025  0.99410  1.0000
  N   N32       1.0  0.44933  0.69101  0.88602  1.0000
  C   C570      1.0  0.39973  0.67327  0.90016  1.0000
  H   H1006     1.0  0.41756  0.66083  0.86850  1.0000
  H   H1007     1.0  0.43820  0.70636  0.90969  1.0000
  H   H1008     1.0  0.38900  0.66182  0.88804  1.0000
  H   H1009     1.0  0.35972  0.66622  0.91142  1.0000
  H   H1010     1.0  0.38991  0.69585  0.92097  1.0000
  H   H1011     1.0  0.44839  0.60489  0.99412  1.0000
  H   H1012     1.0  0.03378  0.66764  0.96635  1.0000
  H   H1013     1.0  0.24281  0.54398  0.90545  1.0000
  C   C571      1.0  0.23845  0.76192  0.99893  1.0000
  H   H1014     1.0  0.40433  0.72917  0.81759  1.0000
  H   H1015     1.0  0.43594  0.91152  0.96241  1.0000
  H   H1016     1.0  0.42180  0.57877  0.69841  1.0000
  H   H1017     1.0  0.40170  0.75379  0.83319  1.0000
  H   H1018     1.0  0.24895  0.63078  0.96103  1.0000
  C   C572      1.0  0.41617  0.82521  0.98423  1.0000
  H   H1019     1.0  0.40162  0.65825  0.90950  1.0000
  C   C573      1.0  0.43196  0.54106  0.98672  1.0000
  C   C574      1.0  0.45634  0.66980  0.89531  1.0000
  C   C575      1.0  0.45545  0.92887  0.96804  1.0000
  H   H1020     1.0  0.47235  0.73319  0.87553  1.0000
  N   N33       1.0  0.25593  0.55292  0.98743  1.0000
  C   C576      1.0  0.33041  0.74551  0.98837  1.0000
  H   H1021     1.0  0.32632  0.75977  0.99735  1.0000
  C   C577      1.0  0.30320  0.57047  0.97097  1.0000
  H   H1022     1.0  0.37096  0.86528  0.97237  1.0000
  H   H1023     1.0  0.35230  0.75690  0.98351  1.0000
  H   H1024     1.0  0.23788  0.51506  0.93268  1.0000
  S   S129      1.0  0.48853  0.86903  0.93261  1.0000
  H   H1025     1.0  0.49584  0.66276  0.98006  1.0000
  H   H1026     1.0  0.09648  0.53590  0.94100  1.0000
  H   H1027     1.0  0.42912  0.67015  0.83178  1.0000
  H   H1028     1.0  0.38278  0.83926  0.81075  1.0000
  H   H1029     1.0  0.26074  0.54910  0.95959  1.0000
  S   S130      1.0  0.30702  0.51003  0.92031  1.0000
  H   H1030     1.0  0.47815  0.67340  0.89216  1.0000
  H   H1031     1.0  0.16357  0.51818  0.90098  1.0000
  C   C578      1.0  0.22515  0.53217  0.98571  1.0000
  H   H1032     1.0  0.09231  0.51605  0.97067  1.0000
  H   H1033     1.0  0.34617  0.83102  0.80681  1.0000
  C   C579      1.0  0.49499  0.62189  0.97625  1.0000
  H   H1034     1.0  0.46961  0.66841  0.86030  1.0000
  C   C580      1.0  0.32861  0.72065  0.99926  1.0000
  H   H1035     1.0  0.12079  0.56342  0.99781  1.0000
  H   H1036     1.0  0.31287  0.54564  0.95173  1.0000
  H   H1037     1.0  0.48408  0.93382  0.98976  1.0000
  H   H1038     1.0  0.49137  0.65067  0.95804  1.0000
  H   H1039     1.0  0.49920  0.95191  0.95989  1.0000
  H   H1040     1.0  0.10088  0.58274  0.00032  1.0000
  H   H1041     1.0  0.49228  0.71970  0.91090  1.0000
  S   S131      1.0  0.49515  0.80917  0.90508  1.0000
  H   H1042     1.0  0.43328  0.95371  0.99207  1.0000
  C   C581      1.0  0.49807  0.50893  0.99508  1.0000
  C   C582      1.0  0.15991  0.53082  0.99941  1.0000
  H   H1043     1.0  0.09959  0.51331  0.99953  1.0000
  C   C583      1.0  0.18718  0.58169  0.00073  1.0000
  H   H1044     1.0  0.01593  0.50237  0.00062  1.0000
  H   H1045     1.0  0.42727  0.75205  0.00069  1.0000
  H   H1046     1.0  0.68591  0.39061  0.31810  1.0000
  S   S132      1.0  0.55819  0.12946  0.04896  1.0000
  S   S133      1.0  0.68926  0.46374  0.09331  1.0000
  Fe  Fe67      1.0  0.62388  0.47432  0.04850  1.0000
  S   S134      1.0  0.57878  0.44437  0.04264  1.0000
  S   S135      1.0  0.65740  0.45999  0.04877  1.0000
  Fe  Fe68      1.0  0.64310  0.28571  0.15871  1.0000
  S   S136      1.0  0.62758  0.30647  0.17890  1.0000
  S   S137      1.0  0.62069  0.24129  0.14680  1.0000
  Fe  Fe69      1.0  0.70249  0.33569  0.15828  1.0000
  S   S138      1.0  0.69149  0.35986  0.17869  1.0000
  S   S139      1.0  0.74414  0.35901  0.14409  1.0000
  Fe  Fe70      1.0  0.66898  0.31873  0.19329  1.0000
  S   S140      1.0  0.67410  0.30953  0.22257  1.0000
  Fe  Fe71      1.0  0.65146  0.34613  0.16291  1.0000
  S   S141      1.0  0.63512  0.37765  0.15531  1.0000
  S   S142      1.0  0.68325  0.29553  0.17369  1.0000
  S   S143      1.0  0.66354  0.32415  0.14194  1.0000
  H   H1047     1.0  0.52988  0.41320  0.02138  1.0000
  H   H1048     1.0  0.61007  0.39561  0.09126  1.0000
  H   H1049     1.0  0.74039  0.44490  0.05417  1.0000
  S   S144      1.0  0.65299  0.32943  0.30376  1.0000
  H   H1050     1.0  0.76525  0.43126  0.07125  1.0000
  Fe  Fe72      1.0  0.83326  0.31974  0.07931  1.0000
  S   S145      1.0  0.85162  0.29857  0.06103  1.0000
  S   S146      1.0  0.80736  0.29909  0.10336  1.0000
  Fe  Fe73      1.0  0.85151  0.37058  0.05707  1.0000
  S   S147      1.0  0.87046  0.35393  0.03684  1.0000
  S   S148      1.0  0.85303  0.41304  0.05313  1.0000
  Fe  Fe74      1.0  0.83150  0.31254  0.03962  1.0000
  S   S149      1.0  0.81230  0.28985  0.01374  1.0000
  Fe  Fe75      1.0  0.88975  0.34172  0.05927  1.0000
  S   S150      1.0  0.93495  0.34722  0.05472  1.0000
  S   S151      1.0  0.81092  0.33079  0.05792  1.0000
  S   S152      1.0  0.87302  0.36126  0.07961  1.0000
  C   C584      1.0  0.96942  0.37658  0.05524  1.0000
  H   H1051     1.0  0.58646  0.39096  0.01183  1.0000
  C   C585      1.0  0.97459  0.40325  0.06180  1.0000
  C   C586      1.0  0.83959  0.39293  0.00199  1.0000
  H   H1052     1.0  0.95728  0.40647  0.06681  1.0000
  C   C587      1.0  0.77936  0.25908  0.01202  1.0000
  C   C588      1.0  0.76109  0.24897  0.02620  1.0000
  H   H1053     1.0  0.61950  0.45935  0.01486  1.0000
  H   H1054     1.0  0.52549  0.20824  0.18360  1.0000
  H   H1055     1.0  0.76732  0.25961  0.03876  1.0000
  H   H1056     1.0  0.53982  0.01148  0.01698  1.0000
  C   C589      1.0  0.83783  0.39119  0.02022  1.0000
  C   C590      1.0  0.85099  0.41572  0.03053  1.0000
  C   C591      1.0  0.86499  0.44209  0.02262  1.0000
  H   H1057     1.0  0.81927  0.49306  0.02035  1.0000
  H   H1058     1.0  0.82680  0.37073  0.02630  1.0000
  H   H1059     1.0  0.87580  0.46097  0.03061  1.0000
  H   H1060     1.0  0.61793  0.42283  0.07529  1.0000
  C   C592      1.0  0.76097  0.34173  0.13263  1.0000
  C   C593      1.0  0.75856  0.31554  0.13797  1.0000
  C   C594      1.0  0.77261  0.30255  0.12879  1.0000
  C   C595      1.0  0.78941  0.31575  0.11428  1.0000
  C   C596      1.0  0.79176  0.34196  0.10890  1.0000
  C   C597      1.0  0.77775  0.35496  0.11812  1.0000
  H   H1061     1.0  0.74627  0.30557  0.14938  1.0000
  H   H1062     1.0  0.77084  0.28239  0.13311  1.0000
  H   H1063     1.0  0.80474  0.35242  0.09781  1.0000
  H   H1064     1.0  0.77999  0.37537  0.11400  1.0000
  C   C598      1.0  0.66861  0.31598  0.24508  1.0000
  C   C599      1.0  0.65903  0.33563  0.25012  1.0000
  C   C600      1.0  0.65451  0.33941  0.26802  1.0000
  C   C601      1.0  0.65934  0.32363  0.28129  1.0000
  C   C602      1.0  0.66910  0.30411  0.27625  1.0000
  C   C603      1.0  0.67376  0.30043  0.25837  1.0000
  H   H1065     1.0  0.65492  0.34785  0.24022  1.0000
  H   H1066     1.0  0.64697  0.35459  0.27161  1.0000
  H   H1067     1.0  0.67263  0.29148  0.28612  1.0000
  H   H1068     1.0  0.68116  0.28514  0.25479  1.0000
  C   C604      1.0  0.66889  0.43583  0.10763  1.0000
  C   C605      1.0  0.67724  0.41453  0.11073  1.0000
  C   C606      1.0  0.66601  0.39567  0.12475  1.0000
  C   C607      1.0  0.64661  0.39819  0.13603  1.0000
  C   C608      1.0  0.63722  0.41859  0.13241  1.0000
  C   C609      1.0  0.64817  0.43723  0.11823  1.0000
  H   H1069     1.0  0.69326  0.41326  0.10265  1.0000
  H   H1070     1.0  0.67333  0.38001  0.12727  1.0000
  H   H1071     1.0  0.62206  0.42059  0.14097  1.0000
  H   H1072     1.0  0.64176  0.45370  0.11613  1.0000
  C   C610      1.0  0.56079  0.12619  0.02640  1.0000
  H   H1073     1.0  0.61236  0.07425  0.01278  1.0000
  H   H1074     1.0  0.88884  0.38382  0.00302  1.0000
  C   C611      1.0  0.59377  0.37980  0.06526  1.0000
  H   H1075     1.0  0.60532  0.15438  0.02624  1.0000
  H   H1076     1.0  0.72080  0.21714  0.03517  1.0000
  C   C612      1.0  0.71555  0.50064  0.14745  1.0000
  C   C613      1.0  0.53721  0.20086  0.11545  1.0000
  C   C614      1.0  0.54556  0.22710  0.12401  1.0000
  C   C615      1.0  0.57165  0.24046  0.13303  1.0000
  C   C616      1.0  0.58924  0.22722  0.13400  1.0000
  C   C617      1.0  0.58109  0.20126  0.12519  1.0000
  C   C618      1.0  0.55541  0.18832  0.11577  1.0000
  H   H1077     1.0  0.90054  0.41487  0.02403  1.0000
  H   H1078     1.0  0.57764  0.26041  0.13977  1.0000
  H   H1079     1.0  0.59449  0.19082  0.12586  1.0000
  H   H1080     1.0  0.54923  0.16812  0.10928  1.0000
  H   H1081     1.0  0.76013  0.40720  0.05311  1.0000
  C   C619      1.0  0.50299  0.33632  0.02548  1.0000
  C   C620      1.0  0.57499  0.43714  0.02019  1.0000
  C   C621      1.0  0.66881  0.23818  0.20770  1.0000
  N   N34       1.0  0.75190  0.37078  0.30392  1.0000
  C   C622      1.0  0.77145  0.39010  0.29029  1.0000
  C   C623      1.0  0.76652  0.37876  0.32156  1.0000
  C   C624      1.0  0.74468  0.34063  0.29895  1.0000
  C   C625      1.0  0.72503  0.37372  0.30483  1.0000
  C   C626      1.0  0.72856  0.40404  0.30841  1.0000
  C   C627      1.0  0.75825  0.38844  0.27184  1.0000
  C   C628      1.0  0.72577  0.31768  0.31196  1.0000
  H   H1082     1.0  0.60118  0.32688  0.01115  1.0000
  C   C629      1.0  0.61073  0.05258  0.01159  1.0000
  H   H1083     1.0  0.97693  0.34061  0.09694  1.0000
  C   C630      1.0  0.78017  0.40854  0.25917  1.0000
  C   C631      1.0  0.72352  0.28870  0.30703  1.0000
  H   H1084     1.0  0.78969  0.38546  0.28841  1.0000
  H   H1085     1.0  0.78093  0.41257  0.29481  1.0000
  H   H1086     1.0  0.51714  0.09644  0.02251  1.0000
  C   C632      1.0  0.58199  0.00384  0.00110  1.0000
  H   H1087     1.0  0.76421  0.33826  0.29677  1.0000
  H   H1088     1.0  0.73301  0.33476  0.28626  1.0000
  H   H1089     1.0  0.71223  0.36529  0.29267  1.0000
  H   H1090     1.0  0.54355  0.21321  0.16320  1.0000
  H   H1091     1.0  0.74216  0.41926  0.29856  1.0000
  C   C633      1.0  0.58382  0.31647  0.02059  1.0000
  H   H1092     1.0  0.74984  0.36680  0.26616  1.0000
  H   H1093     1.0  0.74080  0.39448  0.27229  1.0000
  H   H1094     1.0  0.73585  0.48544  0.12890  1.0000
  H   H1095     1.0  0.76083  0.49950  0.17011  1.0000
  H   H1096     1.0  0.61586  0.22330  0.19620  1.0000
  S   S153      1.0  0.63568  0.49588  0.07471  1.0000
  H   H1097     1.0  0.74691  0.48681  0.07222  1.0000
  H   H1098     1.0  0.74734  0.38876  0.00975  1.0000
  H   H1099     1.0  0.62458  0.38988  0.04490  1.0000
  H   H1100     1.0  0.65037  0.24686  0.23021  1.0000
  H   H1101     1.0  0.52837  0.31447  0.02570  1.0000
  H   H1102     1.0  0.58641  0.22871  0.01805  1.0000
  H   H1103     1.0  0.77019  0.40690  0.24612  1.0000
  H   H1104     1.0  0.78865  0.43079  0.26391  1.0000
  H   H1105     1.0  0.79779  0.40286  0.25767  1.0000
  H   H1106     1.0  0.68001  0.26088  0.20418  1.0000
  H   H1107     1.0  0.54870  0.06124  0.01485  1.0000
  H   H1108     1.0  0.75059  0.33291  0.00605  1.0000
  N   N35       1.0  0.73500  0.46414  0.15324  1.0000
  C   C634      1.0  0.73684  0.43953  0.14425  1.0000
  C   C635      1.0  0.71501  0.45307  0.16842  1.0000
  S   S154      1.0  0.70714  0.49023  0.01234  1.0000
  C   C636      1.0  0.79144  0.37143  0.32436  1.0000
  C   C637      1.0  0.78611  0.47760  0.16462  1.0000
  C   C638      1.0  0.75169  0.44613  0.12623  1.0000
  C   C639      1.0  0.78832  0.42413  0.01575  1.0000
  C   C640      1.0  0.72366  0.43899  0.18340  1.0000
  C   C641      1.0  0.69992  0.42581  0.19668  1.0000
  H   H1109     1.0  0.54754  0.14862  0.23521  1.0000
  C   C642      1.0  0.75851  0.42237  0.12019  1.0000
  C   C643      1.0  0.60240  0.25625  0.23099  1.0000
  H   H1110     1.0  0.71536  0.42187  0.14209  1.0000
  H   H1111     1.0  0.74740  0.43009  0.15267  1.0000
  H   H1112     1.0  0.71215  0.47043  0.17490  1.0000
  H   H1113     1.0  0.69365  0.43755  0.16353  1.0000
  H   H1114     1.0  0.70182  0.45972  0.13522  1.0000
  H   H1115     1.0  0.58389  0.15456  0.23460  1.0000
  C   C644      1.0  0.94068  0.41470  0.01770  1.0000
  H   H1116     1.0  0.59826  0.30242  0.24653  1.0000
  H   H1117     1.0  0.73796  0.41161  0.32158  1.0000
  H   H1118     1.0  0.98886  0.35219  0.04420  1.0000
  H   H1119     1.0  0.77150  0.46624  0.12665  1.0000
  H   H1120     1.0  0.52857  0.25096  0.01453  1.0000
  H   H1121     1.0  0.79065  0.48703  0.06084  1.0000
  H   H1122     1.0  0.60884  0.34220  0.04189  1.0000
  H   H1123     1.0  0.72856  0.42201  0.17849  1.0000
  H   H1124     1.0  0.74226  0.45514  0.19055  1.0000
  H   H1125     1.0  0.69526  0.44231  0.20280  1.0000
  H   H1126     1.0  0.68039  0.40962  0.19025  1.0000
  H   H1127     1.0  0.70629  0.41530  0.20713  1.0000
  H   H1128     1.0  0.69719  0.49193  0.15634  1.0000
  H   H1129     1.0  0.71650  0.47491  0.05802  1.0000
  Fe  Fe76      1.0  0.65812  0.31912  0.33285  1.0000
  H   H1130     1.0  0.77361  0.42009  0.12941  1.0000
  H   H1131     1.0  0.73893  0.40200  0.11940  1.0000
  H   H1132     1.0  0.68362  0.23300  0.21542  1.0000
  H   H1133     1.0  0.75127  0.36875  0.33235  1.0000
  H   H1134     1.0  0.76596  0.38792  0.08146  1.0000
  C   C645      1.0  0.58688  0.14119  0.01842  1.0000
  H   H1135     1.0  0.74452  0.28899  0.30797  1.0000
  H   H1136     1.0  0.79348  0.39220  0.06641  1.0000
  H   H1137     1.0  0.81501  0.43631  0.04863  1.0000
  C   C646      1.0  0.73472  0.22496  0.02411  1.0000
  C   C647      1.0  0.62500  0.38698  0.01097  1.0000
  H   H1138     1.0  0.54788  0.04266  0.05300  1.0000
  C   C648      1.0  0.56795  0.20753  0.01687  1.0000
  H   H1139     1.0  0.66814  0.07139  0.02033  1.0000
  H   H1140     1.0  0.56160  0.25797  0.23317  1.0000
  H   H1141     1.0  0.57084  0.20356  0.18526  1.0000
  C   C649      1.0  0.76347  0.48708  0.15908  1.0000
  H   H1142     1.0  0.61745  0.25510  0.24074  1.0000
  C   C650      1.0  0.54822  0.42024  0.01313  1.0000
  H   H1143     1.0  0.83407  0.47027  0.02617  1.0000
  C   C651      1.0  0.53141  0.33619  0.02286  1.0000
  H   H1144     1.0  0.51558  0.25575  0.05040  1.0000
  H   H1145     1.0  0.58988  0.23956  0.17857  1.0000
  H   H1146     1.0  0.66393  0.09872  0.00840  1.0000
  H   H1147     1.0  0.53578  0.06709  0.04483  1.0000
  H   H1148     1.0  0.77335  0.45596  0.01510  1.0000
  S   S155      1.0  0.51244  0.16623  0.05836  1.0000
  C   C652      1.0  0.53941  0.24527  0.06926  1.0000
  H   H1149     1.0  0.70908  0.27252  0.31619  1.0000
  H   H1150     1.0  0.50426  0.35707  0.02162  1.0000
  H   H1151     1.0  0.95236  0.44787  0.04763  1.0000
  H   H1152     1.0  0.58158  0.35782  0.00443  1.0000
  H   H1153     1.0  0.96054  0.36349  0.09389  1.0000
  C   C653      1.0  0.70003  0.40457  0.30788  1.0000
  H   H1154     1.0  0.81418  0.45993  0.06459  1.0000
  C   C654      1.0  0.57794  0.25681  0.24177  1.0000
  H   H1155     1.0  0.80658  0.37906  0.31344  1.0000
  H   H1156     1.0  0.77798  0.46002  0.17405  1.0000
  C   C655      1.0  0.56144  0.02789  0.02017  1.0000
  C   C656      1.0  0.78455  0.40376  0.07442  1.0000
  H   H1157     1.0  0.85272  0.49474  0.05403  1.0000
  C   C657      1.0  0.99251  0.37270  0.04928  1.0000
  C   C658      1.0  0.64289  0.23262  0.21864  1.0000
  H   H1158     1.0  0.74068  0.46355  0.03462  1.0000
  C   C659      1.0  0.76653  0.40375  0.00279  1.0000
  H   H1159     1.0  0.53986  0.22838  0.06079  1.0000
  H   H1160     1.0  0.56786  0.23773  0.25003  1.0000
  C   C660      1.0  0.58087  0.20492  0.22666  1.0000
  N   N36       1.0  0.59406  0.23292  0.21736  1.0000
  H   H1161     1.0  0.63706  0.40182  0.07537  1.0000
  H   H1162     1.0  0.54577  0.24366  0.17514  1.0000
  C   C661      1.0  0.58878  0.28247  0.25409  1.0000
  C   C662      1.0  0.56545  0.15207  0.22650  1.0000
  H   H1163     1.0  0.60480  0.28203  0.26334  1.0000
  C   C663      1.0  0.72199  0.47661  0.14040  1.0000
  C   C664      1.0  0.61618  0.40136  0.07744  1.0000
  C   C665      1.0  0.57301  0.17817  0.21518  1.0000
  H   H1164     1.0  0.55915  0.13305  0.21798  1.0000
  C   C666      1.0  0.92332  0.42888  0.02556  1.0000
  C   C667      1.0  0.60216  0.38578  0.04572  1.0000
  H   H1165     1.0  0.96071  0.37507  0.01525  1.0000
  H   H1166     1.0  0.58257  0.27574  0.01493  1.0000
  H   H1167     1.0  0.59478  0.20494  0.23764  1.0000
  H   H1168     1.0  0.90578  0.36254  0.00770  1.0000
  H   H1169     1.0  0.56370  0.31042  0.01346  1.0000
  H   H1170     1.0  0.61375  0.27731  0.22467  1.0000
  H   H1171     1.0  0.73767  0.44821  0.11611  1.0000
  H   H1172     1.0  0.79358  0.47023  0.15306  1.0000
  H   H1173     1.0  0.55148  0.22522  0.21063  1.0000
  C   C668      1.0  0.50628  0.23756  0.01275  1.0000
  Fe  Fe77      1.0  0.68467  0.50036  0.03494  1.0000
  H   H1174     1.0  0.56090  0.20171  0.23300  1.0000
  H   H1175     1.0  0.59075  0.35841  0.06900  1.0000
  H   H1176     1.0  0.78355  0.34817  0.32540  1.0000
  C   C669      1.0  0.62058  0.23742  0.20780  1.0000
  H   H1177     1.0  0.92157  0.41484  0.05240  1.0000
  H   H1178     1.0  0.59048  0.18021  0.20655  1.0000
  H   H1179     1.0  0.57787  0.25840  0.20352  1.0000
  C   C670      1.0  0.97605  0.35992  0.10201  1.0000
  H   H1180     1.0  0.53161  0.23695  0.12387  1.0000
  H   H1181     1.0  0.63097  0.25925  0.20241  1.0000
  H   H1182     1.0  0.57107  0.28223  0.26183  1.0000
  H   H1183     1.0  0.68967  0.39732  0.29488  1.0000
  H   H1184     1.0  0.61506  0.04694  0.02492  1.0000
  N   N37       1.0  0.58151  0.03166  0.00537  1.0000
  C   C671      1.0  0.58472  0.28936  0.02651  1.0000
  C   C672      1.0  0.82313  0.48200  0.03164  1.0000
  H   H1185     1.0  0.71496  0.28253  0.29353  1.0000
  H   H1186     1.0  0.55413  0.17404  0.20706  1.0000
  C   C673      1.0  0.77563  0.42177  0.06274  1.0000
  H   H1187     1.0  0.93727  0.39659  0.02637  1.0000
  C   C674      1.0  0.72625  0.21097  0.00782  1.0000
  N   N38       1.0  0.79544  0.46196  0.03972  1.0000
  C   C675      1.0  0.77701  0.44292  0.02523  1.0000
  C   C676      1.0  0.78229  0.47965  0.04737  1.0000
  C   C677      1.0  0.59870  0.44664  0.00947  1.0000
  H   H1188     1.0  0.68882  0.49947  0.12535  1.0000
  C   C678      1.0  0.59292  0.37416  0.01459  1.0000
  H   H1189     1.0  0.82792  0.49495  0.17639  1.0000
  H   H1190     1.0  0.75573  0.42844  0.03002  1.0000
  C   C679      1.0  0.66386  0.07775  0.00726  1.0000
  C   C680      1.0  0.80147  0.44554  0.05381  1.0000
  H   H1191     1.0  0.70302  0.42645  0.31034  1.0000
  H   H1192     1.0  0.70415  0.31587  0.31166  1.0000
  C   C681      1.0  0.53860  0.04810  0.04143  1.0000
  H   H1193     1.0  0.92816  0.44923  0.01910  1.0000
  C   C682      1.0  0.54487  0.22237  0.17648  1.0000
  H   H1194     1.0  0.63409  0.21042  0.22317  1.0000
  H   H1195     1.0  0.96342  0.42977  0.01943  1.0000
  H   H1196     1.0  0.66277  0.22501  0.19556  1.0000
  N   N39       1.0  0.68184  0.25926  0.10263  1.0000
  C   C683      1.0  0.65427  0.23329  0.09903  1.0000
  C   C684      1.0  0.68895  0.26024  0.12186  1.0000
  C   C685      1.0  0.67733  0.28498  0.09891  1.0000
  C   C686      1.0  0.70589  0.26063  0.09152  1.0000
  C   C687      1.0  0.70558  0.23212  0.08622  1.0000
  C   C688      1.0  0.64073  0.23185  0.08075  1.0000
  C   C689      1.0  0.70241  0.31411  0.10359  1.0000
  C   C690      1.0  0.69323  0.23520  0.12914  1.0000
  C   C691      1.0  0.69551  0.23666  0.14911  1.0000
  C   C692      1.0  0.73339  0.23711  0.07771  1.0000
  C   C693      1.0  0.61745  0.20210  0.07662  1.0000
  C   C694      1.0  0.69797  0.33858  0.09619  1.0000
  H   H1197     1.0  0.63832  0.23178  0.10892  1.0000
  H   H1198     1.0  0.65651  0.21361  0.10063  1.0000
  H   H1199     1.0  0.70885  0.27928  0.12499  1.0000
  H   H1200     1.0  0.67251  0.26242  0.12976  1.0000
  H   H1201     1.0  0.65847  0.28359  0.10605  1.0000
  H   H1202     1.0  0.67278  0.28579  0.08475  1.0000
  H   H1203     1.0  0.70690  0.27167  0.07898  1.0000
  H   H1204     1.0  0.72650  0.27391  0.09820  1.0000
  H   H1205     1.0  0.68845  0.22057  0.07655  1.0000
  H   H1206     1.0  0.70220  0.21805  0.09750  1.0000
  H   H1207     1.0  0.63089  0.24645  0.08046  1.0000
  H   H1208     1.0  0.65670  0.23811  0.07027  1.0000
  H   H1209     1.0  0.72261  0.31585  0.09846  1.0000
  H   H1210     1.0  0.70443  0.31714  0.11798  1.0000
  H   H1211     1.0  0.67550  0.21442  0.12568  1.0000
  H   H1212     1.0  0.71325  0.23626  0.12414  1.0000
  H   H1213     1.0  0.69911  0.21882  0.15398  1.0000
  H   H1214     1.0  0.71344  0.25679  0.15352  1.0000
  H   H1215     1.0  0.67572  0.23503  0.15491  1.0000
  H   H1216     1.0  0.75125  0.24737  0.08716  1.0000
  H   H1217     1.0  0.73239  0.21658  0.07343  1.0000
  H   H1218     1.0  0.73751  0.25081  0.06606  1.0000
  H   H1219     1.0  0.60759  0.20189  0.06372  1.0000
  H   H1220     1.0  0.62621  0.18661  0.07603  1.0000
  H   H1221     1.0  0.60076  0.19533  0.08671  1.0000
  H   H1222     1.0  0.71589  0.35897  0.10028  1.0000
  H   H1223     1.0  0.69706  0.33754  0.08167  1.0000
  H   H1224     1.0  0.67819  0.33806  0.10126  1.0000
  H   H1225     1.0  0.96856  0.35648  0.11572  1.0000
  H   H1226     1.0  0.60214  0.40621  0.04237  1.0000
  N   N40       1.0  0.58404  0.36289  0.03279  1.0000
  C   C695      1.0  0.51410  0.25037  0.06450  1.0000
  C   C696      1.0  0.55394  0.35765  0.03543  1.0000
  H   H1227     1.0  0.80061  0.41718  0.08425  1.0000
  C   C697      1.0  0.58745  0.33651  0.03638  1.0000
  C   C698      1.0  0.74963  0.46601  0.04806  1.0000
  H   H1228     1.0  0.60507  0.29435  0.03322  1.0000
  H   H1229     1.0  0.71149  0.36039  0.31546  1.0000
  H   H1230     1.0  0.55267  0.20563  0.02723  1.0000
  H   H1231     1.0  0.56708  0.27740  0.03551  1.0000
  H   H1232     1.0  0.57858  0.07244  0.02951  1.0000
  H   H1233     1.0  0.57538  0.19122  0.01902  1.0000
  H   H1234     1.0  0.91816  0.44688  0.05003  1.0000
  C   C699      1.0  0.86639  0.44385  0.00437  1.0000
  Fe  Fe78      1.0  0.51608  0.12578  0.05644  1.0000
  H   H1235     1.0  0.54664  0.34936  0.04873  1.0000
  H   H1236     1.0  0.55266  0.37809  0.03463  1.0000
  C   C700      1.0  0.55813  0.05447  0.02571  1.0000
  C   C701      1.0  0.57303  0.23569  0.20500  1.0000
  H   H1237     1.0  0.63437  0.37401  0.01686  1.0000
  H   H1238     1.0  0.57253  0.32376  0.04672  1.0000
  H   H1239     1.0  0.50076  0.49391  0.00398  1.0000
  C   C702      1.0  0.53709  0.10888  0.01631  1.0000
  H   H1240     1.0  0.63587  0.40868  0.01675  1.0000
  C   C703      1.0  0.57122  0.22458  0.18595  1.0000
  H   H1241     1.0  0.76815  0.42722  0.10704  1.0000
  H   H1242     1.0  0.57395  0.38139  0.06773  1.0000
  H   H1243     1.0  0.75661  0.30207  0.00532  1.0000
  H   H1244     1.0  0.51401  0.17263  0.00719  1.0000
  H   H1245     1.0  0.53855  0.23903  0.08319  1.0000
  H   H1246     1.0  0.55926  0.26497  0.06736  1.0000
  Fe  Fe79      1.0  0.67183  0.48465  0.07380  1.0000
  H   H1247     1.0  0.77491  0.40193  0.32394  1.0000
  H   H1248     1.0  0.51585  0.26909  0.07201  1.0000
  S   S156      1.0  0.69296  0.18070  0.00584  1.0000
  C   C704      1.0  0.92941  0.43501  0.04509  1.0000
  H   H1249     1.0  0.79337  0.41118  0.02516  1.0000
  H   H1250     1.0  0.80743  0.43724  0.00811  1.0000
  H   H1251     1.0  0.73394  0.32256  0.32556  1.0000
  H   H1252     1.0  0.56806  0.01995  0.03195  1.0000
  S   S157      1.0  0.50330  0.18365  0.10544  1.0000
  C   C705      1.0  0.73986  0.48470  0.05834  1.0000
  H   H1253     1.0  0.50608  0.20435  0.02916  1.0000
  H   H1254     1.0  0.51750  0.03040  0.03845  1.0000
  H   H1255     1.0  0.53695  0.34108  0.00893  1.0000
  H   H1256     1.0  0.78837  0.49935  0.03965  1.0000
  H   H1257     1.0  0.63949  0.15883  0.66419  1.0000
  S   S158      1.0  0.55623  0.39841  0.53915  1.0000
  H   H1258     1.0  0.61300  0.34131  0.56880  1.0000
  Fe  Fe80      1.0  0.66723  0.15919  0.57604  1.0000
  S   S159      1.0  0.69389  0.14594  0.55922  1.0000
  S   S160      1.0  0.68214  0.17836  0.60298  1.0000
  Fe  Fe81      1.0  0.62601  0.15090  0.54643  1.0000
  S   S161      1.0  0.64974  0.13775  0.52714  1.0000
  S   S162      1.0  0.58902  0.15912  0.54015  1.0000
  Fe  Fe82      1.0  0.65193  0.11089  0.54953  1.0000
  S   S163      1.0  0.64398  0.06493  0.54430  1.0000
  Fe  Fe83      1.0  0.68905  0.17349  0.53832  1.0000
  S   S164      1.0  0.72128  0.21421  0.52560  1.0000
  S   S165      1.0  0.62600  0.12249  0.56807  1.0000
  S   S166      1.0  0.66456  0.18813  0.55603  1.0000
  H   H1259     1.0  0.69991  0.27193  0.37761  1.0000
  S   S167      1.0  0.53252  0.09432  0.47037  1.0000
  Fe  Fe84      1.0  0.63908  0.27627  0.36365  1.0000
  S   S168      1.0  0.61607  0.23032  0.37253  1.0000
  Fe  Fe85      1.0  0.70035  0.32160  0.36142  1.0000
  S   S169      1.0  0.74514  0.32717  0.36453  1.0000
  Fe  Fe86      1.0  0.65422  0.33832  0.37094  1.0000
  S   S170      1.0  0.63910  0.36003  0.39134  1.0000
  S   S171      1.0  0.66866  0.30822  0.38286  1.0000
  S   S172      1.0  0.64047  0.46690  0.45658  1.0000
  Fe  Fe87      1.0  0.60326  0.47574  0.45744  1.0000
  S   S173      1.0  0.55997  0.44073  0.46190  1.0000
  H   H1260     1.0  0.99107  0.29008  0.52440  1.0000
  S   S174      1.0  0.65839  0.32783  0.63476  1.0000
  S   S175      1.0  0.61133  0.36332  0.64118  1.0000
  S   S176      1.0  0.73788  0.36709  0.64257  1.0000
  S   S177      1.0  0.62072  0.24619  0.63570  1.0000
  H   H1261     1.0  0.97836  0.32710  0.51178  1.0000
  S   S178      1.0  0.80000  0.41300  0.53487  1.0000
  H   H1262     1.0  0.57893  0.40389  0.41901  1.0000
  Fe  Fe88      1.0  0.84625  0.30406  0.46328  1.0000
  S   S179      1.0  0.83354  0.33676  0.47250  1.0000
  S   S180      1.0  0.81663  0.25720  0.46718  1.0000
  Fe  Fe89      1.0  0.90181  0.34952  0.44740  1.0000
  S   S181      1.0  0.89142  0.38461  0.45498  1.0000
  S   S182      1.0  0.94420  0.35985  0.43454  1.0000
  Fe  Fe90      1.0  0.87884  0.36172  0.48043  1.0000
  S   S183      1.0  0.89551  0.38685  0.50522  1.0000
  Fe  Fe91      1.0  0.84696  0.35601  0.44603  1.0000
  S   S184      1.0  0.81675  0.37165  0.43493  1.0000
  S   S185      1.0  0.89101  0.32767  0.47341  1.0000
  S   S186      1.0  0.85792  0.32217  0.43615  1.0000
  C   C706      1.0  0.97740  0.38823  0.44087  1.0000
  C   C707      1.0  0.53175  0.48765  0.48444  1.0000
  H   H1263     1.0  0.60564  0.19159  0.65600  1.0000
  C   C708      1.0  0.87432  0.45867  0.48054  1.0000
  H   H1264     1.0  0.96085  0.40605  0.46033  1.0000
  C   C709      1.0  0.86921  0.39233  0.51567  1.0000
  C   C710      1.0  0.84111  0.37156  0.51508  1.0000
  C   C711      1.0  0.81987  0.37743  0.52193  1.0000
  C   C712      1.0  0.82675  0.40423  0.52895  1.0000
  C   C713      1.0  0.85495  0.42448  0.53031  1.0000
  C   C714      1.0  0.87618  0.41841  0.52380  1.0000
  H   H1265     1.0  0.83575  0.35106  0.50931  1.0000
  H   H1266     1.0  0.79808  0.36156  0.52127  1.0000
  H   H1267     1.0  0.86042  0.44501  0.53609  1.0000
  H   H1268     1.0  0.89788  0.43427  0.52450  1.0000
  C   C715      1.0  0.75088  0.39907  0.63070  1.0000
  C   C716      1.0  0.76937  0.40317  0.61673  1.0000
  C   C717      1.0  0.78090  0.42876  0.60741  1.0000
  C   C718      1.0  0.77466  0.45081  0.61230  1.0000
  C   C719      1.0  0.75645  0.44683  0.62640  1.0000
  C   C720      1.0  0.74441  0.42100  0.63547  1.0000
  H   H1269     1.0  0.77484  0.38649  0.61314  1.0000
  H   H1270     1.0  0.79506  0.43162  0.59668  1.0000
  H   H1271     1.0  0.75197  0.46397  0.63048  1.0000
  C   C721      1.0  0.76387  0.33817  0.38461  1.0000
  C   C722      1.0  0.75471  0.34984  0.39814  1.0000
  C   C723      1.0  0.77096  0.35968  0.41359  1.0000
  C   C724      1.0  0.79611  0.35734  0.41581  1.0000
  C   C725      1.0  0.80491  0.34506  0.40247  1.0000
  C   C726      1.0  0.78896  0.33574  0.38688  1.0000
  H   H1272     1.0  0.73548  0.35191  0.39649  1.0000
  H   H1273     1.0  0.76413  0.36937  0.42379  1.0000
  H   H1274     1.0  0.82441  0.34347  0.40397  1.0000
  H   H1275     1.0  0.79623  0.32682  0.37645  1.0000
  C   C727      1.0  0.65052  0.39619  0.39682  1.0000
  C   C728      1.0  0.63611  0.40277  0.41003  1.0000
  C   C729      1.0  0.64409  0.43103  0.41498  1.0000
  C   C730      1.0  0.66677  0.45317  0.40686  1.0000
  C   C731      1.0  0.68142  0.44664  0.39373  1.0000
  C   C732      1.0  0.67331  0.41826  0.38869  1.0000
  H   H1276     1.0  0.61840  0.38586  0.41632  1.0000
  H   H1277     1.0  0.63225  0.43564  0.42482  1.0000
  H   H1278     1.0  0.69894  0.46361  0.38733  1.0000
  H   H1279     1.0  0.68456  0.41348  0.37849  1.0000
  C   C733      1.0  0.53442  0.19196  0.40478  1.0000
  C   C734      1.0  0.54809  0.17570  0.40017  1.0000
  C   C735      1.0  0.57313  0.18778  0.39038  1.0000
  C   C736      1.0  0.58472  0.21619  0.38505  1.0000
  C   C737      1.0  0.57120  0.23252  0.38981  1.0000
  C   C738      1.0  0.54610  0.22038  0.39952  1.0000
  H   H1280     1.0  0.53898  0.15364  0.40378  1.0000
  H   H1281     1.0  0.58335  0.17493  0.38668  1.0000
  H   H1282     1.0  0.57982  0.25436  0.38576  1.0000
  H   H1283     1.0  0.53549  0.23301  0.40280  1.0000
  C   C739      1.0  0.61657  0.03135  0.55083  1.0000
  C   C740      1.0  0.59568  0.02887  0.56274  1.0000
  H   H1284     1.0  0.64141  0.41322  0.62448  1.0000
  H   H1285     1.0  0.59510  0.04775  0.56776  1.0000
  C   C741      1.0  0.52904  0.35551  0.44728  1.0000
  C   C742      1.0  0.74811  0.22508  0.50960  1.0000
  C   C743      1.0  0.76498  0.25427  0.50729  1.0000
  C   C744      1.0  0.78638  0.26431  0.49467  1.0000
  C   C745      1.0  0.79097  0.24527  0.48398  1.0000
  C   C746      1.0  0.77416  0.21605  0.48631  1.0000
  C   C747      1.0  0.75284  0.20594  0.49908  1.0000
  H   H1286     1.0  0.76157  0.26926  0.51537  1.0000
  H   H1287     1.0  0.79921  0.28680  0.49318  1.0000
  H   H1288     1.0  0.77763  0.20113  0.47818  1.0000
  H   H1289     1.0  0.74003  0.18343  0.50072  1.0000
  C   C748      1.0  0.66592  0.19857  0.61129  1.0000
  C   C749      1.0  0.67924  0.21864  0.62467  1.0000
  C   C750      1.0  0.66608  0.23415  0.63189  1.0000
  C   C751      1.0  0.63923  0.22920  0.62601  1.0000
  C   C752      1.0  0.62590  0.20902  0.61271  1.0000
  C   C753      1.0  0.63936  0.19410  0.60518  1.0000
  H   H1290     1.0  0.69973  0.22208  0.62953  1.0000
  H   H1291     1.0  0.67637  0.24936  0.64231  1.0000
  H   H1292     1.0  0.60496  0.20466  0.60831  1.0000
  H   H1293     1.0  0.62880  0.17848  0.59499  1.0000
  C   C754      1.0  0.57124  0.13933  0.52166  1.0000
  C   C755      1.0  0.55050  0.14451  0.51335  1.0000
  C   C756      1.0  0.53778  0.13000  0.49782  1.0000
  C   C757      1.0  0.54634  0.11093  0.49041  1.0000
  C   C758      1.0  0.56656  0.10533  0.49893  1.0000
  C   C759      1.0  0.57850  0.11905  0.51474  1.0000
  H   H1294     1.0  0.54445  0.15983  0.51885  1.0000
  H   H1295     1.0  0.52159  0.13383  0.49156  1.0000
  H   H1296     1.0  0.57301  0.09035  0.49336  1.0000
  H   H1297     1.0  0.59318  0.11373  0.52159  1.0000
  C   C760      1.0  0.55694  0.41099  0.51793  1.0000
  C   C761      1.0  0.53207  0.40282  0.50823  1.0000
  C   C762      1.0  0.53294  0.41204  0.49100  1.0000
  C   C763      1.0  0.55884  0.42949  0.48346  1.0000
  C   C764      1.0  0.58376  0.43797  0.49323  1.0000
  C   C765      1.0  0.58280  0.42886  0.51048  1.0000
  H   H1298     1.0  0.63274  0.00787  0.53531  1.0000
  H   H1299     1.0  0.51361  0.40564  0.48354  1.0000
  H   H1300     1.0  0.60391  0.45110  0.48745  1.0000
  H   H1301     1.0  0.60215  0.43507  0.51787  1.0000
  C   C766      1.0  0.53117  0.31302  0.60809  1.0000
  C   C767      1.0  0.54721  0.34218  0.60584  1.0000
  C   C768      1.0  0.57161  0.35737  0.61615  1.0000
  C   C769      1.0  0.58077  0.34340  0.62831  1.0000
  C   C770      1.0  0.56506  0.31413  0.63030  1.0000
  C   C771      1.0  0.54004  0.29916  0.62051  1.0000
  H   H1302     1.0  0.54041  0.35311  0.59645  1.0000
  H   H1303     1.0  0.58331  0.38005  0.61477  1.0000
  H   H1304     1.0  0.57172  0.30319  0.63976  1.0000
  H   H1305     1.0  0.92662  0.30591  0.45280  1.0000
  H   H1306     1.0  0.52955  0.48852  0.47002  1.0000
  Fe  Fe92      1.0  0.63510  0.34162  0.65368  1.0000
  Fe  Fe93      1.0  0.64272  0.28813  0.65029  1.0000
  H   H1307     1.0  0.69614  0.35001  0.58583  1.0000
  H   H1308     1.0  0.56726  0.35862  0.43380  1.0000
  H   H1309     1.0  0.74180  0.27744  0.39396  1.0000
  C   C772      1.0  0.64245  0.40659  0.59136  1.0000
  C   C773      1.0  0.62658  0.42433  0.58727  1.0000
  C   C774      1.0  0.67822  0.37857  0.59216  1.0000
  C   C775      1.0  0.70054  0.36821  0.59473  1.0000
  C   C776      1.0  0.60166  0.40829  0.57485  1.0000
  H   H1310     1.0  0.62734  0.38697  0.59806  1.0000
  H   H1311     1.0  0.64653  0.39922  0.57861  1.0000
  H   H1312     1.0  0.68418  0.43126  0.56643  1.0000
  H   H1313     1.0  0.61796  0.42892  0.59941  1.0000
  H   H1314     1.0  0.64063  0.44458  0.58096  1.0000
  H   H1315     1.0  0.65708  0.36001  0.59286  1.0000
  H   H1316     1.0  0.72179  0.38545  0.59176  1.0000
  H   H1317     1.0  0.58686  0.38756  0.58040  1.0000
  H   H1318     1.0  0.58995  0.42090  0.57272  1.0000
  H   H1319     1.0  0.60907  0.40464  0.56195  1.0000
  N   N41       1.0  0.74227  0.25464  0.42823  1.0000
  C   C777      1.0  0.71986  0.24510  0.41403  1.0000
  C   C778      1.0  0.73952  0.22871  0.43793  1.0000
  C   C779      1.0  0.73804  0.27506  0.44023  1.0000
  C   C780      1.0  0.77149  0.26945  0.42073  1.0000
  C   C781      1.0  0.77852  0.25261  0.40654  1.0000
  C   C782      1.0  0.75892  0.28634  0.45596  1.0000
  C   C783      1.0  0.71420  0.21536  0.45059  1.0000
  C   C784      1.0  0.70955  0.18609  0.45658  1.0000
  C   C785      1.0  0.80869  0.26946  0.40009  1.0000
  C   C786      1.0  0.74719  0.29766  0.47055  1.0000
  H   H1320     1.0  0.69852  0.23629  0.41988  1.0000
  H   H1321     1.0  0.71996  0.22727  0.40627  1.0000
  H   H1322     1.0  0.73770  0.21186  0.42847  1.0000
  H   H1323     1.0  0.75904  0.23321  0.44561  1.0000
  H   H1324     1.0  0.71598  0.26556  0.44506  1.0000
  H   H1325     1.0  0.74063  0.29425  0.43299  1.0000
  H   H1326     1.0  0.77536  0.29029  0.41525  1.0000
  H   H1327     1.0  0.78768  0.27464  0.43132  1.0000
  H   H1328     1.0  0.76425  0.24783  0.39501  1.0000
  H   H1329     1.0  0.77663  0.23238  0.41185  1.0000
  H   H1330     1.0  0.77914  0.30384  0.45154  1.0000
  H   H1331     1.0  0.76376  0.26990  0.46167  1.0000
  H   H1332     1.0  0.71820  0.22890  0.46246  1.0000
  H   H1333     1.0  0.69434  0.21292  0.44433  1.0000
  H   H1334     1.0  0.69281  0.17804  0.46663  1.0000
  H   H1335     1.0  0.70290  0.17094  0.44537  1.0000
  H   H1336     1.0  0.72917  0.18714  0.46243  1.0000
  H   H1337     1.0  0.81300  0.25729  0.38965  1.0000
  H   H1338     1.0  0.81180  0.29006  0.39462  1.0000
  H   H1339     1.0  0.82401  0.27335  0.41096  1.0000
  H   H1340     1.0  0.72818  0.28017  0.47626  1.0000
  H   H1341     1.0  0.76332  0.30708  0.48110  1.0000
  H   H1342     1.0  0.74163  0.31412  0.46545  1.0000
  N   N42       1.0  0.70389  0.43216  0.46434  1.0000
  C   C787      1.0  0.71637  0.41897  0.45166  1.0000
  C   C788      1.0  0.71620  0.43405  0.48253  1.0000
  C   C789      1.0  0.67248  0.41290  0.46505  1.0000
  C   C790      1.0  0.70778  0.46079  0.45832  1.0000
  H   H1343     1.0  0.53775  0.21357  0.64212  1.0000
  C   C791      1.0  0.70486  0.41475  0.43258  1.0000
  C   C792      1.0  0.65647  0.41784  0.48064  1.0000
  C   C793      1.0  0.74759  0.44018  0.48405  1.0000
  C   C794      1.0  0.75784  0.44570  0.50309  1.0000
  H   H1344     1.0  0.69707  0.05811  0.54204  1.0000
  C   C795      1.0  0.71885  0.40098  0.42113  1.0000
  C   C796      1.0  0.62469  0.39979  0.47855  1.0000
  H   H1345     1.0  0.71291  0.39786  0.45656  1.0000
  H   H1346     1.0  0.73957  0.43151  0.45082  1.0000
  H   H1347     1.0  0.71315  0.45010  0.49060  1.0000
  H   H1348     1.0  0.70475  0.41348  0.48936  1.0000
  H   H1349     1.0  0.66831  0.39030  0.46563  1.0000
  H   H1350     1.0  0.66182  0.41476  0.45284  1.0000
  H   H1351     1.0  0.69596  0.45877  0.44586  1.0000
  H   H1352     1.0  0.69821  0.46991  0.46778  1.0000
  H   H1353     1.0  0.96559  0.41237  0.50250  1.0000
  H   H1354     1.0  0.52229  0.23818  0.59966  1.0000
  H   H1355     1.0  0.68182  0.40072  0.43205  1.0000
  H   H1356     1.0  0.70911  0.43534  0.42662  1.0000
  H   H1357     1.0  0.66075  0.44024  0.48178  1.0000
  H   H1358     1.0  0.66269  0.41188  0.49324  1.0000
  H   H1359     1.0  0.74994  0.42146  0.47937  1.0000
  H   H1360     1.0  0.65304  0.43022  0.65535  1.0000
  H   H1361     1.0  0.75764  0.46532  0.50809  1.0000
  H   H1362     1.0  0.74434  0.42768  0.51150  1.0000
  H   H1363     1.0  0.77976  0.44845  0.50414  1.0000
  H   H1364     1.0  0.96496  0.35930  0.51900  1.0000
  C   C797      1.0  0.75170  0.08130  0.61984  1.0000
  H   H1365     1.0  0.98656  0.41256  0.52138  1.0000
  H   H1366     1.0  0.71004  0.39797  0.40762  1.0000
  H   H1367     1.0  0.74198  0.41459  0.42052  1.0000
  H   H1368     1.0  0.71465  0.37985  0.42625  1.0000
  H   H1369     1.0  0.61382  0.40286  0.49012  1.0000
  H   H1370     1.0  0.61675  0.40606  0.46671  1.0000
  H   H1371     1.0  0.61954  0.37705  0.47746  1.0000
  H   H1372     1.0  0.52566  0.43990  0.53889  1.0000
  C   C798      1.0  0.62343  0.16261  0.65683  1.0000
  H   H1373     1.0  0.60278  0.14338  0.65727  1.0000
  H   H1374     1.0  0.55505  0.24679  0.55491  1.0000
  C   C799      1.0  0.70774  0.07785  0.56798  1.0000
  H   H1375     1.0  0.90952  0.46871  0.59281  1.0000
  C   C800      1.0  0.78373  0.36960  0.48043  1.0000
  H   H1376     1.0  0.57358  0.38685  0.44914  1.0000
  H   H1377     1.0  0.76162  0.45859  0.47626  1.0000
  H   H1378     1.0  0.95041  0.32108  0.48724  1.0000
  H   H1379     1.0  0.92532  0.49044  0.62262  1.0000
  H   H1380     1.0  0.99376  0.39262  0.48580  1.0000
  H   H1381     1.0  0.83806  0.41198  0.49105  1.0000
  H   H1382     1.0  0.69753  0.07347  0.62087  1.0000
  H   H1383     1.0  0.88186  0.42108  0.47980  1.0000
  H   H1384     1.0  0.52363  0.41967  0.56764  1.0000
  C   C801      1.0  0.72133  0.47080  0.56753  1.0000
  H   H1385     1.0  0.82432  0.37799  0.34349  1.0000
  H   H1386     1.0  0.85042  0.50010  0.46469  1.0000
  H   H1387     1.0  0.94303  0.46353  0.53602  1.0000
  H   H1388     1.0  0.51214  0.38981  0.51408  1.0000
  H   H1389     1.0  0.81004  0.49464  0.63837  1.0000
  H   H1390     1.0  0.56970  0.36672  0.50872  1.0000
  H   H1391     1.0  0.69976  0.23809  0.37965  1.0000
  H   H1392     1.0  0.62879  0.22821  0.55441  1.0000
  C   C802      1.0  0.63026  0.09064  0.60816  1.0000
  H   H1393     1.0  0.76752  0.07300  0.62057  1.0000
  S   S187      1.0  0.79001  0.48396  0.60163  1.0000
  H   H1394     1.0  0.94865  0.39518  0.52238  1.0000
  H   H1395     1.0  0.72982  0.09008  0.54331  1.0000
  H   H1396     1.0  0.89764  0.44326  0.61026  1.0000
  C   C803      1.0  0.66219  0.02678  0.60411  1.0000
  S   S188      1.0  0.79000  0.47530  0.55176  1.0000
  C   C804      1.0  0.59455  0.23504  0.56508  1.0000
  S   S189      1.0  0.67205  0.28736  0.34272  1.0000
  C   C805      1.0  0.79724  0.40187  0.48097  1.0000
  H   H1397     1.0  0.63314  0.05376  0.61690  1.0000
  C   C806      1.0  0.92160  0.45769  0.48344  1.0000
  C   C807      1.0  0.54120  0.23728  0.56626  1.0000
  C   C808      1.0  0.53214  0.27722  0.42928  1.0000
  C   C809      1.0  0.64676  0.48775  0.54364  1.0000
  H   H1398     1.0  0.74010  0.48282  0.57605  1.0000
  H   H1399     1.0  0.54384  0.37763  0.41329  1.0000
  C   C810      1.0  0.96905  0.31711  0.46267  1.0000
  C   C811      1.0  0.97969  0.40764  0.45406  1.0000
  C   C812      1.0  0.52231  0.29898  0.43512  1.0000
  C   C813      1.0  0.96741  0.33518  0.47834  1.0000
  H   H1400     1.0  0.65875  0.02919  0.61824  1.0000
  C   C814      1.0  0.57581  0.00187  0.56852  1.0000
  H   H1401     1.0  0.83751  0.46859  0.42120  1.0000
  H   H1402     1.0  0.56969  0.04301  0.51283  1.0000
  H   H1403     1.0  0.79487  0.36149  0.48935  1.0000
  H   H1404     1.0  0.55908  0.32218  0.45162  1.0000
  H   H1405     1.0  0.97939  0.33118  0.45144  1.0000
  H   H1406     1.0  0.52830  0.31518  0.42475  1.0000
  S   S190      1.0  0.84261  0.46901  0.57103  1.0000
  C   C815      1.0  0.55741  0.39101  0.42415  1.0000
  H   H1407     1.0  0.65930  0.48154  0.55278  1.0000
  N   N43       1.0  0.55782  0.24444  0.58324  1.0000
  H   H1408     1.0  0.92889  0.27994  0.46713  1.0000
  H   H1409     1.0  0.76201  0.10288  0.61420  1.0000
  H   H1410     1.0  0.94641  0.36068  0.49951  1.0000
  H   H1411     1.0  0.74468  0.08261  0.63333  1.0000
  H   H1412     1.0  0.52529  0.04513  0.50697  1.0000
  H   H1413     1.0  0.88866  0.47690  0.62885  1.0000
  C   C816      1.0  0.89557  0.46139  0.60439  1.0000
  H   H1414     1.0  0.87332  0.45387  0.60005  1.0000
  H   H1415     1.0  0.54808  0.48050  0.48717  1.0000
  C   C817      1.0  0.80773  0.38495  0.34124  1.0000
  S   S191      1.0  0.52037  0.31793  0.54895  1.0000
  H   H1416     1.0  0.57924  0.21932  0.55574  1.0000
  H   H1417     1.0  0.64439  0.06109  0.58413  1.0000
  C   C818      1.0  0.57998  0.23386  0.58282  1.0000
  H   H1418     1.0  0.60286  0.25615  0.55904  1.0000
  N   N44       1.0  0.73873  0.29228  0.57406  1.0000
  C   C819      1.0  0.76737  0.31746  0.57611  1.0000
  C   C820      1.0  0.74158  0.26564  0.57749  1.0000
  C   C821      1.0  0.72797  0.29239  0.55573  1.0000
  C   C822      1.0  0.71791  0.29371  0.58685  1.0000
  C   C823      1.0  0.72636  0.29570  0.60647  1.0000
  C   C824      1.0  0.76770  0.34698  0.57610  1.0000
  C   C825      1.0  0.70109  0.26548  0.55007  1.0000
  C   C826      1.0  0.76037  0.25926  0.56453  1.0000
  H   H1419     1.0  0.83249  0.43252  0.41862  1.0000
  C   C827      1.0  0.79785  0.37084  0.57694  1.0000
  C   C828      1.0  0.69235  0.26785  0.53131  1.0000
  H   H1420     1.0  0.78143  0.31758  0.56532  1.0000
  H   H1421     1.0  0.77819  0.31585  0.58827  1.0000
  H   H1422     1.0  0.75096  0.26664  0.59069  1.0000
  H   H1423     1.0  0.72043  0.24688  0.57797  1.0000
  H   H1424     1.0  0.74462  0.29599  0.54591  1.0000
  H   H1425     1.0  0.72293  0.31049  0.55412  1.0000
  H   H1426     1.0  0.71319  0.31165  0.58373  1.0000
  H   H1427     1.0  0.69728  0.27444  0.58565  1.0000
  H   H1428     1.0  0.74789  0.31279  0.60910  1.0000
  H   H1429     1.0  0.72539  0.27533  0.61087  1.0000
  H   H1430     1.0  0.75772  0.35003  0.56405  1.0000
  H   H1431     1.0  0.75636  0.34958  0.58758  1.0000
  H   H1432     1.0  0.68310  0.26194  0.55864  1.0000
  H   H1433     1.0  0.70479  0.24654  0.55053  1.0000
  H   H1434     1.0  0.75395  0.25951  0.55075  1.0000
  H   H1435     1.0  0.78277  0.27519  0.56606  1.0000
  N   N45       1.0  0.99439  0.35236  0.48862  1.0000
  H   H1436     1.0  0.81002  0.36985  0.56540  1.0000
  H   H1437     1.0  0.79741  0.39163  0.57682  1.0000
  H   H1438     1.0  0.80869  0.36954  0.58913  1.0000
  H   H1439     1.0  0.70909  0.26956  0.52205  1.0000
  H   H1440     1.0  0.67276  0.24849  0.52787  1.0000
  H   H1441     1.0  0.68822  0.28653  0.52994  1.0000
  C   C829      1.0  0.89203  0.44328  0.47528  1.0000
  C   C830      1.0  0.75862  0.23007  0.56788  1.0000
  H   H1442     1.0  0.86177  0.47048  0.44973  1.0000
  H   H1443     1.0  0.82874  0.45870  0.49582  1.0000
  H   H1444     1.0  0.52586  0.25978  0.43888  1.0000
  C   C831      1.0  0.98309  0.49527  0.52653  1.0000
  H   H1445     1.0  0.88661  0.48098  0.47630  1.0000
  H   H1446     1.0  0.66746  0.46643  0.64778  1.0000
  C   C832      1.0  0.72672  0.06161  0.60840  1.0000
  C   C833      1.0  0.52772  0.21358  0.62933  1.0000
  H   H1447     1.0  0.77204  0.22588  0.55836  1.0000
  H   H1448     1.0  0.53057  0.29468  0.46222  1.0000
  H   H1449     1.0  0.52060  0.45293  0.51285  1.0000
  H   H1450     1.0  0.72780  0.05769  0.55215  1.0000
  S   S192      1.0  0.67727  0.48904  0.41288  1.0000
  H   H1451     1.0  0.73657  0.21332  0.56612  1.0000
  H   H1452     1.0  0.52756  0.27669  0.62249  1.0000
  C   C834      1.0  0.64755  0.07458  0.61136  1.0000
  H   H1453     1.0  0.53151  0.21397  0.56381  1.0000
  H   H1454     1.0  0.52266  0.32769  0.49932  1.0000
  H   H1455     1.0  0.52426  0.20645  0.59393  1.0000
  H   H1456     1.0  0.64199  0.20673  0.66328  1.0000
  Fe  Fe94      1.0  0.81493  0.48969  0.57669  1.0000
  H   H1457     1.0  0.57044  0.21104  0.58645  1.0000
  C   C835      1.0  0.71608  0.07035  0.55031  1.0000
  C   C836      1.0  0.83030  0.46221  0.48139  1.0000
  C   C837      1.0  0.55058  0.22960  0.61598  1.0000
  H   H1458     1.0  0.93345  0.44578  0.47968  1.0000
  H   H1459     1.0  0.66385  0.08674  0.62135  1.0000
  H   H1460     1.0  0.54042  0.30947  0.48935  1.0000
  H   H1461     1.0  0.64409  0.11242  0.60360  1.0000
  H   H1462     1.0  0.80827  0.45467  0.44805  1.0000
  H   H1463     1.0  0.79343  0.37846  0.35265  1.0000
  H   H1464     1.0  0.66841  0.04014  0.56912  1.0000
  H   H1465     1.0  0.61336  0.07935  0.59827  1.0000
  H   H1466     1.0  0.69679  0.03583  0.57809  1.0000
  H   H1467     1.0  0.56475  0.21935  0.61554  1.0000
  H   H1468     1.0  0.51482  0.19126  0.62504  1.0000
  H   H1469     1.0  0.55403  0.28215  0.59007  1.0000
  C   C838      1.0  0.57084  0.27569  0.58746  1.0000
  N   N46       1.0  0.60019  0.19196  0.46107  1.0000
  C   C839      1.0  0.57286  0.19395  0.46301  1.0000
  C   C840      1.0  0.59466  0.16357  0.45321  1.0000
  C   C841      1.0  0.61234  0.19377  0.47927  1.0000
  C   C842      1.0  0.62155  0.21607  0.45055  1.0000
  C   C843      1.0  0.61245  0.22022  0.43192  1.0000
  C   C844      1.0  0.57521  0.22209  0.47080  1.0000
  C   C845      1.0  0.63784  0.18695  0.48083  1.0000
  C   C846      1.0  0.57126  0.15088  0.43892  1.0000
  C   C847      1.0  0.57245  0.12607  0.42929  1.0000
  C   C848      1.0  0.63360  0.24854  0.42438  1.0000
  C   C849      1.0  0.54623  0.22155  0.47184  1.0000
  C   C850      1.0  0.65019  0.19285  0.49937  1.0000
  H   H1470     1.0  0.55829  0.17637  0.47141  1.0000
  H   H1471     1.0  0.56158  0.19083  0.45029  1.0000
  H   H1472     1.0  0.61449  0.16451  0.44782  1.0000
  H   H1473     1.0  0.58784  0.14707  0.46355  1.0000
  H   H1474     1.0  0.59579  0.17897  0.48822  1.0000
  H   H1475     1.0  0.61938  0.21529  0.48500  1.0000
  H   H1476     1.0  0.62871  0.23639  0.45791  1.0000
  H   H1477     1.0  0.64093  0.21340  0.44871  1.0000
  H   H1478     1.0  0.59149  0.21999  0.43168  1.0000
  H   H1479     1.0  0.61206  0.20341  0.42301  1.0000
  H   H1480     1.0  0.58409  0.22583  0.48427  1.0000
  H   H1481     1.0  0.58865  0.24026  0.46251  1.0000
  H   H1482     1.0  0.65505  0.19993  0.47185  1.0000
  H   H1483     1.0  0.63127  0.16426  0.47784  1.0000
  H   H1484     1.0  0.55020  0.14290  0.44505  1.0000
  H   H1485     1.0  0.57277  0.16662  0.42913  1.0000
  H   H1486     1.0  0.57078  0.10944  0.43865  1.0000
  H   H1487     1.0  0.55453  0.11663  0.41984  1.0000
  H   H1488     1.0  0.59243  0.13340  0.42192  1.0000
  H   H1489     1.0  0.63419  0.26647  0.43230  1.0000
  H   H1490     1.0  0.65504  0.24985  0.42391  1.0000
  H   H1491     1.0  0.62716  0.25067  0.41083  1.0000
  H   H1492     1.0  0.53603  0.21780  0.45868  1.0000
  H   H1493     1.0  0.53234  0.20465  0.48083  1.0000
  H   H1494     1.0  0.54848  0.24215  0.47697  1.0000
  H   H1495     1.0  0.66770  0.18689  0.50034  1.0000
  H   H1496     1.0  0.65878  0.21569  0.50269  1.0000
  H   H1497     1.0  0.63383  0.18034  0.50903  1.0000
  N   N47       1.0  0.84458  0.44609  0.47321  1.0000
  H   H1498     1.0  0.67688  0.24695  0.39314  1.0000
  C   C851      1.0  0.82967  0.41519  0.47833  1.0000
  C   C852      1.0  0.73850  0.48379  0.45598  1.0000
  C   C853      1.0  0.84622  0.44878  0.45354  1.0000
  C   C854      1.0  0.81824  0.44138  0.44358  1.0000
  C   C855      1.0  0.69803  0.25535  0.38706  1.0000
  H   H1499     1.0  0.56202  0.33266  0.51764  1.0000
  Fe  Fe95      1.0  0.81965  0.45745  0.54535  1.0000
  H   H1500     1.0  0.51862  0.48435  0.51824  1.0000
  C   C856      1.0  0.82320  0.44603  0.42393  1.0000
  H   H1501     1.0  0.62024  0.09232  0.62052  1.0000
  H   H1502     1.0  0.83430  0.40185  0.46881  1.0000
  C   C857      1.0  0.56664  0.34509  0.50540  1.0000
  Fe  Fe96      1.0  0.69392  0.34594  0.65426  1.0000
  H   H1503     1.0  0.60511  0.33248  0.59158  1.0000
  H   H1504     1.0  0.72744  0.09024  0.57553  1.0000
  H   H1505     1.0  0.85448  0.43459  0.44788  1.0000
  H   H1506     1.0  0.61896  0.01761  0.59567  1.0000
  H   H1507     1.0  0.80342  0.41872  0.44519  1.0000
  H   H1508     1.0  0.87391  0.45926  0.49514  1.0000
  H   H1509     1.0  0.89459  0.44334  0.46090  1.0000
  C   C858      1.0  0.53736  0.22911  0.59768  1.0000
  C   C859      1.0  0.59085  0.29609  0.57375  1.0000
  H   H1510     1.0  0.78637  0.40836  0.47093  1.0000
  H   H1511     1.0  0.69752  0.09167  0.56543  1.0000
  H   H1512     1.0  0.76136  0.36083  0.48445  1.0000
  H   H1513     1.0  0.80277  0.44007  0.41706  1.0000
  H   H1514     1.0  0.52577  0.26963  0.56701  1.0000
  H   H1515     1.0  0.98136  0.30554  0.46573  1.0000
  S   S193      1.0  0.62263  0.30538  0.35259  1.0000
  H   H1516     1.0  0.68058  0.38683  0.57874  1.0000
  H   H1517     1.0  0.73087  0.41835  0.64652  1.0000
  H   H1518     1.0  0.59670  0.24525  0.59288  1.0000
  Fe  Fe97      1.0  0.51716  0.35808  0.54456  1.0000
  H   H1519     1.0  0.76601  0.22894  0.58134  1.0000
  S   S194      1.0  0.68853  0.35440  0.35070  1.0000
  H   H1520     1.0  0.68376  0.46361  0.59232  1.0000
  H   H1521     1.0  0.68859  0.42292  0.63816  1.0000
  H   H1522     1.0  0.57749  0.32928  0.57647  1.0000
  C   C860      1.0  0.54211  0.33064  0.49249  1.0000
  H   H1523     1.0  0.61117  0.20565  0.57239  1.0000
  H   H1524     1.0  0.71431  0.43073  0.57749  1.0000
  C   C861      1.0  0.70616  0.30181  0.61778  1.0000
  C   C862      1.0  0.66129  0.07117  0.59420  1.0000
  N   N48       1.0  0.66901  0.42111  0.60234  1.0000
  C   C863      1.0  0.70178  0.44262  0.57579  1.0000
  H   H1525     1.0  0.65602  0.44850  0.61695  1.0000
  Fe  Fe98      1.0  0.65556  0.49913  0.43549  1.0000
  C   C864      1.0  0.72143  0.26806  0.40093  1.0000
  H   H1526     1.0  0.71883  0.28536  0.40765  1.0000
  C   C865      1.0  0.53576  0.31255  0.45303  1.0000
  H   H1527     1.0  0.81728  0.50090  0.49731  1.0000
  C   C866      1.0  0.68058  0.40044  0.60659  1.0000
  H   H1528     1.0  0.70307  0.41223  0.61074  1.0000
  H   H1529     1.0  0.66938  0.38726  0.61805  1.0000
  H   H1530     1.0  0.71105  0.30084  0.63184  1.0000
  C   C867      1.0  0.68340  0.44017  0.63427  1.0000
  H   H1531     1.0  0.74852  0.49140  0.46901  1.0000
  C   C868      1.0  0.59702  0.32666  0.57795  1.0000
  H   H1532     1.0  0.70058  0.36151  0.60843  1.0000
  H   H1533     1.0  0.52218  0.26788  0.41647  1.0000
  H   H1534     1.0  0.54906  0.40569  0.42877  1.0000
  H   H1535     1.0  0.83341  0.48550  0.65095  1.0000
  H   H1536     1.0  0.50744  0.03232  0.46663  1.0000
  H   H1537     1.0  0.68391  0.28626  0.61513  1.0000
  H   H1538     1.0  0.80829  0.45411  0.47668  1.0000
  H   H1539     1.0  0.61126  0.29507  0.57407  1.0000
  C   C869      1.0  0.66105  0.43051  0.61926  1.0000
  C   C870      1.0  0.69117  0.44715  0.59372  1.0000
  H   H1540     1.0  0.70867  0.32334  0.61512  1.0000
  H   H1541     1.0  0.71034  0.45717  0.60222  1.0000
  H   H1542     1.0  0.56287  0.25153  0.62102  1.0000
  C   C871      1.0  0.67236  0.44855  0.65060  1.0000
  H   H1543     1.0  0.51379  0.22395  0.63112  1.0000
  H   H1544     1.0  0.70306  0.45874  0.63036  1.0000
  C   C872      1.0  0.96612  0.37204  0.50731  1.0000
  H   H1545     1.0  0.73512  0.06040  0.59536  1.0000
  H   H1546     1.0  0.51316  0.34562  0.43659  1.0000
  H   H1547     1.0  0.78448  0.36207  0.46695  1.0000
  H   H1548     1.0  0.58333  0.28049  0.59984  1.0000
  C   C873      1.0  0.50643  0.46319  0.51200  1.0000
  N   N49       1.0  0.52681  0.33368  0.46058  1.0000
  N   N50       1.0  0.67873  0.05532  0.59581  1.0000
  C   C874      1.0  0.52905  0.02892  0.49977  1.0000
  C   C875      1.0  0.96694  0.39982  0.51376  1.0000
  H   H1549     1.0  0.58637  0.34628  0.49983  1.0000
  C   C876      1.0  0.93970  0.29532  0.45660  1.0000
  C   C877      1.0  0.51733  0.24648  0.56498  1.0000
  H   H1550     1.0  0.56838  0.35693  0.47188  1.0000
  C   C878      1.0  0.55860  0.37256  0.43913  1.0000
  C   C879      1.0  0.99755  0.33547  0.50355  1.0000
  H   H1551     1.0  0.54378  0.36778  0.47983  1.0000
  H   H1552     1.0  0.58179  0.29124  0.56035  1.0000
  H   H1553     1.0  0.79282  0.40855  0.49394  1.0000
  H   H1554     1.0  0.63528  0.24258  0.57641  1.0000
  C   C880      1.0  0.54602  0.34866  0.47586  1.0000
  H   H1555     1.0  0.67439  0.09294  0.58928  1.0000
  C   C881      1.0  0.70414  0.07256  0.60720  1.0000
  H   H1556     1.0  0.93328  0.47977  0.47875  1.0000
  C   C882      1.0  0.61897  0.22749  0.56730  1.0000
  C   C883      1.0  0.68731  0.05076  0.57774  1.0000
  H   H1557     1.0  0.71462  0.09504  0.60291  1.0000
  H   H1558     1.0  0.75126  0.47600  0.44835  1.0000
  H   H1559     1.0  0.71776  0.04027  0.61431  1.0000
  H   H1560     1.0  0.68862  0.45523  0.66116  1.0000
  H   H1561     1.0  0.95935  0.34939  0.47242  1.0000
  H   H1562     1.0  0.53928  0.03812  0.48720  1.0000
  H   H1563     1.0  0.92039  0.45780  0.49792  1.0000
  H   H1564     1.0  0.52135  0.45245  0.56994  1.0000
  H   H1565     1.0  0.55556  0.00764  0.50386  1.0000
  H   H1566     1.0  0.98256  0.29274  0.49264  1.0000
  H   H1567     1.0  0.81799  0.40840  0.34035  1.0000
  H   H1568     1.0  0.55541  0.28736  0.42770  1.0000
  H   H1569     1.0  0.62611  0.48266  0.54971  1.0000
  H   H1570     1.0  0.52374  0.37168  0.45333  1.0000
  H   H1571     1.0  0.70835  0.48468  0.52870  1.0000
  C   C884      1.0  0.63319  0.00746  0.59549  1.0000
  S   S195      1.0  0.85095  0.49611  0.53161  1.0000
  H   H1572     1.0  0.95494  0.49757  0.54637  1.0000
  H   H1573     1.0  0.94065  0.49197  0.52435  1.0000
  C   C885      1.0  0.95363  0.48668  0.53370  1.0000
  H   H1574     1.0  0.63007  0.16662  0.64295  1.0000
  C   C886      1.0  0.99270  0.37789  0.49637  1.0000
  C   C887      1.0  0.51020  0.43034  0.56493  1.0000
  C   C888      1.0  0.55002  0.02301  0.51069  1.0000
  H   H1575     1.0  0.94155  0.28357  0.44500  1.0000
  H   H1576     1.0  0.72863  0.46646  0.55483  1.0000
  C   C889      1.0  0.90371  0.48526  0.61794  1.0000
  H   H1577     1.0  0.64314  0.47510  0.53140  1.0000
  H   H1578     1.0  0.71011  0.48381  0.56511  1.0000
  C   C890      1.0  0.84473  0.49468  0.47856  1.0000
  H   H1579     1.0  0.54109  0.01451  0.52370  1.0000
  C   C891      1.0  0.50312  0.23945  0.54695  1.0000
  H   H1580     1.0  0.98079  0.48295  0.51430  1.0000
  H   H1581     1.0  0.67449  0.01445  0.60377  1.0000
  S   S196      1.0  0.68106  0.49529  0.49962  1.0000
  H   H1582     1.0  0.99452  0.48891  0.53636  1.0000
  C   C892      1.0  0.61673  0.00635  0.54450  1.0000
  S   S197      1.0  0.50220  0.17752  0.41641  1.0000
  C   C893      1.0  0.50340  0.46721  0.49221  1.0000
  H   H1583     1.0  0.51848  0.25094  0.53655  1.0000
  H   H1584     1.0  0.50067  0.23545  0.57474  1.0000
  C   C894      1.0  0.50476  0.42984  0.54524  1.0000
  C   C895      1.0  0.72471  0.49942  0.52038  1.0000
  C   C896      1.0  0.62099  0.18823  0.66436  1.0000
  H   H1585     1.0  0.84810  0.49347  0.62005  1.0000
  H   H1586     1.0  0.80717  0.50091  0.47467  1.0000
  H   H1587     1.0  0.56468  0.24560  0.66689  1.0000
  H   H1588     1.0  0.63575  0.00236  0.58172  1.0000
  H   H1589     1.0  0.52141  0.09282  0.99045  1.0000
  S   S198      1.0  0.56591  0.40652  0.96376  1.0000
  S   S199      1.0  0.53003  0.32764  0.95313  1.0000
  S   S200      1.0  0.82324  0.46890  0.96023  1.0000
  C   C897      1.0  0.66128  0.45424  0.95892  1.0000
  S   S201      1.0  0.85752  0.42101  0.97135  1.0000
  Fe  Fe99      1.0  0.61374  0.13542  0.96219  1.0000
  S   S202      1.0  0.63498  0.11682  0.97947  1.0000
  S   S203      1.0  0.56816  0.12244  0.96736  1.0000
  Fe  Fe100     1.0  0.66588  0.16846  0.94111  1.0000
  S   S204      1.0  0.69115  0.15097  0.95620  1.0000
  S   S205      1.0  0.68813  0.20620  0.92336  1.0000
  Fe  Fe101     1.0  0.65182  0.10860  0.95442  1.0000
  S   S206      1.0  0.65209  0.06547  0.95163  1.0000
  Fe  Fe102     1.0  0.67193  0.16029  0.97992  1.0000
  C   C898      1.0  0.71159  0.17912  0.88525  1.0000
  S   S207      1.0  0.62869  0.12552  0.93690  1.0000
  S   S208      1.0  0.64851  0.17951  0.96497  1.0000
  H   H1590     1.0  0.54439  0.00693  0.97451  1.0000
  Fe  Fe103     1.0  0.65498  0.32002  0.68599  1.0000
  H   H1591     1.0  0.78363  0.20651  0.83422  1.0000
  S   S209      1.0  0.64541  0.30483  0.71478  1.0000
  H   H1592     1.0  0.70357  0.48496  0.95414  1.0000
  Fe  Fe104     1.0  0.86232  0.46297  0.96202  1.0000
  C   C899      1.0  0.74195  0.19312  0.84555  1.0000
  H   H1593     1.0  0.75847  0.34710  0.93554  1.0000
  Fe  Fe105     1.0  0.64643  0.34170  0.85811  1.0000
  S   S210      1.0  0.66421  0.31952  0.87517  1.0000
  S   S211      1.0  0.62468  0.36434  0.87197  1.0000
  Fe  Fe106     1.0  0.67161  0.33012  0.82447  1.0000
  S   S212      1.0  0.69133  0.30663  0.83951  1.0000
  S   S213      1.0  0.67961  0.34358  0.79537  1.0000
  Fe  Fe107     1.0  0.65039  0.28674  0.85403  1.0000
  S   S214      1.0  0.62848  0.24131  0.86292  1.0000
  Fe  Fe108     1.0  0.70396  0.34120  0.85999  1.0000
  S   S215      1.0  0.74354  0.35399  0.87665  1.0000
  S   S216      1.0  0.62925  0.30723  0.83765  1.0000
  S   S217      1.0  0.68757  0.36640  0.84426  1.0000
  H   H1594     1.0  0.68997  0.17612  0.88826  1.0000
  C   C900      1.0  0.65585  0.31611  0.73705  1.0000
  C   C901      1.0  0.64346  0.29654  0.75065  1.0000
  C   C902      1.0  0.65069  0.30430  0.76845  1.0000
  C   C903      1.0  0.67037  0.33194  0.77303  1.0000
  C   C904      1.0  0.68274  0.35150  0.75944  1.0000
  C   C905      1.0  0.67562  0.34370  0.74164  1.0000
  H   H1595     1.0  0.62817  0.27513  0.74739  1.0000
  H   H1596     1.0  0.64107  0.28889  0.77862  1.0000
  H   H1597     1.0  0.69800  0.37293  0.76270  1.0000
  H   H1598     1.0  0.68541  0.35910  0.73147  1.0000
  C   C906      1.0  0.62219  0.03133  0.95046  1.0000
  C   C907      1.0  0.65272  0.34894  0.91803  1.0000
  H   H1599     1.0  0.54642  0.33821  0.79309  1.0000
  H   H1600     1.0  0.59264  0.04623  0.94206  1.0000
  H   H1601     1.0  0.74368  0.24817  0.93507  1.0000
  C   C908      1.0  0.66916  0.21625  0.90828  1.0000
  C   C909      1.0  0.64322  0.19669  0.90125  1.0000
  C   C910      1.0  0.63051  0.20477  0.88760  1.0000
  C   C911      1.0  0.64356  0.23242  0.88103  1.0000
  C   C912      1.0  0.66890  0.25223  0.88860  1.0000
  C   C913      1.0  0.68164  0.24413  0.90217  1.0000
  H   H1602     1.0  0.63351  0.17510  0.90585  1.0000
  H   H1603     1.0  0.61087  0.18934  0.88181  1.0000
  H   H1604     1.0  0.67924  0.27355  0.88361  1.0000
  H   H1605     1.0  0.70170  0.25932  0.90757  1.0000
  H   H1606     1.0  0.64348  0.25791  0.95661  1.0000
  C   C914      1.0  0.60436  0.33345  0.79586  1.0000
  H   H1607     1.0  0.68736  0.27887  0.70377  1.0000
  H   H1608     1.0  0.71990  0.18085  0.84089  1.0000
  H   H1609     1.0  0.77028  0.40400  0.94336  1.0000
  H   H1610     1.0  0.74205  0.16742  0.89746  1.0000
  H   H1611     1.0  0.75776  0.39117  0.96488  1.0000
  C   C915      1.0  0.78982  0.44232  0.90207  1.0000
  C   C916      1.0  0.79573  0.42028  0.90738  1.0000
  C   C917      1.0  0.78124  0.39323  0.89959  1.0000
  C   C918      1.0  0.76047  0.38790  0.88664  1.0000
  C   C919      1.0  0.75413  0.40977  0.88164  1.0000
  C   C920      1.0  0.76898  0.43692  0.88919  1.0000
  H   H1612     1.0  0.81173  0.42422  0.91730  1.0000
  H   H1613     1.0  0.78634  0.37646  0.90346  1.0000
  H   H1614     1.0  0.73831  0.40596  0.87162  1.0000
  H   H1615     1.0  0.76449  0.45390  0.88487  1.0000
  H   H1616     1.0  0.71305  0.33900  0.92275  1.0000
  H   H1617     1.0  0.65408  0.40036  0.98922  1.0000
  C   C921      1.0  0.58316  0.24972  0.90340  1.0000
  H   H1618     1.0  0.61595  0.34611  0.72998  1.0000
  H   H1619     1.0  0.68085  0.43311  0.80573  1.0000
  H   H1620     1.0  0.74645  0.18143  0.85613  1.0000
  H   H1621     1.0  0.56811  0.22834  0.90803  1.0000
  H   H1622     1.0  0.70571  0.14456  0.90258  1.0000
  C   C922      1.0  0.53734  0.32072  0.89751  1.0000
  C   C923      1.0  0.54308  0.30887  0.88248  1.0000
  C   C924      1.0  0.57009  0.32134  0.87493  1.0000
  C   C925      1.0  0.59140  0.34627  0.88210  1.0000
  C   C926      1.0  0.58568  0.35811  0.89713  1.0000
  C   C927      1.0  0.55891  0.34523  0.90494  1.0000
  H   H1623     1.0  0.52648  0.29001  0.87660  1.0000
  H   H1624     1.0  0.57412  0.31220  0.86323  1.0000
  H   H1625     1.0  0.60190  0.37757  0.90267  1.0000
  H   H1626     1.0  0.55473  0.35476  0.91642  1.0000
  H   H1627     1.0  0.56043  0.30800  0.80334  1.0000
  C   C928      1.0  0.64883  0.39021  0.81139  1.0000
  C   C929      1.0  0.57747  0.27981  0.79613  1.0000
  C   C930      1.0  0.67937  0.41334  0.81158  1.0000
  H   H1628     1.0  0.60977  0.33396  0.80996  1.0000
  H   H1629     1.0  0.64864  0.37119  0.81747  1.0000
  H   H1630     1.0  0.63656  0.39772  0.81978  1.0000
  H   H1631     1.0  0.56979  0.16809  0.93930  1.0000
  H   H1632     1.0  0.55623  0.26150  0.79476  1.0000
  H   H1633     1.0  0.59146  0.27752  0.78618  1.0000
  H   H1634     1.0  0.68733  0.41805  0.82528  1.0000
  H   H1635     1.0  0.69302  0.40621  0.80420  1.0000
  C   C931      1.0  0.63906  0.24370  0.94502  1.0000
  H   H1636     1.0  0.53657  0.21519  0.88170  1.0000
  C   C932      1.0  0.56900  0.42034  0.98497  1.0000
  H   H1637     1.0  0.64845  0.27634  0.92612  1.0000
  C   C933      1.0  0.71913  0.32150  0.92273  1.0000
  C   C934      1.0  0.53601  0.17371  0.96497  1.0000
  H   H1638     1.0  0.54785  0.22090  0.99709  1.0000
  C   C935      1.0  0.63042  0.25573  0.92924  1.0000
  C   C936      1.0  0.77906  0.49684  0.98986  1.0000
  C   C937      1.0  0.75061  0.47630  0.94339  1.0000
  S   S218      1.0  0.87622  0.47650  0.93462  1.0000
  H   H1639     1.0  0.72357  0.41077  0.96340  1.0000
  H   H1640     1.0  0.65848  0.24165  0.94196  1.0000
  S   S219      1.0  0.80706  0.47651  0.91170  1.0000
  N   N51       1.0  0.72868  0.22468  0.86600  1.0000
  C   C938      1.0  0.69823  0.21122  0.85998  1.0000
  C   C939      1.0  0.73158  0.21119  0.88283  1.0000
  C   C940      1.0  0.73742  0.25568  0.86962  1.0000
  C   C941      1.0  0.74801  0.22303  0.85215  1.0000
  C   C942      1.0  0.69106  0.22540  0.84430  1.0000
  C   C943      1.0  0.76648  0.27277  0.87886  1.0000
  C   C944      1.0  0.66154  0.20649  0.83700  1.0000
  C   C945      1.0  0.77205  0.30335  0.88228  1.0000
  H   H1641     1.0  0.68460  0.21129  0.87097  1.0000
  H   H1642     1.0  0.69055  0.18854  0.85663  1.0000
  H   H1643     1.0  0.75374  0.21470  0.88470  1.0000
  H   H1644     1.0  0.72715  0.22160  0.89431  1.0000
  H   H1645     1.0  0.72137  0.25797  0.87779  1.0000
  H   H1646     1.0  0.73810  0.26702  0.85725  1.0000
  H   H1647     1.0  0.74850  0.23598  0.84063  1.0000
  H   H1648     1.0  0.77013  0.23272  0.85711  1.0000
  H   H1649     1.0  0.69143  0.24568  0.84861  1.0000
  H   H1650     1.0  0.70612  0.22979  0.83345  1.0000
  H   H1651     1.0  0.78389  0.27346  0.87065  1.0000
  H   H1652     1.0  0.76745  0.26356  0.89169  1.0000
  H   H1653     1.0  0.64564  0.20012  0.84755  1.0000
  H   H1654     1.0  0.65583  0.21824  0.82701  1.0000
  H   H1655     1.0  0.66084  0.18716  0.83079  1.0000
  H   H1656     1.0  0.75533  0.30400  0.89064  1.0000
  H   H1657     1.0  0.79270  0.31519  0.88907  1.0000
  H   H1658     1.0  0.77260  0.31418  0.86977  1.0000
  N   N52       1.0  0.60910  0.20776  0.69276  1.0000
  C   C946      1.0  0.61139  0.18343  0.68369  1.0000
  C   C947      1.0  0.59842  0.19971  0.71122  1.0000
  C   C948      1.0  0.58772  0.21360  0.68265  1.0000
  C   C949      1.0  0.63672  0.23445  0.69276  1.0000
  C   C950      1.0  0.66184  0.23303  0.70228  1.0000
  C   C951      1.0  0.86822  0.33646  0.98209  1.0000
  C   C952      1.0  0.57775  0.23405  0.69150  1.0000
  C   C953      1.0  0.60762  0.17974  0.72126  1.0000
  C   C954      1.0  0.60018  0.17833  0.74063  1.0000
  H   H1659     1.0  0.78560  0.33814  0.98381  1.0000
  C   C955      1.0  0.69972  0.44314  0.94716  1.0000
  H   H1660     1.0  0.69500  0.26184  0.68526  1.0000
  H   H1661     1.0  0.59060  0.16418  0.68402  1.0000
  H   H1662     1.0  0.62628  0.17752  0.69065  1.0000
  H   H1663     1.0  0.60417  0.21919  0.71934  1.0000
  H   H1664     1.0  0.57492  0.18820  0.71118  1.0000
  H   H1665     1.0  0.56848  0.19340  0.67976  1.0000
  H   H1666     1.0  0.67516  0.41984  0.88198  1.0000
  C   C956      1.0  0.62552  0.00698  0.95428  1.0000
  H   H1667     1.0  0.63429  0.25201  0.69923  1.0000
  H   H1668     1.0  0.67613  0.42213  0.91421  1.0000
  H   H1669     1.0  0.65820  0.23159  0.71660  1.0000
  C   C957      1.0  0.75078  0.48751  0.99487  1.0000
  C   C958      1.0  0.76306  0.32438  0.98056  1.0000
  H   H1670     1.0  0.93617  0.48167  0.98473  1.0000
  H   H1671     1.0  0.56772  0.22605  0.70430  1.0000
  H   H1672     1.0  0.59640  0.15792  0.71572  1.0000
  H   H1673     1.0  0.63049  0.18635  0.72041  1.0000
  H   H1674     1.0  0.57714  0.17085  0.74221  1.0000
  H   H1675     1.0  0.60622  0.16333  0.74739  1.0000
  H   H1676     1.0  0.61179  0.19952  0.74695  1.0000
  H   H1677     1.0  0.57695  0.06552  0.99211  1.0000
  H   H1678     1.0  0.78440  0.48489  0.98038  1.0000
  H   H1679     1.0  0.87163  0.32128  0.99059  1.0000
  H   H1680     1.0  0.64610  0.00932  0.95811  1.0000
  H   H1681     1.0  0.78530  0.25222  0.98490  1.0000
  H   H1682     1.0  0.70668  0.25870  0.70694  1.0000
  H   H1683     1.0  0.74902  0.47719  0.95783  1.0000
  C   C959      1.0  0.55594  0.23768  0.68002  1.0000
  H   H1684     1.0  0.58912  0.36314  0.81579  1.0000
  H   H1685     1.0  0.62045  0.32916  0.78905  1.0000
  H   H1686     1.0  0.52811  0.01932  0.99094  1.0000
  C   C960      1.0  0.57530  0.30736  0.79342  1.0000
  H   H1687     1.0  0.66511  0.21485  0.69768  1.0000
  C   C961      1.0  0.63686  0.38358  0.79238  1.0000
  H   H1688     1.0  0.58105  0.33561  0.73829  1.0000
  C   C962      1.0  0.72139  0.16691  0.90042  1.0000
  C   C963      1.0  0.58879  0.37040  0.80215  1.0000
  H   H1689     1.0  0.65101  0.37696  0.78512  1.0000
  H   H1690     1.0  0.78264  0.23497  0.93122  1.0000
  H   H1691     1.0  0.78572  0.23323  0.95478  1.0000
  H   H1692     1.0  0.70998  0.16630  0.87344  1.0000
  C   C964      1.0  0.76106  0.19485  0.83026  1.0000
  H   H1693     1.0  0.92773  0.41952  0.97364  1.0000
  H   H1694     1.0  0.68232  0.42235  0.94305  1.0000
  N   N53       1.0  0.60639  0.36165  0.79039  1.0000
  C   C965      1.0  0.54072  0.24906  0.92854  1.0000
  H   H1695     1.0  0.75697  0.20565  0.81897  1.0000
  H   H1696     1.0  0.52463  0.39917  0.99008  1.0000
  H   H1697     1.0  0.54713  0.23890  0.86337  1.0000
  C   C966      1.0  0.55759  0.36090  0.79668  1.0000
  H   H1698     1.0  0.59817  0.39396  0.80310  1.0000
  H   H1699     1.0  0.56637  0.30622  0.78015  1.0000
  C   C967      1.0  0.77115  0.23117  0.94377  1.0000
  H   H1700     1.0  0.75385  0.20915  0.94359  1.0000
  H   H1701     1.0  0.72338  0.17903  0.91270  1.0000
  H   H1702     1.0  0.65314  0.47023  0.95914  1.0000
  N   N54       1.0  0.59274  0.27081  0.91838  1.0000
  H   H1703     1.0  0.55675  0.37324  0.78517  1.0000
  H   H1704     1.0  0.64448  0.43420  0.95338  1.0000
  H   H1705     1.0  0.71152  0.44598  0.88115  1.0000
  H   H1706     1.0  0.51784  0.02855  0.96053  1.0000
  H   H1707     1.0  0.63992  0.40397  0.78648  1.0000
  C   C968      1.0  0.60340  0.35190  0.73932  1.0000
  H   H1708     1.0  0.75677  0.17314  0.82602  1.0000
  H   H1709     1.0  0.50584  0.12360  0.97988  1.0000
  H   H1710     1.0  0.55431  0.26474  0.89143  1.0000
  H   H1711     1.0  0.61326  0.33200  0.76070  1.0000
  H   H1712     1.0  0.64383  0.35707  0.90754  1.0000
  C   C969      1.0  0.75863  0.25189  0.94611  1.0000
  H   H1713     1.0  0.79104  0.28657  0.93280  1.0000
  H   H1714     1.0  0.74650  0.24655  0.95842  1.0000
  C   C970      1.0  0.98503  0.37013  0.99453  1.0000
  C   C971      1.0  0.59813  0.36152  0.77141  1.0000
  H   H1715     1.0  0.72485  0.30081  0.99565  1.0000
  N   N55       1.0  0.77210  0.30508  0.95067  1.0000
  H   H1716     1.0  0.52642  0.26286  0.95179  1.0000
  H   H1717     1.0  0.95496  0.39458  0.97776  1.0000
  C   C972      1.0  0.78191  0.28312  0.94612  1.0000
  H   H1718     1.0  0.79915  0.28501  0.95529  1.0000
  H   H1719     1.0  0.75626  0.30026  0.92404  1.0000
  C   C973      1.0  0.61482  0.35317  0.75787  1.0000
  H   H1720     1.0  0.60050  0.38287  0.76785  1.0000
  H   H1721     1.0  0.63739  0.36889  0.75781  1.0000
  C   C974      1.0  0.74955  0.30222  0.93754  1.0000
  H   H1722     1.0  0.73763  0.28302  0.96875  1.0000
  H   H1723     1.0  0.73001  0.28211  0.93961  1.0000
  H   H1724     1.0  0.72856  0.32136  0.90984  1.0000
  H   H1725     1.0  0.62218  0.22232  0.94822  1.0000
  H   H1726     1.0  0.59564  0.25526  0.69375  1.0000
  H   H1727     1.0  0.57554  0.34697  0.76907  1.0000
  C   C975      1.0  0.69648  0.43004  0.90724  1.0000
  Fe  Fe109     1.0  0.52558  0.36647  0.95988  1.0000
  C   C976      1.0  0.74032  0.32604  0.93753  1.0000
  C   C977      1.0  0.83439  0.37379  0.93252  1.0000
  C   C978      1.0  0.75161  0.39635  0.95202  1.0000
  H   H1728     1.0  0.62134  0.40176  0.98494  1.0000
  C   C979      1.0  0.68795  0.46503  0.94786  1.0000
  C   C980      1.0  0.52670  0.15618  0.94767  1.0000
  C   C981      1.0  0.55003  0.16768  0.93404  1.0000
  H   H1729     1.0  0.58584  0.27933  0.80940  1.0000
  C   C982      1.0  0.74154  0.41904  0.95422  1.0000
  H   H1730     1.0  0.77565  0.39138  0.99580  1.0000
  C   C983      1.0  0.56883  0.27592  0.92525  1.0000
  C   C984      1.0  0.55491  0.23219  0.87511  1.0000
  C   C985      1.0  0.81226  0.34275  0.93213  1.0000
  H   H1731     1.0  0.60734  0.27225  0.94514  1.0000
  C   C986      1.0  0.54123  0.36624  0.81143  1.0000
  H   H1732     1.0  0.73848  0.21015  0.98118  1.0000
  H   H1733     1.0  0.52220  0.13387  0.95015  1.0000
  H   H1734     1.0  0.75901  0.43785  0.96037  1.0000
  H   H1735     1.0  0.53582  0.06048  0.97337  1.0000
  H   H1736     1.0  0.89092  0.37778  0.97133  1.0000
  Fe  Fe110     1.0  0.83913  0.48603  0.93366  1.0000
  C   C987      1.0  0.59546  0.02783  0.94536  1.0000
  N   N56       1.0  0.72538  0.45062  0.93599  1.0000
  C   C988      1.0  0.68933  0.25980  0.69932  1.0000
  H   H1737     1.0  0.77052  0.47468  0.94098  1.0000
  H   H1738     1.0  0.69985  0.30117  0.92436  1.0000
  H   H1739     1.0  0.70221  0.41243  0.90556  1.0000
  H   H1740     1.0  0.97199  0.49839  0.97704  1.0000
  H   H1741     1.0  0.66208  0.36564  0.92828  1.0000
  H   H1742     1.0  0.66968  0.34465  0.91247  1.0000
  C   C989      1.0  0.74456  0.22108  0.99365  1.0000
  C   C990      1.0  0.56998  0.25753  0.88745  1.0000
  H   H1743     1.0  0.61383  0.32798  0.93177  1.0000
  H   H1744     1.0  0.73992  0.46182  0.90960  1.0000
  H   H1745     1.0  0.58967  0.04678  0.97876  1.0000
  H   H1746     1.0  0.72977  0.32605  0.94996  1.0000
  C   C991      1.0  0.53804  0.04257  0.96721  1.0000
  H   H1747     1.0  0.55486  0.05105  0.95724  1.0000
  H   H1748     1.0  0.51780  0.27415  0.93134  1.0000
  H   H1749     1.0  0.54396  0.23348  0.93664  1.0000
  C   C992      1.0  0.56536  0.12302  0.99010  1.0000
  C   C993      1.0  0.62962  0.32214  0.92597  1.0000
  H   H1750     1.0  0.60698  0.30739  0.90166  1.0000
  H   H1751     1.0  0.55412  0.18929  0.93010  1.0000
  H   H1752     1.0  0.74939  0.42956  0.92677  1.0000
  H   H1753     1.0  0.57108  0.20726  0.98903  1.0000
  N   N57       1.0  0.51397  0.16718  0.97898  1.0000
  C   C994      1.0  0.61557  0.29846  0.91192  1.0000
  H   H1754     1.0  0.91139  0.35860  0.97423  1.0000
  H   H1755     1.0  0.63229  0.29495  0.90531  1.0000
  H   H1756     1.0  0.63948  0.31538  0.93659  1.0000
  H   H1757     1.0  0.58678  0.27471  0.87992  1.0000
  C   C995      1.0  0.60342  0.25911  0.93306  1.0000
  H   H1758     1.0  0.91336  0.43023  0.99121  1.0000
  H   H1759     1.0  0.56413  0.28986  0.91631  1.0000
  H   H1760     1.0  0.73445  0.37681  0.94631  1.0000
  H   H1761     1.0  0.59629  0.22303  0.66973  1.0000
  C   C996      1.0  0.79749  0.33380  0.95009  1.0000
  C   C997      1.0  0.69185  0.43849  0.88886  1.0000
  H   H1762     1.0  0.55367  0.16973  0.96999  1.0000
  H   H1763     1.0  0.71388  0.40607  0.93193  1.0000
  H   H1764     1.0  0.58700  0.23781  0.93677  1.0000
  C   C998      1.0  0.95247  0.47799  0.97767  1.0000
  H   H1765     1.0  0.57507  0.28799  0.93784  1.0000
  S   S220      1.0  0.61667  0.30067  0.66805  1.0000
  H   H1766     1.0  0.77110  0.28900  0.97690  1.0000
  H   H1767     1.0  0.62688  0.24091  0.91815  1.0000
  H   H1768     1.0  0.60122  0.24704  0.89802  1.0000
  C   C999      1.0  0.89552  0.36396  0.98032  1.0000
  H   H1769     1.0  0.85084  0.37733  0.94261  1.0000
  H   H1770     1.0  0.56948  0.22365  0.87077  1.0000
  H   H1771     1.0  0.68497  0.45541  0.88950  1.0000
  C   C1000     1.0  0.73232  0.42591  0.93626  1.0000
  H   H1772     1.0  0.54345  0.15374  0.92224  1.0000
  H   H1773     1.0  0.84472  0.37972  0.91958  1.0000
  C   C1001     1.0  0.59564  0.43849  0.99179  1.0000
  H   H1774     1.0  0.58981  0.00424  0.98754  1.0000
  H   H1775     1.0  0.53661  0.21723  0.67846  1.0000
  H   H1776     1.0  0.61405  0.44537  0.98363  1.0000
  H   H1777     1.0  0.81369  0.33479  0.95981  1.0000
  H   H1778     1.0  0.54050  0.35348  0.82309  1.0000
  H   H1779     1.0  0.60504  0.37282  0.73553  1.0000
  C   C1002     1.0  0.54493  0.02593  0.98108  1.0000
  H   H1780     1.0  0.55121  0.38903  0.81521  1.0000
  H   H1781     1.0  0.51924  0.36006  0.80703  1.0000
  C   C1003     1.0  0.55443  0.20393  0.99870  1.0000
  H   H1782     1.0  0.94491  0.47087  0.96408  1.0000
  H   H1783     1.0  0.71500  0.47350  0.91597  1.0000
  C   C1004     1.0  0.76027  0.29894  0.96905  1.0000
  H   H1784     1.0  0.82447  0.38787  0.93541  1.0000
  N   N58       1.0  0.93387  0.40469  0.99890  1.0000
  C   C1005     1.0  0.93189  0.42689  0.98749  1.0000
  H   H1785     1.0  0.53079  0.23865  0.91595  1.0000
  H   H1786     1.0  0.75451  0.33741  0.97397  1.0000
  H   H1787     1.0  0.64306  0.24195  0.67918  1.0000
  H   H1788     1.0  0.82338  0.32999  0.92878  1.0000
  H   H1789     1.0  0.54564  0.19661  0.96166  1.0000
  C   C1006     1.0  0.72014  0.45548  0.91714  1.0000
  C   C1007     1.0  0.52886  0.17414  0.99661  1.0000
  H   H1790     1.0  0.53662  0.15835  0.99979  1.0000
  H   H1791     1.0  0.87813  0.46410  0.99839  1.0000
  H   H1792     1.0  0.83017  0.37387  0.99408  1.0000
  C   C1008     1.0  0.57441  0.04379  0.98934  1.0000
  H   H1793     1.0  0.62219  0.36803  0.98515  1.0000
  H   H1794     1.0  0.70449  0.44025  0.96098  1.0000
  H   H1795     1.0  0.79193  0.35080  0.95420  1.0000
  C   C1009     1.0  0.63569  0.05548  0.99986  1.0000
  H   H1796     1.0  0.79698  0.34023  0.92151  1.0000
  H   H1797     1.0  0.97580  0.45394  0.98010  1.0000
  C   C1010     1.0  0.95699  0.39826  0.99216  1.0000
  H   H1798     1.0  0.55007  0.25331  0.68620  1.0000
  H   H1799     1.0  0.97787  0.41698  0.99418  1.0000
  C   C1011     1.0  0.95855  0.45592  0.98715  1.0000
  H   H1800     1.0  0.50752  0.15601  0.94186  1.0000
  H   H1801     1.0  0.68236  0.46951  0.93464  1.0000
  C   C1012     1.0  0.54526  0.41194  0.99552  1.0000
  H   H1802     1.0  0.51379  0.20798  0.97760  1.0000
  H   H1803     1.0  0.85136  0.34071  0.98788  1.0000
  S   S221      1.0  0.67178  0.36276  0.67265  1.0000
  S   S222      1.0  0.50831  0.27986  0.99159  1.0000
  C   C1013     1.0  0.85402  0.41924  0.99406  1.0000
  H   H1804     1.0  0.86092  0.32645  0.96902  1.0000
  H   H1805     1.0  0.98562  0.35146  0.00071  1.0000
  S   S223      1.0  0.67985  0.30465  0.66867  1.0000
  H   H1806     1.0  0.66596  0.45074  0.97264  1.0000
  H   H1807     1.0  0.73443  0.46838  0.98911  1.0000
  C   C1014     1.0  0.74776  0.31433  0.99792  1.0000
  C   C1015     1.0  0.63095  0.38938  0.99135  1.0000
  C   C1016     1.0  0.58909  0.13991  0.00026  1.0000
  H   H1808     1.0  0.68112  0.07995  0.99832  1.0000
  C   C1017     1.0  0.95906  0.37275  0.00080  1.0000
  C   C1018     1.0  0.53950  0.10689  0.99817  1.0000
  H   H1809     1.0  0.98430  0.36724  0.98009  1.0000
  H   H1810     1.0  0.63332  0.06204  0.98654  1.0000
  C   C1019     1.0  0.51971  0.25655  0.93799  1.0000
  H   H1811     1.0  0.63719  0.03530  0.99874  1.0000
  S   S224      1.0  0.50306  0.30456  0.90657  1.0000
  C   C1020     1.0  0.77104  0.24488  0.99581  1.0000
  H   H1812     1.0  0.60918  0.15234  0.99417  1.0000
  H   H1813     1.0  0.76067  0.41574  0.99306  1.0000
  H   H1814     1.0  0.94027  0.35259  0.99747  1.0000
  C   C1021     1.0  0.90574  0.37862  0.99841  1.0000
  H   H1815     1.0  0.96626  0.46411  0.00050  1.0000
  C   C1022     1.0  0.53034  0.75331  0.01685  1.0000
  S   S225      1.0  0.70063  0.52514  0.06010  1.0000
  H   H1816     1.0  0.64250  0.71898  0.09180  1.0000
  H   H1817     1.0  0.54834  0.97249  0.01720  1.0000
  C   C1023     1.0  0.51990  0.63657  0.12306  1.0000
  H   H1818     1.0  0.64390  0.68451  0.11292  1.0000
  S   S226      1.0  0.66406  0.57762  0.06350  1.0000
  H   H1819     1.0  0.61283  0.73528  0.07375  1.0000
  C   C1024     1.0  0.59765  0.68749  0.09418  1.0000
  H   H1820     1.0  0.53898  0.73355  0.07034  1.0000
  Fe  Fe111     1.0  0.54541  0.64364  0.05161  1.0000
  H   H1821     1.0  0.58172  0.63289  0.09053  1.0000
  S   S227      1.0  0.58875  0.64381  0.05356  1.0000
  C   C1025     1.0  0.70780  0.51505  0.13253  1.0000
  C   C1026     1.0  0.54429  0.64441  0.11031  1.0000
  S   S228      1.0  0.54269  0.68500  0.05533  1.0000
  H   H1822     1.0  0.52348  0.74428  0.08789  1.0000
  S   S229      1.0  0.50385  0.69495  0.00999  1.0000
  H   H1823     1.0  0.54222  0.62447  0.10425  1.0000
  C   C1027     1.0  0.55405  0.97612  0.00316  1.0000
  H   H1824     1.0  0.53783  0.54332  0.00374  1.0000
  H   H1825     1.0  0.53908  0.74884  0.02856  1.0000
  C   C1028     1.0  0.62508  0.70361  0.08347  1.0000
  C   C1029     1.0  0.64099  0.59348  0.05951  1.0000
  C   C1030     1.0  0.65309  0.62311  0.06026  1.0000
  C   C1031     1.0  0.63669  0.63753  0.05798  1.0000
  C   C1032     1.0  0.60744  0.62286  0.05531  1.0000
  C   C1033     1.0  0.59486  0.59302  0.05457  1.0000
  C   C1034     1.0  0.61163  0.57837  0.05651  1.0000
  H   H1826     1.0  0.67557  0.63513  0.06251  1.0000
  H   H1827     1.0  0.64690  0.66041  0.05839  1.0000
  H   H1828     1.0  0.57233  0.58125  0.05250  1.0000
  H   H1829     1.0  0.60183  0.55548  0.05600  1.0000
  C   C1035     1.0  0.62544  0.68520  0.11936  1.0000
  C   C1036     1.0  0.76477  0.52721  0.01482  1.0000
  H   H1830     1.0  0.70303  0.53195  0.13789  1.0000
  H   H1831     1.0  0.53941  0.76767  0.06960  1.0000
  H   H1832     1.0  0.75941  0.53918  0.02434  1.0000
  H   H1833     1.0  0.57395  0.94792  0.00403  1.0000
  H   H1834     1.0  0.86444  0.53776  0.02459  1.0000
  Fe  Fe112     1.0  0.66239  0.53399  0.05851  1.0000
  C   C1037     1.0  0.79308  0.53670  0.00968  1.0000
  H   H1835     1.0  0.57730  0.58509  0.09368  1.0000
  C   C1038     1.0  0.59700  0.59421  0.10170  1.0000
  C   C1039     1.0  0.57315  0.66040  0.11978  1.0000
  C   C1040     1.0  0.53657  0.78152  0.01276  1.0000
  C   C1041     1.0  0.59960  0.64312  0.09997  1.0000
  H   H1836     1.0  0.58171  0.61248  0.12142  1.0000
  C   C1042     1.0  0.87065  0.52550  0.03391  1.0000
  H   H1837     1.0  0.54988  0.79855  0.02151  1.0000
  C   C1043     1.0  0.62053  0.72037  0.06863  1.0000
  H   H1838     1.0  0.59659  0.57766  0.11071  1.0000
  H   H1839     1.0  0.65385  0.68592  0.16101  1.0000
  C   C1044     1.0  0.51333  0.73113  0.00557  1.0000
  H   H1840     1.0  0.58072  0.67499  0.08451  1.0000
  H   H1841     1.0  0.66886  0.68405  0.14026  1.0000
  H   H1842     1.0  0.61537  0.60025  0.09293  1.0000
  C   C1045     1.0  0.65479  0.69140  0.14695  1.0000
  H   H1843     1.0  0.66384  0.71479  0.14588  1.0000
  H   H1844     1.0  0.61169  0.68417  0.14647  1.0000
  H   H1845     1.0  0.54164  0.65783  0.10010  1.0000
  C   C1046     1.0  0.52679  0.74529  0.07352  1.0000
  H   H1846     1.0  0.63224  0.68887  0.07753  1.0000
  H   H1847     1.0  0.88664  0.54064  0.04315  1.0000
  H   H1848     1.0  0.59187  0.70374  0.09966  1.0000
  H   H1849     1.0  0.64073  0.73268  0.06176  1.0000
  C   C1047     1.0  0.62516  0.67704  0.13889  1.0000
  H   H1850     1.0  0.57296  0.64684  0.13081  1.0000
  H   H1851     1.0  0.63025  0.70800  0.11993  1.0000
  Fe  Fe113     1.0  0.51179  0.67131  0.03277  1.0000
  H   H1852     1.0  0.61675  0.65399  0.14077  1.0000
  H   H1853     1.0  0.83588  0.51732  0.05085  1.0000
  H   H1854     1.0  0.61874  0.64971  0.09183  1.0000
  S   S230      1.0  0.64902  0.51246  0.03226  1.0000
  S   S231      1.0  0.51028  0.62013  0.07043  1.0000
  H   H1855     1.0  0.97956  0.51394  0.01326  1.0000
  H   H1856     1.0  0.60507  0.70577  0.05893  1.0000
  H   H1857     1.0  0.82141  0.52000  0.16367  1.0000
  H   H1858     1.0  0.57358  0.67976  0.12593  1.0000
  H   H1859     1.0  0.61982  0.62810  0.11953  1.0000
  C   C1048     1.0  0.59955  0.61995  0.11220  1.0000
  S   S232      1.0  0.51745  0.63203  0.02757  1.0000
  N   N59       1.0  0.59894  0.66856  0.10858  1.0000
  Fe  Fe114     1.0  0.50504  0.65988  0.07220  1.0000
  H   H1860     1.0  0.59724  0.00081  0.00988  1.0000
  H   H1861     1.0  0.52103  0.62269  0.13355  1.0000
  H   H1862     1.0  0.52019  0.65593  0.12897  1.0000
  H   H1863     1.0  0.72548  0.52477  0.12319  1.0000
  H   H1864     1.0  0.80938  0.55592  0.01540  1.0000
  C   C1049     1.0  0.84498  0.50480  0.04406  1.0000
  H   H1865     1.0  0.50280  0.73283  0.04961  1.0000
  H   H1866     1.0  0.88036  0.51401  0.02655  1.0000
  C   C1050     1.0  0.74340  0.50271  0.00726  1.0000
  H   H1867     1.0  0.73397  0.51706  0.15460  1.0000
  H   H1868     1.0  0.80584  0.50962  0.18509  1.0000
  H   H1869     1.0  0.74803  0.50602  0.05242  1.0000
  H   H1870     1.0  0.77330  0.50272  0.14844  1.0000
  C   C1051     1.0  0.81185  0.50213  0.17295  1.0000
  H   H1871     1.0  0.93316  0.59870  0.00294  1.0000
  H   H1872     1.0  0.56743  0.86622  0.48590  1.0000
  H   H1873     1.0  0.63485  0.58578  0.54545  1.0000
  Fe  Fe115     1.0  0.63800  0.53944  0.45550  1.0000
  C   C1052     1.0  0.51845  0.70402  0.54454  1.0000
  S   S233      1.0  0.63661  0.58153  0.46082  1.0000
  H   H1874     1.0  0.62615  0.73178  0.46144  1.0000
  H   H1875     1.0  0.51162  0.83826  0.43000  1.0000
  S   S234      1.0  0.67900  0.53591  0.45414  1.0000
  C   C1053     1.0  0.53793  0.61610  0.39184  1.0000
  H   H1876     1.0  0.92106  0.51953  0.60019  1.0000
  H   H1877     1.0  0.64691  0.58976  0.51085  1.0000
  H   H1878     1.0  0.64263  0.73693  0.37162  1.0000
  S   S235      1.0  0.91918  0.52187  0.56388  1.0000
  C   C1054     1.0  0.96970  0.54752  0.65352  1.0000
  H   H1879     1.0  0.56857  0.92497  0.48664  1.0000
  C   C1055     1.0  0.55650  0.87974  0.48639  1.0000
  S   S236      1.0  0.84615  0.53189  0.56590  1.0000
  Fe  Fe116     1.0  0.52613  0.64894  0.45267  1.0000
  H   H1880     1.0  0.59077  0.71391  0.45282  1.0000
  S   S237      1.0  0.53894  0.61621  0.44141  1.0000
  Fe  Fe117     1.0  0.53710  0.70888  0.46344  1.0000
  S   S238      1.0  0.56950  0.75464  0.46630  1.0000
  H   H1881     1.0  0.91182  0.60479  0.59140  1.0000
  S   S239      1.0  0.54130  0.67388  0.47775  1.0000
  S   S240      1.0  0.52584  0.68551  0.43744  1.0000
  Fe  Fe118     1.0  0.53583  0.89676  0.56275  1.0000
  C   C1056     1.0  0.73938  0.50932  0.44627  1.0000
  S   S241      1.0  0.55187  0.94354  0.57126  1.0000
  Fe  Fe119     1.0  0.54034  0.85144  0.53964  1.0000
  S   S242      1.0  0.57102  0.84665  0.52100  1.0000
  H   H1882     1.0  0.52687  0.75155  0.49226  1.0000
  H   H1883     1.0  0.56209  0.66042  0.38716  1.0000
  H   H1884     1.0  0.54622  0.60938  0.38035  1.0000
  S   S243      1.0  0.52290  0.88263  0.53489  1.0000
  S   S244      1.0  0.55552  0.86714  0.56705  1.0000
  C   C1057     1.0  0.56835  0.77829  0.48247  1.0000
  C   C1058     1.0  0.54508  0.77199  0.49337  1.0000
  C   C1059     1.0  0.54546  0.79246  0.50559  1.0000
  C   C1060     1.0  0.56894  0.81919  0.50678  1.0000
  C   C1061     1.0  0.59194  0.82516  0.49589  1.0000
  C   C1062     1.0  0.59166  0.80495  0.48388  1.0000
  H   H1885     1.0  0.94616  0.59270  0.60792  1.0000
  H   H1886     1.0  0.54318  0.80350  0.56384  1.0000
  H   H1887     1.0  0.61019  0.84569  0.49669  1.0000
  H   H1888     1.0  0.60968  0.81012  0.47555  1.0000
  C   C1063     1.0  0.95356  0.55051  0.56058  1.0000
  C   C1064     1.0  0.95806  0.57456  0.55097  1.0000
  C   C1065     1.0  0.85276  0.51231  0.62843  1.0000
  H   H1889     1.0  0.94027  0.57621  0.54511  1.0000
  H   H1890     1.0  0.56913  0.55237  0.50771  1.0000
  C   C1066     1.0  0.60762  0.58906  0.45657  1.0000
  C   C1067     1.0  0.58657  0.57362  0.44425  1.0000
  C   C1068     1.0  0.56535  0.58182  0.44016  1.0000
  C   C1069     1.0  0.56448  0.60517  0.44854  1.0000
  C   C1070     1.0  0.58497  0.62004  0.46132  1.0000
  C   C1071     1.0  0.60655  0.61219  0.46516  1.0000
  H   H1891     1.0  0.58708  0.55583  0.43749  1.0000
  H   H1892     1.0  0.54967  0.57013  0.43025  1.0000
  H   H1893     1.0  0.58465  0.63803  0.46791  1.0000
  H   H1894     1.0  0.62271  0.62433  0.47470  1.0000
  C   C1072     1.0  0.64578  0.52886  0.52714  1.0000
  H   H1895     1.0  0.59514  0.63787  0.39289  1.0000
  H   H1896     1.0  0.99748  0.53924  0.53478  1.0000
  H   H1897     1.0  0.98562  0.53183  0.51302  1.0000
  C   C1073     1.0  0.76718  0.53772  0.49924  1.0000
  C   C1074     1.0  0.73860  0.52803  0.49438  1.0000
  H   H1898     1.0  0.59335  0.91527  0.49720  1.0000
  H   H1899     1.0  0.53965  0.81767  0.47373  1.0000
  H   H1900     1.0  0.78363  0.55266  0.49105  1.0000
  H   H1901     1.0  0.73312  0.53565  0.48258  1.0000
  Fe  Fe120     1.0  0.51242  0.83401  0.57532  1.0000
  C   C1075     1.0  0.57613  0.97685  0.56232  1.0000
  C   C1076     1.0  0.59660  0.97932  0.55008  1.0000
  C   C1077     1.0  0.61834  0.97944  0.60517  1.0000
  H   H1902     1.0  0.59734  0.96043  0.54523  1.0000
  C   C1078     1.0  0.72553  0.59393  0.49082  1.0000
  C   C1079     1.0  0.53469  0.87227  0.47124  1.0000
  H   H1903     1.0  0.53349  0.60049  0.40249  1.0000
  C   C1080     1.0  0.68488  0.56353  0.51045  1.0000
  H   H1904     1.0  0.59764  0.96611  0.59876  1.0000
  C   C1081     1.0  0.92929  0.57643  0.59965  1.0000
  H   H1905     1.0  0.83709  0.53105  0.48380  1.0000
  H   H1906     1.0  0.94070  0.60639  0.57837  1.0000
  H   H1907     1.0  0.97402  0.53070  0.57576  1.0000
  H   H1908     1.0  0.68732  0.59798  0.49313  1.0000
  H   H1909     1.0  0.63109  0.96763  0.60477  1.0000
  H   H1910     1.0  0.56929  0.80630  0.44982  1.0000
  C   C1082     1.0  0.62219  0.70838  0.43725  1.0000
  H   H1911     1.0  0.68343  0.52301  0.53417  1.0000
  H   H1912     1.0  0.59669  0.70232  0.39721  1.0000
  C   C1083     1.0  0.70124  0.59300  0.50186  1.0000
  H   H1913     1.0  0.66865  0.64139  0.41606  1.0000
  H   H1914     1.0  0.65517  0.69289  0.41519  1.0000
  H   H1915     1.0  0.63313  0.71761  0.40216  1.0000
  H   H1916     1.0  0.88480  0.54771  0.60205  1.0000
  H   H1917     1.0  0.58449  0.83199  0.43283  1.0000
  H   H1918     1.0  0.61446  0.98317  0.61898  1.0000
  H   H1919     1.0  0.59360  0.66340  0.43669  1.0000
  H   H1920     1.0  0.60523  0.67254  0.37299  1.0000
  H   H1921     1.0  0.66446  0.63603  0.43928  1.0000
  H   H1922     1.0  0.57599  0.85476  0.45854  1.0000
  H   H1923     1.0  0.90646  0.57664  0.57592  1.0000
  H   H1924     1.0  0.68279  0.67150  0.43101  1.0000
  H   H1925     1.0  0.54647  0.88236  0.45929  1.0000
  H   H1926     1.0  0.88653  0.54366  0.64423  1.0000
  H   H1927     1.0  0.73689  0.61508  0.48476  1.0000
  H   H1928     1.0  0.94121  0.57132  0.63426  1.0000
  H   H1929     1.0  0.51793  0.82928  0.49536  1.0000
  N   N60       1.0  0.65997  0.55954  0.52161  1.0000
  H   H1930     1.0  0.58138  0.68465  0.42542  1.0000
  H   H1931     1.0  0.64172  0.56175  0.49643  1.0000
  H   H1932     1.0  0.54837  0.74812  0.56758  1.0000
  H   H1933     1.0  0.51777  0.61620  0.38800  1.0000
  C   C1084     1.0  0.57871  0.91067  0.48584  1.0000
  H   H1934     1.0  0.52781  0.78785  0.51403  1.0000
  H   H1935     1.0  0.52492  0.75758  0.57958  1.0000
  C   C1085     1.0  0.55711  0.70560  0.52444  1.0000
  H   H1936     1.0  0.55415  0.85420  0.44063  1.0000
  C   C1086     1.0  0.55527  0.79106  0.56413  1.0000
  H   H1937     1.0  0.51702  0.87289  0.43768  1.0000
  H   H1938     1.0  0.95158  0.54946  0.62148  1.0000
  H   H1939     1.0  0.52171  0.88349  0.47410  1.0000
  N   N61       1.0  0.51575  0.84105  0.46842  1.0000
  H   H1940     1.0  0.73177  0.50336  0.43257  1.0000
  C   C1087     1.0  0.50201  0.82917  0.48575  1.0000
  H   H1941     1.0  0.55921  0.74088  0.53938  1.0000
  H   H1942     1.0  0.93847  0.56387  0.59312  1.0000
  C   C1088     1.0  0.75316  0.50926  0.52526  1.0000
  H   H1943     1.0  0.62688  0.72759  0.42947  1.0000
  C   C1089     1.0  0.64024  0.56655  0.51048  1.0000
  C   C1090     1.0  0.56513  0.82006  0.44056  1.0000
  H   H1944     1.0  0.98144  0.54169  0.64361  1.0000
  H   H1945     1.0  0.89918  0.57254  0.61951  1.0000
  C   C1091     1.0  0.92145  0.59200  0.58552  1.0000
  C   C1092     1.0  0.77457  0.52814  0.51466  1.0000
  H   H1946     1.0  0.63990  0.51478  0.51535  1.0000
  H   H1947     1.0  0.64219  0.69071  0.37845  1.0000
  H   H1948     1.0  0.52883  0.69993  0.55614  1.0000
  C   C1093     1.0  0.55741  0.84073  0.45045  1.0000
  H   H1949     1.0  0.57417  0.71922  0.51549  1.0000
  H   H1950     1.0  0.97948  0.57095  0.65489  1.0000
  H   H1951     1.0  0.98876  0.61533  0.54170  1.0000
  H   H1952     1.0  0.60537  0.71855  0.36613  1.0000
  H   H1953     1.0  0.92966  0.51242  0.64754  1.0000
  H   H1954     1.0  0.60645  0.69389  0.46347  1.0000
  H   H1955     1.0  0.97152  0.53853  0.66629  1.0000
  C   C1094     1.0  0.66501  0.65021  0.42848  1.0000
  C   C1095     1.0  0.90352  0.51175  0.60967  1.0000
  H   H1956     1.0  0.56642  0.69804  0.53500  1.0000
  C   C1096     1.0  0.67089  0.57943  0.53711  1.0000
  C   C1097     1.0  0.64879  0.57717  0.55089  1.0000
  S   S245      1.0  0.62230  0.50939  0.47794  1.0000
  C   C1098     1.0  0.50203  0.85006  0.43707  1.0000
  H   H1957     1.0  0.67781  0.54755  0.49962  1.0000
  H   H1958     1.0  0.71743  0.57775  0.48021  1.0000
  C   C1099     1.0  0.66306  0.59466  0.56726  1.0000
  H   H1959     1.0  0.72597  0.51755  0.45284  1.0000
  H   H1960     1.0  0.64223  0.70734  0.43994  1.0000
  C   C1100     1.0  0.66291  0.51937  0.53975  1.0000
  H   H1961     1.0  0.58189  0.62987  0.41424  1.0000
  C   C1101     1.0  0.93518  0.54881  0.63075  1.0000
  C   C1102     1.0  0.59166  0.56294  0.50392  1.0000
  C   C1103     1.0  0.90343  0.55770  0.61103  1.0000
  H   H1962     1.0  0.70075  0.55988  0.51812  1.0000
  H   H1963     1.0  0.68835  0.57695  0.54375  1.0000
  H   H1964     1.0  0.68054  0.60181  0.53277  1.0000
  H   H1965     1.0  0.63576  0.55506  0.55506  1.0000
  C   C1104     1.0  0.53544  0.75968  0.56677  1.0000
  N   N62       1.0  0.90642  0.53539  0.62194  1.0000
  H   H1966     1.0  0.66696  0.53096  0.55242  1.0000
  H   H1967     1.0  0.71063  0.61002  0.51189  1.0000
  H   H1968     1.0  0.63395  0.65940  0.44064  1.0000
  H   H1969     1.0  0.62011  0.62995  0.42551  1.0000
  H   H1970     1.0  0.54779  0.80654  0.43147  1.0000
  H   H1971     1.0  0.54573  0.87653  0.49917  1.0000
  H   H1972     1.0  0.53884  0.50930  0.48990  1.0000
  H   H1973     1.0  0.59117  0.91492  0.47365  1.0000
  H   H1974     1.0  0.67669  0.58643  0.57365  1.0000
  H   H1975     1.0  0.67606  0.61727  0.56389  1.0000
  H   H1976     1.0  0.64676  0.59334  0.57674  1.0000
  H   H1977     1.0  0.59292  0.55910  0.48972  1.0000
  H   H1978     1.0  0.84877  0.52785  0.62071  1.0000
  C   C1105     1.0  0.54284  0.72251  0.53214  1.0000
  H   H1979     1.0  0.74071  0.59001  0.49906  1.0000
  H   H1980     1.0  0.54919  0.65165  0.40906  1.0000
  H   H1981     1.0  0.64209  0.66357  0.40063  1.0000
  N   N63       1.0  0.60997  0.67423  0.41049  1.0000
  C   C1106     1.0  0.61507  0.69754  0.39767  1.0000
  C   C1107     1.0  0.60045  0.68144  0.42754  1.0000
  C   C1108     1.0  0.63698  0.67171  0.41287  1.0000
  C   C1109     1.0  0.58731  0.64613  0.40392  1.0000
  C   C1110     1.0  0.55904  0.64569  0.39809  1.0000
  C   C1111     1.0  0.62206  0.69227  0.37872  1.0000
  C   C1112     1.0  0.63701  0.65179  0.42767  1.0000
  H   H1982     1.0  0.50722  0.98615  0.49005  1.0000
  H   H1983     1.0  0.86414  0.50493  0.48677  1.0000
  H   H1984     1.0  0.56705  0.79434  0.55170  1.0000
  C   C1113     1.0  0.60820  0.55087  0.51449  1.0000
  C   C1114     1.0  0.53145  0.82485  0.46237  1.0000
  H   H1985     1.0  0.60385  0.55224  0.52849  1.0000
  S   S246      1.0  0.81052  0.54023  0.52056  1.0000
  Fe  Fe121     1.0  0.66133  0.50342  0.47518  1.0000
  H   H1986     1.0  0.54161  0.68709  0.51683  1.0000
  C   C1115     1.0  0.97714  0.54905  0.56817  1.0000
  H   H1987     1.0  0.59998  0.58605  0.50635  1.0000
  H   H1988     1.0  0.53567  0.73107  0.52113  1.0000
  H   H1989     1.0  0.57069  0.79914  0.57514  1.0000
  H   H1990     1.0  0.50642  0.68282  0.53826  1.0000
  C   C1116     1.0  0.61062  0.71211  0.45481  1.0000
  H   H1991     1.0  0.51663  0.80485  0.45565  1.0000
  C   C1117     1.0  0.71728  0.50863  0.50491  1.0000
  C   C1118     1.0  0.93863  0.53572  0.64820  1.0000
  H   H1992     1.0  0.56017  0.00034  0.57800  1.0000
  C   C1119     1.0  0.88352  0.52553  0.63550  1.0000
  C   C1120     1.0  0.62534  0.71661  0.36679  1.0000
  H   H1993     1.0  0.92767  0.54111  0.65885  1.0000
  S   S247      1.0  0.50116  0.79688  0.59377  1.0000
  H   H1994     1.0  0.76137  0.52648  0.44600  1.0000
  H   H1995     1.0  0.62561  0.52343  0.53385  1.0000
  H   H1996     1.0  0.63057  0.71250  0.35336  1.0000
  H   H1997     1.0  0.59964  0.52810  0.51084  1.0000
  H   H1998     1.0  0.52302  0.75788  0.53961  1.0000
  Fe  Fe122     1.0  0.82270  0.51532  0.54024  1.0000
  C   C1121     1.0  0.50119  0.00144  0.49657  1.0000
  C   C1122     1.0  0.98566  0.59676  0.54905  1.0000
  C   C1123     1.0  0.82530  0.50756  0.48390  1.0000
  C   C1124     1.0  0.51285  0.74763  0.55196  1.0000
  Fe  Fe123     1.0  0.87241  0.50990  0.55800  1.0000
  H   H1999     1.0  0.83589  0.52078  0.65256  1.0000
  H   H2000     1.0  0.50360  0.70834  0.57746  1.0000
  H   H2001     1.0  0.88412  0.50473  0.60142  1.0000
  H   H2002     1.0  0.88486  0.50957  0.64427  1.0000
  S   S248      1.0  0.61628  0.50566  0.43483  1.0000
  H   H2003     1.0  0.75868  0.50253  0.53733  1.0000
  C   C1125     1.0  0.83188  0.50278  0.64355  1.0000
  C   C1126     1.0  0.99862  0.52752  0.52293  1.0000
  H   H2004     1.0  0.78436  0.55034  0.94110  1.0000
  H   H2005     1.0  0.91957  0.62751  0.91484  1.0000
  C   C1127     1.0  0.50932  0.76576  0.98598  1.0000
  H   H2006     1.0  0.53353  0.61729  0.97600  1.0000
  S   S249      1.0  0.94609  0.54709  0.93643  1.0000
  H   H2007     1.0  0.94671  0.66706  0.95789  1.0000
  H   H2008     1.0  0.89382  0.64071  0.95990  1.0000
  S   S250      1.0  0.86476  0.53083  0.94338  1.0000
  C   C1128     1.0  0.50309  0.73764  0.99009  1.0000
  C   C1129     1.0  0.91765  0.60133  0.93774  1.0000
  C   C1130     1.0  0.98887  0.65006  0.96067  1.0000
  S   S251      1.0  0.54587  0.94211  0.94548  1.0000
  C   C1131     1.0  0.93474  0.65136  0.94747  1.0000
  S   S252      1.0  0.50681  0.87450  0.97407  1.0000
  H   H2009     1.0  0.77179  0.52961  0.96060  1.0000
  H   H2010     1.0  0.98375  0.64278  0.97434  1.0000
  S   S253      1.0  0.54301  0.85999  0.94458  1.0000
  H   H2011     1.0  0.89145  0.63500  0.93659  1.0000
  H   H2012     1.0  0.92042  0.56990  0.96667  1.0000
  H   H2013     1.0  0.90416  0.60738  0.97003  1.0000
  H   H2014     1.0  0.96816  0.60907  0.94738  1.0000
  H   H2015     1.0  0.94376  0.61221  0.91406  1.0000
  C   C1132     1.0  0.57586  0.97607  0.94766  1.0000
  C   C1133     1.0  0.60252  0.97956  0.95300  1.0000
  H   H2016     1.0  0.90403  0.56453  0.90901  1.0000
  H   H2017     1.0  0.60554  0.96112  0.95586  1.0000
  C   C1134     1.0  0.98131  0.56213  0.94509  1.0000
  H   H2018     1.0  0.93752  0.63186  0.97834  1.0000
  C   C1135     1.0  0.98725  0.56401  0.96307  1.0000
  Fe  Fe124     1.0  0.90119  0.51993  0.94675  1.0000
  H   H2019     1.0  0.97010  0.55506  0.97224  1.0000
  H   H2020     1.0  0.76448  0.50784  0.92252  1.0000
  H   H2021     1.0  0.91529  0.68708  0.93190  1.0000
  C   C1136     1.0  0.57254  0.00045  0.94395  1.0000
  C   C1137     1.0  0.90546  0.67807  0.94463  1.0000
  H   H2022     1.0  0.92046  0.58200  0.93942  1.0000
  C   C1138     1.0  0.90131  0.58391  0.90679  1.0000
  C   C1139     1.0  0.92155  0.58071  0.99378  1.0000
  C   C1140     1.0  0.52039  0.75753  0.89764  1.0000
  H   H2023     1.0  0.95465  0.59400  0.97503  1.0000
  C   C1141     1.0  0.92232  0.60849  0.91802  1.0000
  H   H2024     1.0  0.91756  0.69291  0.95538  1.0000
  H   H2025     1.0  0.88364  0.67586  0.94458  1.0000
  C   C1142     1.0  0.96664  0.62937  0.94750  1.0000
  N   N64       1.0  0.93659  0.62409  0.95036  1.0000
  H   H2026     1.0  0.89506  0.59459  0.94073  1.0000
  C   C1143     1.0  0.52612  0.78792  0.99730  1.0000
  C   C1144     1.0  0.52628  0.63315  0.97212  1.0000
  Fe  Fe125     1.0  0.52814  0.89364  0.94874  1.0000
  C   C1145     1.0  0.92718  0.61416  0.96874  1.0000
  C   C1146     1.0  0.55713  0.95034  0.99660  1.0000
  H   H2027     1.0  0.53429  0.74835  0.89300  1.0000
  C   C1147     1.0  0.75660  0.50581  0.93614  1.0000
  H   H2028     1.0  0.97385  0.63842  0.93432  1.0000
  H   H2029     1.0  0.99025  0.67155  0.95973  1.0000
  C   C1148     1.0  0.90455  0.64908  0.94732  1.0000
  Fe  Fe126     1.0  0.50123  0.83411  0.93053  1.0000
  Fe  Fe127     1.0  0.85083  0.51273  0.97018  1.0000
  H   H2030     1.0  0.94516  0.66136  0.93502  1.0000
  H   H2031     1.0  0.53896  0.65309  0.97956  1.0000
  H   H2032     1.0  0.50131  0.77035  0.97400  1.0000
  C   C1149     1.0  0.77933  0.52956  0.94707  1.0000
  Fe  Fe128     1.0  0.51872  0.83915  0.96903  1.0000
  S   S254      1.0  0.83618  0.53448  0.99076  1.0000
  C   C1150     1.0  0.52730  0.53284  0.99127  1.0000
  H   H2033     1.0  0.51979  0.77254  0.88774  1.0000
  H   H2034     1.0  0.92508  0.56248  0.99794  1.0000
  H   H2035     1.0  0.87928  0.57936  0.90992  1.0000
  S   S255      1.0  0.53472  0.82377  0.99260  1.0000
  H   H2036     1.0  0.90499  0.58938  0.89272  1.0000
  H   H2037     1.0  0.79895  0.52695  0.94765  1.0000
  H   H2038     1.0  0.73758  0.50930  0.93598  1.0000
  C   C1151     1.0  0.93199  0.58883  0.97509  1.0000
  H   H2039     1.0  0.89860  0.57437  0.99452  1.0000
  H   H2040     1.0  0.52995  0.63714  0.95789  1.0000
  H   H2041     1.0  0.52952  0.76965  0.90993  1.0000
  H   H2042     1.0  0.99986  0.57289  0.91953  1.0000
  H   H2043     1.0  0.56243  0.95240  0.98252  1.0000
  C   C1152     1.0  0.80034  0.52175  0.99702  1.0000
  S   S256      1.0  0.88928  0.50553  0.97437  1.0000
  H   H2044     1.0  0.53696  0.93087  0.99827  1.0000
  H   H2045     1.0  0.53626  0.97676  0.99596  1.0000
  H   H2046     1.0  0.55213  0.99812  0.93971  1.0000
  H   H2047     1.0  0.54062  0.52438  0.98478  1.0000
  H   H2048     1.0  0.52561  0.54898  0.98277  1.0000
