data_image0
_chemical_formula_structural       HSFeHSFeS2HC7H12CH2CHC2H2C2HCH3CHC2HCH3CH2SHCHCH4CH2SCH3CHC3H6CHNCH3C3SC3NH6C2HCH2C2H3SH2S2FeHNHCH2NH2CHFeH4CSHFeHFeCHSNC2HCSHFeS2FeS2C6H2CH3C2H5C3H3NC7H4CHFeH13SCH3CH3CH3CH2SH4SHC4SH7CH6CHCSCFeCHFe2HCHC2H2NHC3H3C2H2CH4C3H3SHCHCH8CFeS2HCSNHFeS2C6H3CH3CH3CH3C2H2CHCH8CHC2H5FeH3SH9C2HCH3FeHCHCHCSFeC2HCHCSHC3H3CHC2HC2H5SCFeSH5CH2C2H2SHCHCHSCH2FeS2H2SH2CHS2H3C6H4FeH2CHC4HC3SHCH4CH3FeHC4H6NH2CH2CHNHCH6C2FeHFeH7C2HSC2H3CHC2H2CSH2CH2CH2CH3C3H2FeHCH2CH3CFeH3FeS2H2CHCSFeS2FeS2HSH2CHC7H4C6H5CH5SH2CH3FeH9CH2C4SHSCHCH2CNC6H2CHCH6CH2CH3C2H2CNC7H14CH2CHCH3C2H2SHCH19SH5CH2CFeCH12CH2NC2HCH3NH2C2H2FeHCH2CH4C3H2CHC2H4C3SCNCH4C2NC6HCSC2H14CHSHC2H2SC3HC2H2CSH2CSCH2SH2CH5CH6C2H3CFeH2SC2HC2HCH4CHC2SC3SH2C2H2FeHC3H2SHSH4CHC2H5SC2FeCHSFeS2FeS2FeS3H4SHC2H3FeS2HCH3CH2FeHC6H4C10H5CNH4SH2C2FeH3C4H3CH2CHCFeHCH4NC10H6SH7CH11FeHCHNCHFeC2SHC5H6CH5CH2CH5CNHCH5C2H2NCH2CHCHCH2C2HCH2SCH4C2H2SC3HC2HCH2CH4SHNSCH2CH2CH5CHSHCH2FeHCH3CH3FeCHC2H2CH5C4HS2H4CHC2SH8SH7C4H2SCH4C3H7SHCHNCH4FeC3H4CHCNH2C3H3C3HCHSCSHSH5FeHSCFeHCFeS2HS2H3C3FeS2HC2H2CFeS2H3SH2C6H6C8H5CSH7SHCH3C2HCHC2H4CHC2H2FeHC2H7CH2FeH3C2HC4SHCH2SC3H2SHCHCHSH2CH2C2H3SHFeHSCH4CH2C2HSHCHFeSHCFeH5CHCH7CHNC11H23CHNC9H11CNHCN2FeCHCH2CHCHS2HCHC2H3NC3HCH8CH4Fe2CH8CHC2H2CHC2FeH4CHCHC2H5SFeH4NHS2H6CSHSCFeS2CH4SFeS2FeS2CFeH3SCH5FeS2CHC3HC6H4C6H6C3HCHSHCH3SCHCHC2H3C2HCHCH3C3H2CH4CH4CH5CH3C2HC2H2CHC2FeHCHNC4H2SH3FeNC2HCH2CSH3C2H2C5H6C2H2N2H2CHC5H2CH2C2H3CH3CH6SCSH9CH4C2H4CHFeHCH3CNH2CH3CH7CH2CH9CHCH2C2H2FeCH2C2HCH4C2FeH6C2H3CHCHC2H2CHCHCHCH4SHFeSH2CHFeHCHC4H2CHFeHNH2CHCHFeHSH4CHSH2CH2CHC2HC2H7C2HS3H5CFeS2FeS2FeS2FeS2H2CH3C7H4C6H4CHFeHCH2C2H5C2H3FeH2CHC3H3CH3C2HCH2CHCH2FeS2CHNHC2H2C2H4C2SCH4SH4CHCHNCHCHCH5C2HCNHCH3C2SHSC2H3CH2CH5NC8SC2H18C2H7NC2H4FeCH5C2HSH9C2H3CFeH6CH4CHCHC2HCHCH3C3H4C2HFeNCH4CH3SH5CH2C2HCHFeCFeCH2C3H2CHSC2H3CHCH2FeCH3CH4C2HCH2CHCH2CH4SCFeS2FeS2HS2HC2H2C2FeS2H3CHSC6H4C6H4CHFeH2CH5CH3SHCH9CH2C2H3CHCSC2HCFeHC2H4CNC2H5CNSCHCHCHCHFeH3CH2CHCHCH5C2HCHCH3CH3C2H3SHCHNC7H18NC6HC3H9CH2CH4CH5C4H3C2H2C2H3C2H11C2HC5H6NC4HC3HCH8CH7C4H12CHC2H5NHCH3C4SHC2H2SCH3S2CHCHCSFeH4C2H3SCH2SC3Fe2H8CNH5CH2CH2CHCSH4CH2CFeS2FeSH2S2CH3CFeHFeS3H2SH2C6H7NC6H6CH7CH3FeCH3SH5C2SH2CHC5SC4HFeH2CFeH2SCH3CHCH6CHSHCH5C2HCH2CH2NC7HC4H15CH11CNCH8C3H3C2SH6CHC2HCHC2H4SHFeCHCSH4C3HCH2CH3CHCH2C2HC3H2NCH8NCH4CH2CNHC2HSHC2H3SCH2CSHNCH3FeC2H6CHCNFeH2CH2CHCH7C2H6C2HC2H5C3NCH2C2H2CHCH2CH2C3H4FeCH2S2FeH3C3SH2CHC2H3CHFeC4HC2H4CHCH3CHCHS2CSHFeSHFeS2HSH2C6H5SH2C6H7CSH11CH2CH2CH3CH5CSCHC2H4CSC2H2NHCHCHCHCHCHCHCH4C6H2SC2H5SH2FeHCH4CNC10HCH15CH2C4H8CNCH2CSC5HSC2H2SCHCHCHSC3H3FeCSH8CFeH2CHCH2C2HFeH6CH3SH2SFeHCH4C3SH3FeH7C2HC2S2NCHFeH3SC2H2S2H3C2FeH3FeS2CSHC7H7NHCH4CH2C2H9SC3H3C2H4SCH2CH9S2HS2FeHC2H3CHSFeH3CHCH2C4HC2H8CH2C2HNCFeH2NH2C4HFeCH2CSC2H2CH4C3HC2HSHFeH2CHCHSHC2H2FeHS2C3SH2FeSHCFeSHFeS2H2CH2C5H3CHCHCH4C2H2C5HCH2CHCNCSFeH3CFeHFeHC3H2C2HCSFeH3SH2C4H5CSH2CHCSH2FeHCH2FeC2H3SH5CH2CHCHNHCH3NHSH6SH2CHC2H6FeCHCHCSCFeS2H5S2HCHCHC6H2CH2CH3NCH7SC5H8SH2C2H4FeHCH4CH2CH8C4H5SC2SNH2CH4CHCHSH3CFeCHCHC2HC2H2CHSHCSCSC2SHSH4FeHSFeSHC6H4CH4CHCH4CHCH3SC2HC2H3NC2HCH2CH4CHFeCH4CHSH6CHCH5CSHCHC3SC2H5CFeH2CHSH4CSH2SH2CHCH
_chemical_formula_sum              "H2304 S288 Fe144 C1296 N72"
_cell_length_a       64.0975
_cell_length_b       63.8423
_cell_length_c       63.8989
_cell_angle_alpha    88.127
_cell_angle_beta     88.2135
_cell_angle_gamma    88.1174

_space_group_name_H-M_alt    "P 1"
_space_group_IT_number       1

loop_
  _space_group_symop_operation_xyz
  'x, y, z'

loop_
  _atom_site_type_symbol
  _atom_site_label
  _atom_site_symmetry_multiplicity
  _atom_site_fract_x
  _atom_site_fract_y
  _atom_site_fract_z
  _atom_site_occupancy
  H   H1        1.0  0.13039  0.37661  0.43033  1.0000
  S   S1        1.0  0.99477  0.46132  0.35783  1.0000
  Fe  Fe1       1.0  0.19253  0.46539  0.35402  1.0000
  H   H2        1.0  0.16259  0.43392  0.31807  1.0000
  S   S2        1.0  0.18371  0.43270  0.36539  1.0000
  Fe  Fe2       1.0  0.20340  0.36861  0.47018  1.0000
  S   S3        1.0  0.22098  0.39159  0.44894  1.0000
  S   S4        1.0  0.18636  0.34096  0.45939  1.0000
  H   H3        1.0  0.06515  0.41214  0.43312  1.0000
  C   C1        1.0  0.19401  0.42151  0.38875  1.0000
  C   C2        1.0  0.21418  0.42576  0.39473  1.0000
  C   C3        1.0  0.22231  0.41615  0.41301  1.0000
  C   C4        1.0  0.21023  0.40254  0.42570  1.0000
  C   C5        1.0  0.19001  0.39828  0.41977  1.0000
  C   C6        1.0  0.18203  0.40756  0.40122  1.0000
  C   C7        1.0  0.15696  0.46547  0.41686  1.0000
  H   H4        1.0  0.10985  0.41430  0.23504  1.0000
  H   H5        1.0  0.22245  0.46914  0.48019  1.0000
  H   H6        1.0  0.16649  0.40401  0.39658  1.0000
  H   H7        1.0  0.01573  0.46517  0.45888  1.0000
  H   H8        1.0  0.23188  0.24638  0.48363  1.0000
  H   H9        1.0  0.08914  0.39127  0.42083  1.0000
  H   H10       1.0  0.15949  0.48667  0.25716  1.0000
  H   H11       1.0  0.05353  0.30881  0.45529  1.0000
  H   H12       1.0  0.23753  0.48398  0.40312  1.0000
  H   H13       1.0  0.12383  0.38546  0.40404  1.0000
  H   H14       1.0  0.13413  0.42863  0.29381  1.0000
  H   H15       1.0  0.03424  0.34311  0.45126  1.0000
  C   C8        1.0  0.10331  0.34843  0.48605  1.0000
  H   H16       1.0  0.09127  0.37644  0.44438  1.0000
  H   H17       1.0  0.16927  0.46358  0.45771  1.0000
  C   C9        1.0  0.12514  0.37158  0.41491  1.0000
  H   H18       1.0  0.12741  0.47823  0.34776  1.0000
  C   C10       1.0  0.04960  0.40526  0.43545  1.0000
  C   C11       1.0  0.13709  0.46262  0.29577  1.0000
  H   H19       1.0  0.13721  0.36050  0.40841  1.0000
  H   H20       1.0  0.11540  0.44075  0.31198  1.0000
  C   C12       1.0  0.05365  0.38896  0.36886  1.0000
  C   C13       1.0  0.04244  0.33641  0.43736  1.0000
  H   H21       1.0  0.05105  0.30476  0.42754  1.0000
  C   C14       1.0  0.13166  0.44090  0.30555  1.0000
  H   H22       1.0  0.03277  0.33965  0.42344  1.0000
  H   H23       1.0  0.02810  0.30661  0.44455  1.0000
  H   H24       1.0  0.04037  0.40844  0.42121  1.0000
  C   C15       1.0  0.21735  0.48352  0.44281  1.0000
  H   H25       1.0  0.13642  0.42025  0.24033  1.0000
  C   C16       1.0  0.12710  0.45914  0.25869  1.0000
  C   C17       1.0  0.06439  0.34578  0.43426  1.0000
  H   H26       1.0  0.18937  0.43572  0.47464  1.0000
  C   C18       1.0  0.03851  0.41689  0.45335  1.0000
  H   H27       1.0  0.10685  0.34647  0.42763  1.0000
  H   H28       1.0  0.14185  0.41925  0.33046  1.0000
  H   H29       1.0  0.09499  0.45590  0.28872  1.0000
  C   C19       1.0  0.99738  0.40458  0.40568  1.0000
  H   H30       1.0  0.08234  0.38377  0.38482  1.0000
  H   H31       1.0  0.03701  0.39340  0.37221  1.0000
  S   S5        1.0  0.18815  0.47664  0.32048  1.0000
  H   H32       1.0  0.18060  0.38772  0.42936  1.0000
  C   C20       1.0  0.22749  0.46532  0.43045  1.0000
  H   H33       1.0  0.03977  0.37078  0.40430  1.0000
  C   C21       1.0  0.10425  0.36073  0.41744  1.0000
  H   H34       1.0  0.04791  0.41544  0.46766  1.0000
  H   H35       1.0  0.06045  0.40134  0.35835  1.0000
  H   H36       1.0  0.05459  0.37389  0.36061  1.0000
  H   H37       1.0  0.06472  0.40264  0.39637  1.0000
  C   C22       1.0  0.05096  0.38136  0.44037  1.0000
  H   H38       1.0  0.21386  0.43521  0.46036  1.0000
  H   H39       1.0  0.15365  0.46101  0.29015  1.0000
  S   S6        1.0  0.05185  0.47240  0.33949  1.0000
  C   C23       1.0  0.06569  0.38714  0.38914  1.0000
  H   H40       1.0  0.07224  0.34396  0.44955  1.0000
  H   H41       1.0  0.00325  0.39580  0.39244  1.0000
  H   H42       1.0  0.03454  0.37630  0.43995  1.0000
  C   C24       1.0  0.08719  0.37526  0.42763  1.0000
  H   H43       1.0  0.06099  0.35451  0.39588  1.0000
  C   C25       1.0  0.07515  0.48681  0.33958  1.0000
  C   C26       1.0  0.12067  0.42724  0.23723  1.0000
  C   C27       1.0  0.11319  0.48638  0.34303  1.0000
  H   H44       1.0  0.00261  0.44449  0.48809  1.0000
  H   H45       1.0  0.23011  0.49021  0.45163  1.0000
  H   H46       1.0  0.12141  0.43702  0.22254  1.0000
  H   H47       1.0  0.09959  0.35569  0.40186  1.0000
  H   H48       1.0  0.09340  0.46076  0.35239  1.0000
  H   H49       1.0  0.13980  0.44125  0.47674  1.0000
  C   C28       1.0  0.17256  0.47913  0.42729  1.0000
  H   H50       1.0  0.07344  0.33529  0.42348  1.0000
  N   N1        1.0  0.06498  0.36830  0.42612  1.0000
  C   C29       1.0  0.09384  0.47657  0.34580  1.0000
  H   H51       1.0  0.05575  0.37883  0.45687  1.0000
  H   H52       1.0  0.22365  0.43622  0.38509  1.0000
  H   H53       1.0  0.08858  0.48129  0.25506  1.0000
  C   C30       1.0  0.20632  0.46508  0.47613  1.0000
  C   C31       1.0  0.04397  0.31269  0.44138  1.0000
  C   C32       1.0  0.99701  0.42656  0.40471  1.0000
  S   S7        1.0  0.21691  0.28942  0.48265  1.0000
  C   C33       1.0  0.05718  0.36941  0.40399  1.0000
  C   C34       1.0  0.08512  0.36135  0.48717  1.0000
  C   C35       1.0  0.14600  0.43484  0.32362  1.0000
  N   N2        1.0  0.12347  0.47138  0.27844  1.0000
  H   H54       1.0  0.14364  0.45325  0.25751  1.0000
  H   H55       1.0  0.16518  0.45181  0.40961  1.0000
  H   H56       1.0  0.14435  0.44640  0.33622  1.0000
  H   H57       1.0  0.03611  0.47724  0.47142  1.0000
  H   H58       1.0  0.06001  0.46273  0.27535  1.0000
  H   H59       1.0  0.14498  0.45976  0.42842  1.0000
  C   C36       1.0  0.10170  0.32696  0.49065  1.0000
  C   C37       1.0  0.18228  0.46722  0.44634  1.0000
  H   H60       1.0  0.14883  0.47472  0.40437  1.0000
  C   C38       1.0  0.10094  0.47191  0.28606  1.0000
  H   H61       1.0  0.09669  0.44611  0.25211  1.0000
  H   H62       1.0  0.03647  0.43374  0.44881  1.0000
  C   C39       1.0  0.01917  0.47884  0.46852  1.0000
  C   C40       1.0  0.11278  0.44037  0.25561  1.0000
  H   H63       1.0  0.11165  0.42986  0.26963  1.0000
  H   H64       1.0  0.18805  0.45177  0.44060  1.0000
  H   H65       1.0  0.13704  0.47383  0.30875  1.0000
  S   S8        1.0  0.00817  0.36885  0.47960  1.0000
  H   H66       1.0  0.08620  0.37801  0.48387  1.0000
  H   H67       1.0  0.11551  0.31678  0.48975  1.0000
  S   S9        1.0  0.22268  0.48176  0.35648  1.0000
  S   S10       1.0  0.12699  0.35964  0.47661  1.0000
  Fe  Fe3       1.0  0.16117  0.35045  0.48324  1.0000
  H   H68       1.0  0.02286  0.41048  0.45688  1.0000
  N   N3        1.0  0.19913  0.47822  0.45733  1.0000
  H   H69       1.0  0.23503  0.45364  0.44122  1.0000
  C   C41       1.0  0.06285  0.47958  0.27751  1.0000
  H   H70       1.0  0.21575  0.45785  0.42114  1.0000
  H   H71       1.0  0.09957  0.47898  0.30171  1.0000
  N   N4        1.0  0.00641  0.47801  0.48877  1.0000
  H   H72       1.0  0.23803  0.41933  0.41738  1.0000
  H   H73       1.0  0.12512  0.46954  0.24449  1.0000
  C   C42       1.0  0.20578  0.44086  0.47470  1.0000
  H   H74       1.0  0.00316  0.43463  0.39094  1.0000
  Fe  Fe4       1.0  0.20250  0.32296  0.48592  1.0000
  H   H75       1.0  0.05223  0.48909  0.26729  1.0000
  H   H76       1.0  0.18474  0.48350  0.41536  1.0000
  H   H77       1.0  0.05905  0.48346  0.29404  1.0000
  H   H78       1.0  0.03419  0.48760  0.42780  1.0000
  C   C43       1.0  0.08552  0.48455  0.27183  1.0000
  S   S11       1.0  0.17332  0.49150  0.36828  1.0000
  H   H79       1.0  0.19636  0.46865  0.49024  1.0000
  Fe  Fe5       1.0  0.01920  0.48504  0.34893  1.0000
  H   H80       1.0  0.23367  0.48923  0.26254  1.0000
  Fe  Fe6       1.0  0.99046  0.47899  0.38738  1.0000
  C   C44       1.0  0.21015  0.31176  0.58427  1.0000
  H   H81       1.0  0.06550  0.41615  0.58542  1.0000
  S   S12       1.0  0.12620  0.46481  0.61773  1.0000
  N   N5        1.0  0.04534  0.40414  0.62460  1.0000
  C   C45       1.0  0.04896  0.38269  0.61567  1.0000
  C   C46       1.0  0.21750  0.29655  0.54221  1.0000
  H   H82       1.0  0.06235  0.42635  0.64194  1.0000
  C   C47       1.0  0.03122  0.42595  0.51293  1.0000
  S   S13       1.0  0.17434  0.48927  0.59816  1.0000
  H   H83       1.0  0.02128  0.42422  0.52740  1.0000
  Fe  Fe7       1.0  0.19334  0.35855  0.51637  1.0000
  S   S14       1.0  0.19325  0.36598  0.55089  1.0000
  S   S15       1.0  0.17556  0.33012  0.50875  1.0000
  Fe  Fe8       1.0  0.20228  0.46976  0.60772  1.0000
  S   S16       1.0  0.22144  0.45396  0.58196  1.0000
  S   S17       1.0  0.18591  0.45475  0.63563  1.0000
  C   C48       1.0  0.20127  0.39049  0.55917  1.0000
  C   C49       1.0  0.19649  0.39636  0.57979  1.0000
  C   C50       1.0  0.20218  0.41596  0.58679  1.0000
  C   C51       1.0  0.21361  0.42944  0.57349  1.0000
  C   C52       1.0  0.21893  0.42333  0.55304  1.0000
  C   C53       1.0  0.21251  0.40404  0.54578  1.0000
  H   H84       1.0  0.18828  0.38571  0.59041  1.0000
  H   H85       1.0  0.19818  0.42042  0.60263  1.0000
  C   C54       1.0  0.03094  0.44884  0.50502  1.0000
  H   H86       1.0  0.21662  0.39941  0.53002  1.0000
  H   H87       1.0  0.02046  0.43633  0.64378  1.0000
  H   H88       1.0  0.01922  0.38447  0.59871  1.0000
  C   C55       1.0  0.02800  0.40246  0.64115  1.0000
  C   C56       1.0  0.06464  0.41038  0.63555  1.0000
  H   H89       1.0  0.02168  0.42091  0.60651  1.0000
  H   H90       1.0  0.01306  0.39872  0.63391  1.0000
  H   H91       1.0  0.22795  0.43361  0.54276  1.0000
  H   H92       1.0  0.08889  0.39693  0.61385  1.0000
  H   H93       1.0  0.11809  0.41719  0.62670  1.0000
  C   C57       1.0  0.03893  0.42052  0.60822  1.0000
  C   C58       1.0  0.05953  0.48110  0.64294  1.0000
  C   C59       1.0  0.18919  0.48005  0.53836  1.0000
  H   H94       1.0  0.20118  0.27261  0.56180  1.0000
  H   H95       1.0  0.20780  0.43445  0.50828  1.0000
  H   H96       1.0  0.04255  0.43636  0.61352  1.0000
  N   N6        1.0  0.13820  0.44951  0.55085  1.0000
  C   C60       1.0  0.15269  0.46762  0.54802  1.0000
  C   C61       1.0  0.11674  0.45805  0.55721  1.0000
  C   C62       1.0  0.14592  0.43562  0.56883  1.0000
  C   C63       1.0  0.13744  0.43634  0.53160  1.0000
  C   C64       1.0  0.14088  0.44764  0.50991  1.0000
  C   C65       1.0  0.17623  0.46150  0.54610  1.0000
  C   C66       1.0  0.13090  0.41829  0.57681  1.0000
  H   H97       1.0  0.05006  0.47278  0.61245  1.0000
  H   H98       1.0  0.20841  0.30153  0.61720  1.0000
  H   H99       1.0  0.19360  0.32531  0.61094  1.0000
  H   H100      1.0  0.17367  0.29409  0.54285  1.0000
  C   C67       1.0  0.14220  0.40112  0.58969  1.0000
  H   H101      1.0  0.01967  0.36601  0.62044  1.0000
  Fe  Fe9       1.0  0.00797  0.33667  0.49428  1.0000
  H   H102      1.0  0.10561  0.44517  0.55986  1.0000
  H   H103      1.0  0.11752  0.46590  0.57252  1.0000
  H   H104      1.0  0.14932  0.44520  0.58255  1.0000
  H   H105      1.0  0.16109  0.42764  0.56442  1.0000
  H   H106      1.0  0.14952  0.42334  0.53212  1.0000
  H   H107      1.0  0.12230  0.42827  0.53141  1.0000
  H   H108      1.0  0.15724  0.45268  0.50788  1.0000
  H   H109      1.0  0.04362  0.36108  0.57823  1.0000
  H   H110      1.0  0.18179  0.45654  0.56178  1.0000
  H   H111      1.0  0.17921  0.44828  0.53545  1.0000
  H   H112      1.0  0.12353  0.41072  0.56365  1.0000
  H   H113      1.0  0.11839  0.42533  0.58704  1.0000
  H   H114      1.0  0.22264  0.29757  0.52543  1.0000
  S   S18       1.0  0.22094  0.35027  0.49525  1.0000
  C   C68       1.0  0.20842  0.31635  0.60759  1.0000
  H   H115      1.0  0.20740  0.31081  0.54428  1.0000
  H   H116      1.0  0.04741  0.42068  0.51661  1.0000
  H   H117      1.0  0.21137  0.26353  0.53704  1.0000
  C   C69       1.0  0.03494  0.35497  0.59235  1.0000
  H   H118      1.0  0.13053  0.46171  0.50797  1.0000
  H   H119      1.0  0.99914  0.45505  0.51340  1.0000
  H   H120      1.0  0.03625  0.42533  0.66452  1.0000
  C   C70       1.0  0.08524  0.41150  0.62235  1.0000
  H   H121      1.0  0.13067  0.39039  0.59714  1.0000
  H   H122      1.0  0.15284  0.39177  0.57930  1.0000
  H   H123      1.0  0.15128  0.40801  0.60216  1.0000
  C   C71       1.0  0.08361  0.46992  0.61489  1.0000
  H   H124      1.0  0.04202  0.40428  0.57829  1.0000
  H   H125      1.0  0.04821  0.45180  0.57838  1.0000
  S   S19       1.0  0.17769  0.37927  0.49230  1.0000
  H   H126      1.0  0.22704  0.33785  0.53987  1.0000
  H   H127      1.0  0.23274  0.43380  0.49404  1.0000
  H   H128      1.0  0.08606  0.46433  0.59921  1.0000
  H   H129      1.0  0.03607  0.45817  0.51814  1.0000
  S   S20       1.0  0.03381  0.48554  0.65366  1.0000
  H   H130      1.0  0.05541  0.37155  0.62782  1.0000
  C   C72       1.0  0.02922  0.37270  0.60718  1.0000
  C   C73       1.0  0.18233  0.28084  0.53532  1.0000
  C   C74       1.0  0.08201  0.31847  0.49564  1.0000
  C   C75       1.0  0.23035  0.29858  0.57894  1.0000
  S   S21       1.0  0.21161  0.47883  0.68643  1.0000
  H   H131      1.0  0.20936  0.32695  0.57548  1.0000
  H   H132      1.0  0.18421  0.28427  0.51822  1.0000
  H   H133      1.0  0.02046  0.34786  0.58714  1.0000
  H   H134      1.0  0.23847  0.34105  0.56508  1.0000
  H   H135      1.0  0.04463  0.34259  0.60037  1.0000
  H   H136      1.0  0.02548  0.43865  0.56989  1.0000
  H   H137      1.0  0.17298  0.26656  0.53759  1.0000
  C   C76       1.0  0.20365  0.27707  0.54500  1.0000
  H   H138      1.0  0.10077  0.42942  0.64558  1.0000
  H   H139      1.0  0.03147  0.38921  0.65244  1.0000
  H   H140      1.0  0.11053  0.48182  0.65769  1.0000
  H   H141      1.0  0.00603  0.40563  0.67922  1.0000
  H   H142      1.0  0.22159  0.32598  0.61210  1.0000
  H   H143      1.0  0.10616  0.40142  0.64737  1.0000
  C   C77       1.0  0.02320  0.42229  0.65414  1.0000
  H   H144      1.0  0.22805  0.28292  0.58675  1.0000
  C   C78       1.0  0.00383  0.41942  0.66837  1.0000
  S   S22       1.0  0.00606  0.46501  0.60587  1.0000
  C   C79       1.0  0.21602  0.42986  0.49350  1.0000
  Fe  Fe10      1.0  0.00387  0.48186  0.63587  1.0000
  C   C80       1.0  0.10090  0.47257  0.62748  1.0000
  H   H145      1.0  0.05170  0.36304  0.49309  1.0000
  Fe  Fe11      1.0  0.19772  0.48203  0.65349  1.0000
  Fe  Fe12      1.0  0.15820  0.47598  0.62711  1.0000
  H   H146      1.0  0.06106  0.38295  0.60290  1.0000
  C   C81       1.0  0.06549  0.35289  0.49225  1.0000
  H   H147      1.0  0.08439  0.42502  0.61107  1.0000
  C   C82       1.0  0.06310  0.47444  0.62245  1.0000
  C   C83       1.0  0.10362  0.41506  0.63640  1.0000
  H   H148      1.0  0.05013  0.43545  0.55588  1.0000
  H   H149      1.0  0.06747  0.39951  0.64927  1.0000
  N   N7        1.0  0.23625  0.29637  0.55598  1.0000
  H   H150      1.0  0.19612  0.30309  0.58038  1.0000
  C   C84       1.0  0.07684  0.48391  0.65547  1.0000
  C   C85       1.0  0.04832  0.41815  0.58566  1.0000
  C   C86       1.0  0.04267  0.43723  0.57165  1.0000
  H   H151      1.0  0.10172  0.46530  0.52741  1.0000
  H   H152      1.0  0.02538  0.41560  0.50090  1.0000
  H   H153      1.0  0.12053  0.42783  0.49283  1.0000
  C   C87       1.0  0.10595  0.47361  0.54158  1.0000
  C   C88       1.0  0.00873  0.45627  0.49869  1.0000
  H   H154      1.0  0.08087  0.30178  0.49876  1.0000
  H   H155      1.0  0.15073  0.47816  0.56157  1.0000
  C   C89       1.0  0.09742  0.47985  0.64774  1.0000
  H   H156      1.0  0.00106  0.43357  0.67787  1.0000
  H   H157      1.0  0.07468  0.47034  0.55562  1.0000
  H   H158      1.0  0.14870  0.47771  0.53421  1.0000
  H   H159      1.0  0.20596  0.47506  0.53740  1.0000
  C   C90       1.0  0.23595  0.48556  0.69714  1.0000
  C   C91       1.0  0.23872  0.48281  0.71887  1.0000
  C   C92       1.0  0.13694  0.43299  0.49207  1.0000
  H   H160      1.0  0.18432  0.48580  0.52263  1.0000
  H   H161      1.0  0.14761  0.41893  0.49293  1.0000
  H   H162      1.0  0.04623  0.48814  0.50537  1.0000
  S   S23       1.0  0.03907  0.31985  0.50129  1.0000
  H   H163      1.0  0.21515  0.41261  0.49213  1.0000
  C   C93       1.0  0.06373  0.33131  0.49610  1.0000
  H   H164      1.0  0.22594  0.47714  0.72873  1.0000
  C   C94       1.0  0.08571  0.48291  0.55123  1.0000
  H   H165      1.0  0.07431  0.48915  0.67131  1.0000
  H   H166      1.0  0.11595  0.48692  0.53698  1.0000
  H   H167      1.0  0.00789  0.48947  0.52021  1.0000
  H   H168      1.0  0.08898  0.49177  0.56541  1.0000
  H   H169      1.0  0.23865  0.26250  0.55992  1.0000
  H   H170      1.0  0.04236  0.44997  0.49170  1.0000
  H   H171      1.0  0.23107  0.58576  0.38402  1.0000
  H   H172      1.0  0.09052  0.62858  0.45213  1.0000
  C   C95       1.0  0.22442  0.58616  0.33863  1.0000
  Fe  Fe13      1.0  0.20300  0.50904  0.36813  1.0000
  S   S24       1.0  0.19885  0.52353  0.33603  1.0000
  S   S25       1.0  0.21427  0.52429  0.39716  1.0000
  H   H173      1.0  0.99788  0.62368  0.40890  1.0000
  C   C96       1.0  0.19224  0.53067  0.48732  1.0000
  S   S26       1.0  0.13854  0.51744  0.32560  1.0000
  N   N8        1.0  0.05269  0.58657  0.41960  1.0000
  H   H174      1.0  0.00797  0.63708  0.38564  1.0000
  Fe  Fe14      1.0  0.19660  0.62620  0.45878  1.0000
  S   S27       1.0  0.19343  0.61748  0.42486  1.0000
  S   S28       1.0  0.18682  0.65822  0.47067  1.0000
  C   C97       1.0  0.20620  0.54947  0.40561  1.0000
  C   C98       1.0  0.19360  0.56303  0.39345  1.0000
  C   C99       1.0  0.18938  0.58375  0.39970  1.0000
  C   C100      1.0  0.19721  0.59084  0.41844  1.0000
  C   C101      1.0  0.20892  0.57689  0.43110  1.0000
  C   C102      1.0  0.21356  0.55637  0.42459  1.0000
  H   H175      1.0  0.18757  0.55772  0.37900  1.0000
  H   H176      1.0  0.18022  0.59443  0.38989  1.0000
  H   H177      1.0  0.19498  0.59816  0.32646  1.0000
  C   C103      1.0  0.03278  0.50155  0.43777  1.0000
  H   H178      1.0  0.08725  0.50163  0.27390  1.0000
  H   H179      1.0  0.06761  0.56601  0.44266  1.0000
  H   H180      1.0  0.18522  0.50935  0.45187  1.0000
  C   C104      1.0  0.09549  0.51673  0.32747  1.0000
  H   H181      1.0  0.06187  0.51519  0.32575  1.0000
  H   H182      1.0  0.02288  0.57898  0.45601  1.0000
  H   H183      1.0  0.02803  0.55649  0.44013  1.0000
  C   C105      1.0  0.23450  0.56544  0.34757  1.0000
  H   H184      1.0  0.03620  0.61415  0.43103  1.0000
  H   H185      1.0  0.21751  0.51744  0.46906  1.0000
  H   H186      1.0  0.01380  0.51315  0.46363  1.0000
  C   C106      1.0  0.07215  0.59860  0.41426  1.0000
  C   C107      1.0  0.02898  0.61273  0.39818  1.0000
  H   H187      1.0  0.01972  0.59384  0.42452  1.0000
  H   H188      1.0  0.09289  0.57026  0.41246  1.0000
  C   C108      1.0  0.15702  0.51989  0.26215  1.0000
  H   H189      1.0  0.23256  0.77796  0.46860  1.0000
  C   C109      1.0  0.07605  0.50720  0.33089  1.0000
  H   H190      1.0  0.04276  0.62011  0.39056  1.0000
  H   H191      1.0  0.05841  0.59049  0.45253  1.0000
  H   H192      1.0  0.05191  0.58580  0.37452  1.0000
  H   H193      1.0  0.19236  0.77080  0.46090  1.0000
  H   H194      1.0  0.12460  0.50383  0.28723  1.0000
  H   H195      1.0  0.21503  0.58218  0.44556  1.0000
  H   H196      1.0  0.07520  0.57140  0.38155  1.0000
  H   H197      1.0  0.23306  0.59184  0.32438  1.0000
  C   C110      1.0  0.01538  0.49874  0.45440  1.0000
  H   H198      1.0  0.18654  0.54119  0.47437  1.0000
  C   C111      1.0  0.03416  0.60179  0.41942  1.0000
  C   C112      1.0  0.05450  0.57784  0.44178  1.0000
  H   H199      1.0  0.17405  0.52201  0.25952  1.0000
  H   H200      1.0  0.09606  0.53209  0.31985  1.0000
  H   H201      1.0  0.10988  0.59820  0.39007  1.0000
  H   H202      1.0  0.12636  0.58892  0.41098  1.0000
  H   H203      1.0  0.11248  0.61380  0.41301  1.0000
  Fe  Fe15      1.0  0.01673  0.62654  0.48449  1.0000
  H   H204      1.0  0.16387  0.49355  0.43218  1.0000
  H   H205      1.0  0.07226  0.61302  0.42366  1.0000
  H   H206      1.0  0.22326  0.54596  0.43414  1.0000
  S   S29       1.0  0.04811  0.63311  0.46793  1.0000
  H   H207      1.0  0.03267  0.56506  0.40477  1.0000
  H   H208      1.0  0.07235  0.60451  0.39776  1.0000
  H   H209      1.0  0.05726  0.55387  0.41148  1.0000
  H   H210      1.0  0.05811  0.55476  0.35290  1.0000
  H   H211      1.0  0.03439  0.55223  0.36849  1.0000
  H   H212      1.0  0.21660  0.70163  0.44876  1.0000
  H   H213      1.0  0.02274  0.60118  0.38754  1.0000
  H   H214      1.0  0.15126  0.53090  0.27434  1.0000
  H   H215      1.0  0.05787  0.53767  0.37589  1.0000
  C   C113      1.0  0.21439  0.73589  0.47504  1.0000
  C   C114      1.0  0.05790  0.57114  0.38221  1.0000
  H   H216      1.0  0.05096  0.54051  0.46695  1.0000
  C   C115      1.0  0.15317  0.49727  0.26942  1.0000
  H   H217      1.0  0.09615  0.58560  0.43519  1.0000
  H   H218      1.0  0.02899  0.51550  0.42756  1.0000
  H   H219      1.0  0.03910  0.50959  0.48826  1.0000
  Fe  Fe16      1.0  0.99109  0.52066  0.36413  1.0000
  H   H220      1.0  0.14905  0.52376  0.24727  1.0000
  C   C116      1.0  0.09114  0.63258  0.46838  1.0000
  H   H221      1.0  0.21265  0.49610  0.43132  1.0000
  C   C117      1.0  0.11153  0.59759  0.40734  1.0000
  H   H222      1.0  0.12495  0.63339  0.46785  1.0000
  C   C118      1.0  0.01217  0.63005  0.40113  1.0000
  S   S30       1.0  0.22572  0.62348  0.47764  1.0000
  Fe  Fe17      1.0  0.17025  0.50369  0.33533  1.0000
  C   C119      1.0  0.20186  0.58308  0.33260  1.0000
  C   C120      1.0  0.09316  0.58649  0.41813  1.0000
  H   H223      1.0  0.17505  0.49564  0.47452  1.0000
  C   C121      1.0  0.04959  0.56859  0.40522  1.0000
  H   H224      1.0  0.23242  0.55336  0.33572  1.0000
  C   C122      1.0  0.03493  0.56698  0.45137  1.0000
  S   S31       1.0  0.01613  0.50103  0.37960  1.0000
  H   H225      1.0  0.04777  0.56362  0.48257  1.0000
  C   C123      1.0  0.11423  0.50623  0.33314  1.0000
  C   C124      1.0  0.05166  0.55281  0.36916  1.0000
  C   C125      1.0  0.20408  0.51155  0.47866  1.0000
  H   H226      1.0  0.18164  0.72973  0.46812  1.0000
  H   H227      1.0  0.02571  0.54765  0.47839  1.0000
  H   H228      1.0  0.22414  0.59864  0.35032  1.0000
  C   C126      1.0  0.11072  0.63537  0.47725  1.0000
  H   H229      1.0  0.16210  0.49435  0.28390  1.0000
  C   C127      1.0  0.07243  0.63535  0.48027  1.0000
  C   C128      1.0  0.18971  0.49862  0.46519  1.0000
  H   H230      1.0  0.01804  0.64260  0.41085  1.0000
  C   C129      1.0  0.04026  0.55387  0.47103  1.0000
  C   C130      1.0  0.12958  0.49381  0.27392  1.0000
  H   H231      1.0  0.20122  0.57130  0.32024  1.0000
  H   H232      1.0  0.19229  0.57785  0.34646  1.0000
  H   H233      1.0  0.22491  0.56015  0.36144  1.0000
  H   H234      1.0  0.20334  0.72354  0.43546  1.0000
  H   H235      1.0  0.12119  0.50060  0.26016  1.0000
  S   S32       1.0  0.99557  0.50643  0.33245  1.0000
  C   C131      1.0  0.20184  0.71126  0.44809  1.0000
  Fe  Fe18      1.0  0.21733  0.49538  0.32385  1.0000
  S   S33       1.0  0.17679  0.60866  0.48232  1.0000
  H   H236      1.0  0.18906  0.70087  0.44416  1.0000
  H   H237      1.0  0.00069  0.49715  0.44600  1.0000
  H   H238      1.0  0.22901  0.72616  0.47603  1.0000
  H   H239      1.0  0.21702  0.74666  0.46133  1.0000
  H   H240      1.0  0.04791  0.50396  0.44519  1.0000
  C   C132      1.0  0.19688  0.72110  0.46923  1.0000
  H   H241      1.0  0.16785  0.80109  0.46348  1.0000
  H   H242      1.0  0.19538  0.70795  0.48092  1.0000
  C   C133      1.0  0.16841  0.78907  0.47644  1.0000
  C   C134      1.0  0.18992  0.77798  0.47638  1.0000
  H   H243      1.0  0.20158  0.79019  0.47822  1.0000
  H   H244      1.0  0.15602  0.77767  0.47410  1.0000
  S   S34       1.0  0.21579  0.49547  0.62588  1.0000
  H   H245      1.0  0.20292  0.53963  0.49673  1.0000
  C   C135      1.0  0.20263  0.54143  0.67734  1.0000
  H   H246      1.0  0.18744  0.49306  0.54948  1.0000
  C   C136      1.0  0.22994  0.76039  0.49918  1.0000
  H   H247      1.0  0.22554  0.77363  0.50954  1.0000
  S   S35       1.0  0.99647  0.64286  0.50909  1.0000
  C   C137      1.0  0.11180  0.64149  0.49800  1.0000
  H   H248      1.0  0.15480  0.60511  0.56792  1.0000
  H   H249      1.0  0.21022  0.50220  0.49219  1.0000
  Fe  Fe19      1.0  0.18608  0.51364  0.61858  1.0000
  S   S36       1.0  0.18346  0.54819  0.60932  1.0000
  S   S37       1.0  0.16835  0.50188  0.64729  1.0000
  H   H250      1.0  0.14321  0.58172  0.49552  1.0000
  H   H251      1.0  0.11542  0.61565  0.57465  1.0000
  S   S38       1.0  0.13593  0.64655  0.50961  1.0000
  H   H252      1.0  0.00392  0.52987  0.59069  1.0000
  H   H253      1.0  0.11104  0.57116  0.52735  1.0000
  C   C138      1.0  0.21751  0.55614  0.66549  1.0000
  H   H254      1.0  0.16433  0.56378  0.50243  1.0000
  S   S39       1.0  0.21374  0.57673  0.51765  1.0000
  S   S40       1.0  0.19577  0.63847  0.51746  1.0000
  H   H255      1.0  0.13970  0.64989  0.55602  1.0000
  H   H256      1.0  0.15144  0.61548  0.54154  1.0000
  H   H257      1.0  0.22861  0.56157  0.67694  1.0000
  C   C139      1.0  0.19099  0.55581  0.58349  1.0000
  C   C140      1.0  0.18941  0.57704  0.57721  1.0000
  C   C141      1.0  0.19581  0.58365  0.55685  1.0000
  C   C142      1.0  0.20418  0.56904  0.54281  1.0000
  C   C143      1.0  0.20570  0.54777  0.54911  1.0000
  C   C144      1.0  0.19895  0.54113  0.56931  1.0000
  H   H258      1.0  0.18345  0.58846  0.58821  1.0000
  H   H259      1.0  0.19477  0.60008  0.55217  1.0000
  H   H260      1.0  0.21231  0.53642  0.53836  1.0000
  H   H261      1.0  0.20035  0.52474  0.57405  1.0000
  Fe  Fe20      1.0  0.16871  0.63995  0.49559  1.0000
  H   H262      1.0  0.22752  0.61610  0.60789  1.0000
  H   H263      1.0  0.19234  0.74989  0.53760  1.0000
  C   C145      1.0  0.14539  0.61597  0.55796  1.0000
  H   H264      1.0  0.08788  0.57109  0.55537  1.0000
  C   C146      1.0  0.03505  0.50153  0.50337  1.0000
  C   C147      1.0  0.05634  0.59682  0.54627  1.0000
  C   C148      1.0  0.13445  0.53644  0.58407  1.0000
  C   C149      1.0  0.09297  0.58714  0.55857  1.0000
  H   H265      1.0  0.00246  0.50931  0.50107  1.0000
  C   C150      1.0  0.11927  0.55116  0.57228  1.0000
  C   C151      1.0  0.22887  0.54492  0.64698  1.0000
  C   C152      1.0  0.14432  0.57278  0.52878  1.0000
  S   S41       1.0  0.01536  0.59481  0.50019  1.0000
  H   H266      1.0  0.22040  0.75012  0.53846  1.0000
  C   C153      1.0  0.01202  0.49462  0.50382  1.0000
  H   H267      1.0  0.08035  0.61869  0.55016  1.0000
  H   H268      1.0  0.05029  0.59722  0.56274  1.0000
  H   H269      1.0  0.05407  0.58102  0.54010  1.0000
  H   H270      1.0  0.04701  0.60840  0.53679  1.0000
  C   C154      1.0  0.20840  0.73172  0.51277  1.0000
  H   H271      1.0  0.12039  0.59663  0.52221  1.0000
  H   H272      1.0  0.08453  0.60199  0.52808  1.0000
  H   H273      1.0  0.08839  0.58990  0.57527  1.0000
  Fe  Fe21      1.0  0.21494  0.65439  0.49136  1.0000
  H   H274      1.0  0.09372  0.64920  0.52586  1.0000
  C   C155      1.0  0.03855  0.51697  0.52063  1.0000
  C   C156      1.0  0.07356  0.64083  0.50122  1.0000
  C   C157      1.0  0.12192  0.61088  0.55906  1.0000
  C   C158      1.0  0.99975  0.53869  0.57670  1.0000
  H   H275      1.0  0.20802  0.56985  0.65967  1.0000
  H   H276      1.0  0.05504  0.52181  0.51997  1.0000
  H   H277      1.0  0.11761  0.54520  0.55632  1.0000
  H   H278      1.0  0.14991  0.53570  0.57572  1.0000
  H   H279      1.0  0.12827  0.52038  0.58525  1.0000
  H   H280      1.0  0.22866  0.59821  0.58642  1.0000
  N   N9        1.0  0.21096  0.74773  0.49500  1.0000
  H   H281      1.0  0.10382  0.55035  0.58063  1.0000
  H   H282      1.0  0.19468  0.54971  0.69051  1.0000
  C   C159      1.0  0.12214  0.58263  0.53301  1.0000
  H   H283      1.0  0.13652  0.54190  0.60020  1.0000
  H   H284      1.0  0.19316  0.71228  0.54954  1.0000
  C   C160      1.0  0.12660  0.57415  0.57147  1.0000
  H   H285      1.0  0.19407  0.72264  0.51111  1.0000
  N   N10       1.0  0.11639  0.58851  0.55526  1.0000
  H   H286      1.0  0.15672  0.58331  0.53305  1.0000
  C   C161      1.0  0.14883  0.63807  0.56541  1.0000
  H   H287      1.0  0.12372  0.58039  0.58744  1.0000
  H   H288      1.0  0.16563  0.64167  0.56345  1.0000
  H   H289      1.0  0.05933  0.64327  0.51049  1.0000
  H   H290      1.0  0.14385  0.57370  0.56933  1.0000
  H   H291      1.0  0.19053  0.53623  0.66677  1.0000
  H   H292      1.0  0.02836  0.53126  0.51852  1.0000
  C   C162      1.0  0.07939  0.60239  0.54480  1.0000
  C   C163      1.0  0.09311  0.64416  0.50991  1.0000
  Fe  Fe22      1.0  0.99382  0.61034  0.52347  1.0000
  H   H293      1.0  0.14415  0.63932  0.58222  1.0000
  Fe  Fe23      1.0  0.20484  0.60820  0.50235  1.0000
  H   H294      1.0  0.21651  0.54083  0.63624  1.0000
  H   H295      1.0  0.22755  0.53339  0.60423  1.0000
  H   H296      1.0  0.11463  0.62182  0.54730  1.0000
  H   H297      1.0  0.14672  0.55778  0.53774  1.0000
  H   H298      1.0  0.21129  0.52746  0.68387  1.0000
  H   H299      1.0  0.03509  0.50965  0.53633  1.0000
  H   H300      1.0  0.20554  0.72874  0.56759  1.0000
  C   C164      1.0  0.23808  0.60624  0.59788  1.0000
  C   C165      1.0  0.00138  0.56056  0.57594  1.0000
  H   H301      1.0  0.07811  0.49386  0.53973  1.0000
  S   S42       1.0  0.99808  0.59942  0.55674  1.0000
  C   C166      1.0  0.23549  0.57617  0.62476  1.0000
  C   C167      1.0  0.99074  0.56152  0.53994  1.0000
  H   H302      1.0  0.23526  0.52951  0.65296  1.0000
  H   H303      1.0  0.22167  0.72010  0.51231  1.0000
  H   H304      1.0  0.22812  0.58664  0.63663  1.0000
  C   C168      1.0  0.99317  0.52834  0.55923  1.0000
  H   H305      1.0  0.00632  0.56855  0.58953  1.0000
  C   C169      1.0  0.20695  0.74034  0.53524  1.0000
  C   C170      1.0  0.14760  0.56790  0.50564  1.0000
  H   H306      1.0  0.18969  0.77048  0.50919  1.0000
  H   H307      1.0  0.22232  0.57161  0.61506  1.0000
  C   C171      1.0  0.99676  0.57203  0.55757  1.0000
  S   S43       1.0  0.23664  0.68026  0.50218  1.0000
  H   H308      1.0  0.22135  0.71254  0.55030  1.0000
  H   H309      1.0  0.17887  0.52584  0.49763  1.0000
  C   C172      1.0  0.20673  0.72234  0.55163  1.0000
  H   H310      1.0  0.13804  0.55452  0.50156  1.0000
  H   H311      1.0  0.17732  0.75171  0.49458  1.0000
  C   C173      1.0  0.19140  0.76149  0.49459  1.0000
  H   H312      1.0  0.16522  0.79703  0.49147  1.0000
  H   H313      1.0  0.45743  0.31332  0.15938  1.0000
  C   C174      1.0  0.40039  0.09584  0.32616  1.0000
  H   H314      1.0  0.48423  0.06134  0.36697  1.0000
  H   H315      1.0  0.37298  0.01832  0.35192  1.0000
  H   H316      1.0  0.35803  0.47845  0.28547  1.0000
  C   C175      1.0  0.47082  0.46005  0.03689  1.0000
  C   C176      1.0  0.47007  0.04418  0.47276  1.0000
  C   C177      1.0  0.43726  0.05722  0.40234  1.0000
  H   H317      1.0  0.39016  0.05728  0.47028  1.0000
  H   H318      1.0  0.38492  0.12498  0.31593  1.0000
  Fe  Fe24      1.0  0.48085  0.21277  0.33185  1.0000
  H   H319      1.0  0.39105  0.04275  0.37371  1.0000
  C   C178      1.0  0.39808  0.00944  0.42891  1.0000
  H   H320      1.0  0.43307  0.04056  0.40454  1.0000
  H   H321      1.0  0.44558  0.07468  0.32493  1.0000
  C   C179      1.0  0.48455  0.19393  0.48064  1.0000
  H   H322      1.0  0.40156  0.33330  0.16212  1.0000
  H   H323      1.0  0.42954  0.12301  0.45538  1.0000
  H   H324      1.0  0.43118  0.03955  0.36579  1.0000
  C   C180      1.0  0.39617  0.08941  0.46012  1.0000
  Fe  Fe25      1.0  0.35185  0.19478  0.46844  1.0000
  H   H325      1.0  0.44358  0.29331  0.17298  1.0000
  H   H326      1.0  0.46112  0.46919  0.04828  1.0000
  H   H327      1.0  0.46831  0.35068  0.05628  1.0000
  Fe  Fe26      1.0  0.46862  0.20123  0.37806  1.0000
  S   S44       1.0  0.45334  0.21040  0.40898  1.0000
  S   S45       1.0  0.45433  0.19462  0.34751  1.0000
  H   H328      1.0  0.44855  0.46329  0.14846  1.0000
  H   H329      1.0  0.43299  0.06541  0.41697  1.0000
  C   C181      1.0  0.41825  0.99909  0.39789  1.0000
  H   H330      1.0  0.46591  0.27569  0.06902  1.0000
  C   C182      1.0  0.34827  0.27710  0.47310  1.0000
  S   S46       1.0  0.46946  0.34823  0.13310  1.0000
  Fe  Fe27      1.0  0.47583  0.37202  0.20550  1.0000
  S   S47       1.0  0.45729  0.39935  0.21914  1.0000
  S   S48       1.0  0.46545  0.34077  0.19515  1.0000
  Fe  Fe28      1.0  0.36054  0.46330  0.18522  1.0000
  S   S49       1.0  0.36852  0.42852  0.18542  1.0000
  S   S50       1.0  0.33156  0.47523  0.16935  1.0000
  H   H331      1.0  0.46140  0.28222  0.29274  1.0000
  S   S51       1.0  0.35842  0.19436  0.43354  1.0000
  H   H332      1.0  0.40046  0.47630  0.05574  1.0000
  H   H333      1.0  0.42722  0.33860  0.17069  1.0000
  C   C183      1.0  0.47681  0.34493  0.06978  1.0000
  H   H334      1.0  0.33655  0.24484  0.45047  1.0000
  C   C184      1.0  0.48680  0.28060  0.16847  1.0000
  C   C185      1.0  0.43313  0.40751  0.20857  1.0000
  C   C186      1.0  0.42158  0.39407  0.19691  1.0000
  C   C187      1.0  0.40170  0.40060  0.18999  1.0000
  C   C188      1.0  0.39354  0.42077  0.19415  1.0000
  C   C189      1.0  0.40539  0.43443  0.20521  1.0000
  C   C190      1.0  0.42500  0.42771  0.21263  1.0000
  H   H335      1.0  0.42769  0.37845  0.19379  1.0000
  H   H336      1.0  0.39259  0.38996  0.18145  1.0000
  H   H337      1.0  0.39927  0.45003  0.20845  1.0000
  H   H338      1.0  0.43383  0.43816  0.22169  1.0000
  C   C191      1.0  0.42693  0.20538  0.41513  1.0000
  C   C192      1.0  0.41297  0.20002  0.39993  1.0000
  C   C193      1.0  0.39187  0.19675  0.40560  1.0000
  C   C194      1.0  0.38475  0.19871  0.42647  1.0000
  C   C195      1.0  0.39877  0.20392  0.44162  1.0000
  C   C196      1.0  0.41974  0.20722  0.43593  1.0000
  H   H339      1.0  0.41835  0.19873  0.38380  1.0000
  H   H340      1.0  0.38107  0.19277  0.39379  1.0000
  H   H341      1.0  0.39347  0.20552  0.45775  1.0000
  H   H342      1.0  0.43046  0.21127  0.44767  1.0000
  H   H343      1.0  0.46107  0.30183  0.07809  1.0000
  C   C197      1.0  0.34231  0.48957  0.05407  1.0000
  H   H344      1.0  0.25186  0.45954  0.40683  1.0000
  H   H345      1.0  0.41829  0.23917  0.47991  1.0000
  H   H346      1.0  0.46428  0.05320  0.48641  1.0000
  H   H347      1.0  0.39884  0.44900  0.04942  1.0000
  H   H348      1.0  0.40936  0.37250  0.14113  1.0000
  S   S52       1.0  0.32008  0.18782  0.48241  1.0000
  H   H349      1.0  0.32008  0.28984  0.46017  1.0000
  H   H350      1.0  0.24737  0.27732  0.44237  1.0000
  C   C198      1.0  0.41453  0.45437  0.07854  1.0000
  H   H351      1.0  0.28368  0.26738  0.45296  1.0000
  H   H352      1.0  0.35922  0.04019  0.33906  1.0000
  H   H353      1.0  0.40749  0.03267  0.34055  1.0000
  Fe  Fe29      1.0  0.46112  0.37239  0.99349  1.0000
  H   H354      1.0  0.44802  0.04271  0.28783  1.0000
  H   H355      1.0  0.36423  0.39647  0.00616  1.0000
  H   H356      1.0  0.33665  0.13915  0.46458  1.0000
  H   H357      1.0  0.43115  0.17511  0.48425  1.0000
  H   H358      1.0  0.32592  0.44373  0.21054  1.0000
  H   H359      1.0  0.42039  0.26452  0.12769  1.0000
  H   H360      1.0  0.48430  0.45248  0.04499  1.0000
  H   H361      1.0  0.31743  0.41435  0.27605  1.0000
  H   H362      1.0  0.31762  0.46961  0.24403  1.0000
  C   C199      1.0  0.39253  0.13457  0.40286  1.0000
  H   H363      1.0  0.47584  0.23619  0.46996  1.0000
  H   H364      1.0  0.38719  0.09849  0.42864  1.0000
  C   C200      1.0  0.29185  0.44407  0.26838  1.0000
  C   C201      1.0  0.24446  0.47307  0.41505  1.0000
  C   C202      1.0  0.43557  0.99498  0.41034  1.0000
  C   C203      1.0  0.47684  0.09382  0.35850  1.0000
  S   S53       1.0  0.31713  0.04652  0.48123  1.0000
  H   H365      1.0  0.29418  0.45077  0.18966  1.0000
  S   S54       1.0  0.42045  0.99539  0.37078  1.0000
  C   C204      1.0  0.29073  0.27030  0.43701  1.0000
  H   H366      1.0  0.38878  0.11804  0.40045  1.0000
  C   C205      1.0  0.46964  0.35004  0.09012  1.0000
  H   H367      1.0  0.29557  0.28688  0.43696  1.0000
  H   H368      1.0  0.45558  0.35971  0.09209  1.0000
  C   C206      1.0  0.32351  0.25673  0.45170  1.0000
  N   N11       1.0  0.39862  0.12644  0.44248  1.0000
  C   C207      1.0  0.39911  0.10301  0.43970  1.0000
  C   C208      1.0  0.40600  0.13710  0.42224  1.0000
  C   C209      1.0  0.41417  0.13100  0.45896  1.0000
  C   C210      1.0  0.37734  0.13505  0.44951  1.0000
  C   C211      1.0  0.35788  0.12398  0.44188  1.0000
  C   C212      1.0  0.41839  0.15454  0.46193  1.0000
  H   H369      1.0  0.46975  0.20643  0.45199  1.0000
  H   H370      1.0  0.34356  0.41555  0.00079  1.0000
  C   C213      1.0  0.33781  0.13644  0.44749  1.0000
  H   H371      1.0  0.46827  0.02672  0.29989  1.0000
  C   C214      1.0  0.32969  0.48403  0.07170  1.0000
  H   H372      1.0  0.40658  0.15437  0.42396  1.0000
  H   H373      1.0  0.42232  0.13171  0.41822  1.0000
  H   H374      1.0  0.37567  0.13452  0.46693  1.0000
  H   H375      1.0  0.37566  0.15199  0.44488  1.0000
  H   H376      1.0  0.35663  0.10820  0.44956  1.0000
  H   H377      1.0  0.35844  0.12201  0.42475  1.0000
  C   C215      1.0  0.30782  0.08809  0.48818  1.0000
  H   H378      1.0  0.40375  0.16419  0.46145  1.0000
  H   H379      1.0  0.42913  0.16044  0.44923  1.0000
  C   C216      1.0  0.30081  0.43457  0.19195  1.0000
  H   H380      1.0  0.41430  0.09785  0.43228  1.0000
  H   H381      1.0  0.28666  0.42493  0.23166  1.0000
  H   H382      1.0  0.41338  0.31637  0.18187  1.0000
  C   C217      1.0  0.35422  0.40348  0.99370  1.0000
  C   C218      1.0  0.34740  0.38899  0.25559  1.0000
  H   H383      1.0  0.33740  0.15183  0.43886  1.0000
  H   H384      1.0  0.32404  0.12757  0.44319  1.0000
  C   C219      1.0  0.34128  0.41212  0.25192  1.0000
  N   N12       1.0  0.30945  0.25579  0.43329  1.0000
  C   C220      1.0  0.32062  0.26265  0.41320  1.0000
  C   C221      1.0  0.30312  0.23339  0.43126  1.0000
  C   C222      1.0  0.28813  0.22471  0.44875  1.0000
  C   C223      1.0  0.27333  0.26972  0.42072  1.0000
  C   C224      1.0  0.34221  0.25164  0.40871  1.0000
  C   C225      1.0  0.28201  0.20239  0.44426  1.0000
  C   C226      1.0  0.35156  0.25896  0.38754  1.0000
  H   H385      1.0  0.31487  0.25226  0.46637  1.0000
  H   H386      1.0  0.32276  0.27989  0.41267  1.0000
  H   H387      1.0  0.31082  0.25979  0.39956  1.0000
  H   H388      1.0  0.29585  0.23125  0.41591  1.0000
  H   H389      1.0  0.31715  0.22263  0.43119  1.0000
  H   H390      1.0  0.27346  0.23430  0.45009  1.0000
  H   H391      1.0  0.29570  0.22435  0.46412  1.0000
  H   H392      1.0  0.27913  0.27578  0.40521  1.0000
  H   H393      1.0  0.26781  0.25364  0.41886  1.0000
  H   H394      1.0  0.34087  0.23438  0.40837  1.0000
  H   H395      1.0  0.35355  0.25518  0.42079  1.0000
  H   H396      1.0  0.29610  0.19195  0.44232  1.0000
  H   H397      1.0  0.27225  0.19611  0.45756  1.0000
  H   H398      1.0  0.27282  0.20229  0.42981  1.0000
  C   C227      1.0  0.41508  0.45084  0.00262  1.0000
  H   H399      1.0  0.36700  0.25088  0.38485  1.0000
  H   H400      1.0  0.34125  0.25507  0.37466  1.0000
  C   C228      1.0  0.27239  0.43023  0.26987  1.0000
  H   H401      1.0  0.47071  0.30341  0.26058  1.0000
  C   C229      1.0  0.47843  0.47427  0.01877  1.0000
  H   H402      1.0  0.42566  0.09630  0.34774  1.0000
  H   H403      1.0  0.45731  0.03812  0.33477  1.0000
  H   H404      1.0  0.25197  0.48810  0.22763  1.0000
  C   C230      1.0  0.41580  0.42925  0.00719  1.0000
  C   C231      1.0  0.25853  0.43553  0.28902  1.0000
  H   H405      1.0  0.40498  0.44606  0.15826  1.0000
  H   H406      1.0  0.25889  0.29989  0.42928  1.0000
  S   S55       1.0  0.46330  0.13342  0.34564  1.0000
  H   H407      1.0  0.40859  0.06695  0.38801  1.0000
  C   C232      1.0  0.46366  0.27765  0.10290  1.0000
  H   H408      1.0  0.48736  0.46429  0.00749  1.0000
  H   H409      1.0  0.42361  0.43929  0.07801  1.0000
  H   H410      1.0  0.34098  0.28481  0.44129  1.0000
  H   H411      1.0  0.25332  0.45231  0.28829  1.0000
  H   H412      1.0  0.27699  0.41333  0.27106  1.0000
  H   H413      1.0  0.47451  0.01159  0.46444  1.0000
  H   H414      1.0  0.37544  0.06645  0.44809  1.0000
  H   H415      1.0  0.43591  0.29237  0.11645  1.0000
  H   H416      1.0  0.33797  0.45088  0.24096  1.0000
  H   H417      1.0  0.46103  0.46988  0.21667  1.0000
  H   H418      1.0  0.46285  0.41941  0.06670  1.0000
  H   H419      1.0  0.35181  0.42138  0.26121  1.0000
  H   H420      1.0  0.40921  0.15872  0.38465  1.0000
  H   H421      1.0  0.44513  0.21097  0.48075  1.0000
  H   H422      1.0  0.28794  0.42332  0.19235  1.0000
  H   H423      1.0  0.38666  0.08658  0.32266  1.0000
  H   H424      1.0  0.40265  0.23462  0.14467  1.0000
  H   H425      1.0  0.37779  0.14409  0.40467  1.0000
  H   H426      1.0  0.40218  0.46041  0.00861  1.0000
  S   S56       1.0  0.35337  0.99714  0.46337  1.0000
  H   H427      1.0  0.42743  0.43194  0.14721  1.0000
  H   H428      1.0  0.28982  0.45242  0.22811  1.0000
  H   H429      1.0  0.32721  0.42279  0.12152  1.0000
  H   H430      1.0  0.31536  0.47597  0.06952  1.0000
  H   H431      1.0  0.36415  0.38633  0.25110  1.0000
  C   C233      1.0  0.33303  0.46108  0.27278  1.0000
  H   H432      1.0  0.48067  0.48771  0.22322  1.0000
  H   H433      1.0  0.47009  0.16767  0.45017  1.0000
  C   C234      1.0  0.41198  0.08631  0.34538  1.0000
  Fe  Fe30      1.0  0.33772  0.01742  0.48786  1.0000
  C   C235      1.0  0.44851  0.22577  0.48830  1.0000
  H   H434      1.0  0.45364  0.06485  0.45077  1.0000
  H   H435      1.0  0.46791  0.09671  0.37280  1.0000
  H   H436      1.0  0.40142  0.08870  0.35922  1.0000
  H   H437      1.0  0.33384  0.44463  0.13680  1.0000
  H   H438      1.0  0.45879  0.03871  0.44158  1.0000
  H   H439      1.0  0.26269  0.43309  0.25590  1.0000
  H   H440      1.0  0.32104  0.47061  0.28150  1.0000
  H   H441      1.0  0.38606  0.00990  0.39765  1.0000
  H   H442      1.0  0.43845  0.04356  0.46128  1.0000
  H   H443      1.0  0.45950  0.26098  0.10503  1.0000
  H   H444      1.0  0.46699  0.39222  0.06062  1.0000
  H   H445      1.0  0.29222  0.08446  0.48373  1.0000
  C   C236      1.0  0.47397  0.40794  0.05936  1.0000
  H   H446      1.0  0.46456  0.48075  0.01076  1.0000
  H   H447      1.0  0.48412  0.17953  0.42824  1.0000
  N   N13       1.0  0.45624  0.28455  0.14243  1.0000
  C   C237      1.0  0.43425  0.99809  0.43188  1.0000
  C   C238      1.0  0.45274  0.29133  0.11990  1.0000
  H   H448      1.0  0.28611  0.46048  0.26522  1.0000
  C   C239      1.0  0.44641  0.30054  0.15707  1.0000
  H   H449      1.0  0.45440  0.05805  0.39945  1.0000
  H   H450      1.0  0.47975  0.43692  0.22053  1.0000
  H   H451      1.0  0.38358  0.09608  0.47044  1.0000
  N   N14       1.0  0.30868  0.43798  0.25238  1.0000
  H   H452      1.0  0.41769  0.13219  0.37906  1.0000
  H   H453      1.0  0.43711  0.45655  0.17383  1.0000
  C   C240      1.0  0.47226  0.02062  0.47902  1.0000
  C   C241      1.0  0.43152  0.05688  0.36315  1.0000
  H   H454      1.0  0.44026  0.28330  0.07906  1.0000
  H   H455      1.0  0.36515  0.46549  0.26151  1.0000
  Fe  Fe31      1.0  0.38199  0.00042  0.48192  1.0000
  H   H456      1.0  0.34483  0.41873  0.14285  1.0000
  C   C242      1.0  0.40389  0.14252  0.38289  1.0000
  H   H457      1.0  0.42331  0.23079  0.16304  1.0000
  H   H458      1.0  0.41246  0.37653  0.11315  1.0000
  C   C243      1.0  0.41542  0.00488  0.44129  1.0000
  H   H459      1.0  0.31149  0.43103  0.17840  1.0000
  H   H460      1.0  0.47965  0.26693  0.17661  1.0000
  H   H461      1.0  0.41098  0.09662  0.31210  1.0000
  H   H462      1.0  0.35485  0.03466  0.36668  1.0000
  C   C244      1.0  0.48803  0.46951  0.19461  1.0000
  C   C245      1.0  0.43256  0.41676  0.99974  1.0000
  C   C246      1.0  0.40154  0.04919  0.34131  1.0000
  H   H463      1.0  0.42469  0.46665  0.08413  1.0000
  H   H464      1.0  0.42488  0.06494  0.31033  1.0000
  C   C247      1.0  0.39949  0.00652  0.40718  1.0000
  H   H465      1.0  0.39402  0.05246  0.32604  1.0000
  C   C248      1.0  0.45726  0.28511  0.08098  1.0000
  C   C249      1.0  0.42483  0.25964  0.14378  1.0000
  H   H466      1.0  0.40313  0.42216  0.01617  1.0000
  H   H467      1.0  0.39314  0.14277  0.36962  1.0000
  H   H468      1.0  0.43564  0.02762  0.32189  1.0000
  H   H469      1.0  0.41086  0.08875  0.46894  1.0000
  C   C250      1.0  0.29848  0.43729  0.23142  1.0000
  C   C251      1.0  0.24187  0.27766  0.48875  1.0000
  C   C252      1.0  0.39089  0.06686  0.45546  1.0000
  S   S57       1.0  0.35542  0.48290  0.21347  1.0000
  C   C253      1.0  0.45426  0.04798  0.45553  1.0000
  N   N15       1.0  0.41935  0.06364  0.34400  1.0000
  C   C254      1.0  0.47886  0.11005  0.34324  1.0000
  H   H470      1.0  0.40880  0.12448  0.47451  1.0000
  H   H471      1.0  0.43073  0.38747  0.13058  1.0000
  H   H472      1.0  0.30853  0.40407  0.25272  1.0000
  H   H473      1.0  0.38099  0.11853  0.34339  1.0000
  C   C255      1.0  0.48420  0.17652  0.44546  1.0000
  C   C256      1.0  0.45864  0.04141  0.30125  1.0000
  N   N16       1.0  0.39763  0.44233  0.11437  1.0000
  C   C257      1.0  0.37680  0.44373  0.12603  1.0000
  C   C258      1.0  0.41308  0.45513  0.12546  1.0000
  C   C259      1.0  0.39464  0.45247  0.09290  1.0000
  C   C260      1.0  0.40580  0.41999  0.11193  1.0000
  C   C261      1.0  0.40028  0.40386  0.12989  1.0000
  C   C262      1.0  0.35830  0.43421  0.11483  1.0000
  H   H474      1.0  0.45667  0.01610  0.48549  1.0000
  C   C263      1.0  0.41897  0.44735  0.14778  1.0000
  S   S58       1.0  0.33402  0.48408  0.02854  1.0000
  C   C264      1.0  0.41407  0.38390  0.12850  1.0000
  C   C265      1.0  0.33997  0.42982  0.13001  1.0000
  H   H475      1.0  0.45823  0.30754  0.11709  1.0000
  H   H476      1.0  0.37225  0.46044  0.12888  1.0000
  H   H477      1.0  0.37771  0.43634  0.14189  1.0000
  H   H478      1.0  0.42819  0.45557  0.11652  1.0000
  H   H479      1.0  0.40713  0.47173  0.12636  1.0000
  H   H480      1.0  0.38746  0.46853  0.09436  1.0000
  H   H481      1.0  0.38344  0.44353  0.08399  1.0000
  H   H482      1.0  0.39994  0.41332  0.09739  1.0000
  H   H483      1.0  0.42311  0.41975  0.10963  1.0000
  H   H484      1.0  0.38379  0.39927  0.12896  1.0000
  H   H485      1.0  0.40199  0.41010  0.14563  1.0000
  H   H486      1.0  0.35253  0.44545  0.10249  1.0000
  H   H487      1.0  0.36306  0.41940  0.10718  1.0000
  H   H488      1.0  0.43915  0.24552  0.46142  1.0000
  C   C266      1.0  0.25440  0.28341  0.42735  1.0000
  H   H489      1.0  0.46932  0.05479  0.30036  1.0000
  S   S59       1.0  0.47439  0.01574  0.37665  1.0000
  H   H490      1.0  0.33706  0.44694  0.28256  1.0000
  C   C267      1.0  0.48034  0.34258  0.10790  1.0000
  C   C268      1.0  0.32448  0.45504  0.25140  1.0000
  H   H491      1.0  0.24235  0.28328  0.41524  1.0000
  H   H492      1.0  0.35394  0.29297  0.47600  1.0000
  S   S60       1.0  0.35605  0.22308  0.48728  1.0000
  C   C269      1.0  0.41652  0.32589  0.16732  1.0000
  C   C270      1.0  0.41959  0.23654  0.14693  1.0000
  C   C271      1.0  0.42599  0.31223  0.15003  1.0000
  H   H493      1.0  0.34509  0.38429  0.27238  1.0000
  C   C272      1.0  0.42550  0.06755  0.38412  1.0000
  C   C273      1.0  0.39258  0.11828  0.33011  1.0000
  H   H494      1.0  0.37742  0.06493  0.36126  1.0000
  H   H495      1.0  0.29830  0.44386  0.28436  1.0000
  C   C274      1.0  0.36681  0.03468  0.35372  1.0000
  S   S61       1.0  0.43173  0.38953  0.00364  1.0000
  H   H496      1.0  0.35386  0.27614  0.38722  1.0000
  H   H497      1.0  0.48655  0.29849  0.13924  1.0000
  C   C275      1.0  0.31808  0.41674  0.25868  1.0000
  S   S62       1.0  0.41392  0.00688  0.46856  1.0000
  C   C276      1.0  0.33269  0.27845  0.45547  1.0000
  H   H498      1.0  0.42936  0.32285  0.13630  1.0000
  H   H499      1.0  0.42625  0.47830  0.15869  1.0000
  S   S63       1.0  0.46257  0.33725  0.99435  1.0000
  H   H500      1.0  0.48305  0.41338  0.25362  1.0000
  H   H501      1.0  0.40586  0.12829  0.33356  1.0000
  C   C277      1.0  0.48408  0.19740  0.45651  1.0000
  H   H502      1.0  0.42977  0.08430  0.38314  1.0000
  H   H503      1.0  0.33798  0.37899  0.24585  1.0000
  H   H504      1.0  0.41400  0.30134  0.14548  1.0000
  H   H505      1.0  0.43695  0.25827  0.48636  1.0000
  H   H506      1.0  0.41507  0.26846  0.15535  1.0000
  C   C278      1.0  0.43378  0.06217  0.32488  1.0000
  H   H507      1.0  0.40301  0.05962  0.44492  1.0000
  H   H508      1.0  0.24446  0.42580  0.28948  1.0000
  H   H509      1.0  0.47617  0.41243  0.04250  1.0000
  H   H510      1.0  0.31939  0.41636  0.21331  1.0000
  H   H511      1.0  0.48717  0.27078  0.13654  1.0000
  H   H512      1.0  0.44373  0.14937  0.48373  1.0000
  C   C279      1.0  0.43363  0.46236  0.15769  1.0000
  C   C280      1.0  0.31296  0.43267  0.21217  1.0000
  H   H513      1.0  0.44822  0.06019  0.36056  1.0000
  H   H514      1.0  0.46111  0.44766  0.03074  1.0000
  H   H515      1.0  0.34463  0.41615  0.23521  1.0000
  C   C281      1.0  0.38442  0.04905  0.35889  1.0000
  Fe  Fe32      1.0  0.47648  0.16619  0.34748  1.0000
  H   H516      1.0  0.42849  0.22681  0.13538  1.0000
  H   H517      1.0  0.34862  0.48909  0.26094  1.0000
  S   S64       1.0  0.38071  0.48638  0.16824  1.0000
  C   C282      1.0  0.42851  0.15812  0.48281  1.0000
  C   C283      1.0  0.35240  0.47432  0.26991  1.0000
  H   H518      1.0  0.48272  0.29467  0.17771  1.0000
  C   C284      1.0  0.40885  0.46081  0.05613  1.0000
  C   C285      1.0  0.47264  0.48104  0.21001  1.0000
  H   H519      1.0  0.36193  0.26683  0.46875  1.0000
  C   C286      1.0  0.44821  0.26294  0.14748  1.0000
  H   H520      1.0  0.47012  0.18566  0.48564  1.0000
  H   H521      1.0  0.45758  0.25092  0.13875  1.0000
  H   H522      1.0  0.48089  0.27879  0.10333  1.0000
  H   H523      1.0  0.38367  0.01536  0.43600  1.0000
  C   C287      1.0  0.44612  0.04106  0.32204  1.0000
  H   H524      1.0  0.26706  0.43233  0.30372  1.0000
  C   C288      1.0  0.48259  0.25625  0.28586  1.0000
  C   C289      1.0  0.47303  0.27612  0.28170  1.0000
  S   S65       1.0  0.47555  0.24190  0.30964  1.0000
  C   C290      1.0  0.32365  0.07237  0.48772  1.0000
  C   C291      1.0  0.33518  0.48925  0.09209  1.0000
  C   C292      1.0  0.43499  0.24332  0.47835  1.0000
  S   S66       1.0  0.48957  0.37572  0.01219  1.0000
  H   H525      1.0  0.45041  0.25862  0.16427  1.0000
  H   H526      1.0  0.47769  0.46139  0.18394  1.0000
  C   C293      1.0  0.47955  0.28372  0.14554  1.0000
  C   C294      1.0  0.47203  0.23077  0.48634  1.0000
  H   H527      1.0  0.48505  0.05047  0.46668  1.0000
  H   H528      1.0  0.42325  0.46201  0.04611  1.0000
  Fe  Fe33      1.0  0.48425  0.34798  0.16532  1.0000
  H   H529      1.0  0.25670  0.48116  0.42334  1.0000
  C   C295      1.0  0.47830  0.28824  0.26341  1.0000
  C   C296      1.0  0.48580  0.07367  0.35510  1.0000
  C   C297      1.0  0.24473  0.25570  0.48807  1.0000
  H   H530      1.0  0.44775  0.99463  0.44130  1.0000
  H   H531      1.0  0.32505  0.48532  0.10541  1.0000
  S   S67       1.0  0.48924  0.17224  0.37891  1.0000
  H   H532      1.0  0.34074  0.27089  0.48783  1.0000
  S   S68       1.0  0.36931  0.17342  0.49058  1.0000
  H   H533      1.0  0.45999  0.28756  0.67279  1.0000
  H   H534      1.0  0.41733  0.46484  0.73549  1.0000
  H   H535      1.0  0.46404  0.24302  0.80219  1.0000
  H   H536      1.0  0.46669  0.20059  0.51771  1.0000
  C   C298      1.0  0.29480  0.11648  0.55965  1.0000
  H   H537      1.0  0.25021  0.27236  0.53619  1.0000
  C   C299      1.0  0.43313  0.00522  0.56425  1.0000
  C   C300      1.0  0.48363  0.02305  0.51581  1.0000
  H   H538      1.0  0.35073  0.46427  0.84513  1.0000
  H   H539      1.0  0.25440  0.43019  0.77456  1.0000
  H   H540      1.0  0.48755  0.43121  0.75075  1.0000
  H   H541      1.0  0.28366  0.08673  0.55194  1.0000
  H   H542      1.0  0.38545  0.04422  0.55352  1.0000
  S   S69       1.0  0.30449  0.24535  0.50877  1.0000
  C   C301      1.0  0.29005  0.01510  0.53788  1.0000
  C   C302      1.0  0.25875  0.28941  0.49442  1.0000
  Fe  Fe34      1.0  0.48158  0.34085  0.96395  1.0000
  C   C303      1.0  0.47705  0.39127  0.89213  1.0000
  H   H543      1.0  0.33155  0.45052  0.73060  1.0000
  S   S70       1.0  0.33433  0.13460  0.51844  1.0000
  Fe  Fe35      1.0  0.37099  0.20111  0.51100  1.0000
  S   S71       1.0  0.40332  0.20722  0.52276  1.0000
  S   S72       1.0  0.34058  0.19512  0.52823  1.0000
  Fe  Fe36      1.0  0.35530  0.46752  0.77060  1.0000
  S   S73       1.0  0.32060  0.46378  0.77508  1.0000
  S   S74       1.0  0.37580  0.44198  0.75592  1.0000
  Fe  Fe37      1.0  0.47132  0.36941  0.79135  1.0000
  S   S75       1.0  0.47027  0.33492  0.79973  1.0000
  S   S76       1.0  0.44871  0.39396  0.80490  1.0000
  S   S77       1.0  0.47946  0.22721  0.62757  1.0000
  H   H544      1.0  0.24982  0.36779  0.53897  1.0000
  H   H545      1.0  0.32246  0.01853  0.54400  1.0000
  H   H546      1.0  0.33644  0.04782  0.62194  1.0000
  H   H547      1.0  0.36903  0.45797  0.87856  1.0000
  S   S78       1.0  0.36383  0.99434  0.55774  1.0000
  H   H548      1.0  0.38346  0.05761  0.52818  1.0000
  C   C304      1.0  0.45874  0.12521  0.60061  1.0000
  C   C305      1.0  0.26978  0.27343  0.56301  1.0000
  H   H549      1.0  0.40784  0.14113  0.65964  1.0000
  H   H550      1.0  0.45239  0.13558  0.64085  1.0000
  H   H551      1.0  0.25641  0.31048  0.53218  1.0000
  Fe  Fe38      1.0  0.46239  0.19706  0.62621  1.0000
  S   S79       1.0  0.42852  0.19404  0.61796  1.0000
  S   S80       1.0  0.47509  0.18335  0.65653  1.0000
  H   H552      1.0  0.26710  0.44953  0.70486  1.0000
  C   C306      1.0  0.46755  0.27348  0.71776  1.0000
  H   H553      1.0  0.34463  0.39114  0.98732  1.0000
  H   H554      1.0  0.33471  0.02354  0.58128  1.0000
  H   H555      1.0  0.42496  0.14751  0.61553  1.0000
  C   C307      1.0  0.48971  0.26608  0.87279  1.0000
  H   H556      1.0  0.45108  0.27760  0.71937  1.0000
  H   H557      1.0  0.46290  0.24959  0.69509  1.0000
  Fe  Fe39      1.0  0.35876  0.99333  0.52318  1.0000
  H   H558      1.0  0.28424  0.45675  0.67234  1.0000
  C   C308      1.0  0.39571  0.42846  0.76988  1.0000
  C   C309      1.0  0.40847  0.41345  0.75961  1.0000
  C   C310      1.0  0.42462  0.40251  0.77019  1.0000
  C   C311      1.0  0.42824  0.40671  0.79108  1.0000
  C   C312      1.0  0.41552  0.42179  0.80132  1.0000
  C   C313      1.0  0.39923  0.43254  0.79081  1.0000
  H   H559      1.0  0.40576  0.41016  0.74343  1.0000
  H   H560      1.0  0.43425  0.39086  0.76220  1.0000
  H   H561      1.0  0.41816  0.42502  0.81752  1.0000
  H   H562      1.0  0.38938  0.44393  0.79891  1.0000
  C   C314      1.0  0.26904  0.43631  0.76730  1.0000
  C   C315      1.0  0.44274  0.05610  0.60585  1.0000
  C   C316      1.0  0.35363  0.46542  0.87873  1.0000
  C   C317      1.0  0.33720  0.03819  0.58946  1.0000
  C   C318      1.0  0.40976  0.20384  0.54942  1.0000
  C   C319      1.0  0.43037  0.20700  0.55516  1.0000
  C   C320      1.0  0.43629  0.20401  0.57608  1.0000
  C   C321      1.0  0.42156  0.19801  0.59153  1.0000
  C   C322      1.0  0.40089  0.19496  0.58586  1.0000
  C   C323      1.0  0.39500  0.19780  0.56486  1.0000
  H   H563      1.0  0.44175  0.21203  0.54343  1.0000
  H   H564      1.0  0.45218  0.20665  0.58031  1.0000
  H   H565      1.0  0.38939  0.19039  0.59775  1.0000
  H   H566      1.0  0.37907  0.19536  0.56065  1.0000
  H   H567      1.0  0.48426  0.28118  0.87960  1.0000
  C   C324      1.0  0.27898  0.44043  0.67509  1.0000
  N   N17       1.0  0.32268  0.06088  0.55793  1.0000
  H   H568      1.0  0.36465  0.45806  0.71190  1.0000
  H   H569      1.0  0.32422  0.37106  0.67935  1.0000
  H   H570      1.0  0.44348  0.22429  0.50505  1.0000
  H   H571      1.0  0.48402  0.27553  0.63197  1.0000
  S   S81       1.0  0.36694  0.02236  0.50468  1.0000
  H   H572      1.0  0.29321  0.08782  0.57818  1.0000
  H   H573      1.0  0.48472  0.42938  0.85036  1.0000
  C   C325      1.0  0.44908  0.42603  0.98841  1.0000
  C   C326      1.0  0.46148  0.28698  0.65545  1.0000
  Fe  Fe40      1.0  0.48557  0.32922  0.76777  1.0000
  H   H574      1.0  0.34411  0.02073  0.61822  1.0000
  H   H575      1.0  0.48854  0.05688  0.50908  1.0000
  H   H576      1.0  0.48846  0.20161  0.55819  1.0000
  C   C327      1.0  0.48582  0.32701  0.90908  1.0000
  C   C328      1.0  0.44249  0.29545  0.83139  1.0000
  C   C329      1.0  0.33382  0.44523  0.71431  1.0000
  C   C330      1.0  0.41913  0.14208  0.57637  1.0000
  H   H577      1.0  0.42579  0.05317  0.60522  1.0000
  H   H578      1.0  0.25695  0.43560  0.73652  1.0000
  H   H579      1.0  0.39814  0.36003  0.95252  1.0000
  C   C331      1.0  0.33340  0.03373  0.61288  1.0000
  H   H580      1.0  0.46573  0.09005  0.67132  1.0000
  H   H581      1.0  0.43191  0.14475  0.67278  1.0000
  C   C332      1.0  0.44825  0.44770  0.98369  1.0000
  H   H582      1.0  0.40858  0.11195  0.58789  1.0000
  C   C333      1.0  0.34407  0.47107  0.89793  1.0000
  Fe  Fe41      1.0  0.32405  0.48303  0.80392  1.0000
  H   H583      1.0  0.28241  0.42994  0.77645  1.0000
  C   C334      1.0  0.29627  0.09255  0.56153  1.0000
  H   H584      1.0  0.46459  0.07978  0.59744  1.0000
  H   H585      1.0  0.44601  0.09318  0.62697  1.0000
  H   H586      1.0  0.26037  0.44324  0.64721  1.0000
  H   H587      1.0  0.43136  0.11054  0.57186  1.0000
  N   N18       1.0  0.39349  0.40444  0.94580  1.0000
  C   C335      1.0  0.38379  0.39786  0.96673  1.0000
  C   C336      1.0  0.41196  0.38987  0.94113  1.0000
  C   C337      1.0  0.40177  0.42619  0.94773  1.0000
  C   C338      1.0  0.37815  0.40502  0.92823  1.0000
  C   C339      1.0  0.36014  0.38933  0.92990  1.0000
  C   C340      1.0  0.48191  0.28416  0.72949  1.0000
  C   C341      1.0  0.39825  0.00314  0.58007  1.0000
  C   C342      1.0  0.40730  0.36643  0.93894  1.0000
  C   C343      1.0  0.42755  0.35321  0.93737  1.0000
  C   C344      1.0  0.34770  0.39003  0.90985  1.0000
  H   H588      1.0  0.48214  0.31621  0.67093  1.0000
  H   H589      1.0  0.29744  0.48950  0.87925  1.0000
  H   H590      1.0  0.40165  0.48182  0.81304  1.0000
  H   H591      1.0  0.37628  0.38253  0.96603  1.0000
  H   H592      1.0  0.41993  0.39453  0.92609  1.0000
  H   H593      1.0  0.42378  0.39105  0.95350  1.0000
  S   S82       1.0  0.46021  0.00670  0.56603  1.0000
  H   H594      1.0  0.38865  0.43771  0.95050  1.0000
  H   H595      1.0  0.37029  0.42079  0.92667  1.0000
  H   H596      1.0  0.38660  0.40281  0.91292  1.0000
  H   H597      1.0  0.34907  0.39344  0.94294  1.0000
  H   H598      1.0  0.36588  0.37300  0.93280  1.0000
  H   H599      1.0  0.47539  0.23824  0.83799  1.0000
  H   H600      1.0  0.44371  0.47396  0.79754  1.0000
  C   C345      1.0  0.25833  0.43858  0.66404  1.0000
  H   H601      1.0  0.29166  0.01950  0.52094  1.0000
  H   H602      1.0  0.40525  0.99567  0.63141  1.0000
  H   H603      1.0  0.39877  0.36430  0.92435  1.0000
  H   H604      1.0  0.43617  0.35373  0.95215  1.0000
  H   H605      1.0  0.42398  0.33660  0.93474  1.0000
  H   H606      1.0  0.43772  0.35892  0.92414  1.0000
  H   H607      1.0  0.34110  0.40611  0.90667  1.0000
  H   H608      1.0  0.35781  0.38525  0.89627  1.0000
  H   H609      1.0  0.33459  0.37910  0.91159  1.0000
  H   H610      1.0  0.34819  0.03880  0.55037  1.0000
  H   H611      1.0  0.47428  0.34161  0.85844  1.0000
  Fe  Fe42      1.0  0.47290  0.00006  0.59799  1.0000
  H   H612      1.0  0.30439  0.43386  0.74398  1.0000
  C   C346      1.0  0.44735  0.07834  0.59779  1.0000
  H   H613      1.0  0.36001  0.08486  0.54376  1.0000
  N   N19       1.0  0.29600  0.43233  0.71143  1.0000
  C   C347      1.0  0.31295  0.44626  0.70260  1.0000
  H   H614      1.0  0.45758  0.28679  0.85951  1.0000
  Fe  Fe43      1.0  0.33816  0.16824  0.50619  1.0000
  C   C348      1.0  0.30292  0.40950  0.71218  1.0000
  C   C349      1.0  0.31012  0.39989  0.69116  1.0000
  S   S83       1.0  0.35671  0.46397  0.92159  1.0000
  H   H615      1.0  0.40845  0.15854  0.54818  1.0000
  C   C350      1.0  0.34760  0.09743  0.50093  1.0000
  C   C351      1.0  0.31960  0.37781  0.69468  1.0000
  C   C352      1.0  0.32285  0.47745  0.85978  1.0000
  C   C353      1.0  0.36170  0.06944  0.55221  1.0000
  C   C354      1.0  0.34975  0.45957  0.70351  1.0000
  H   H616      1.0  0.31695  0.44291  0.68604  1.0000
  H   H617      1.0  0.42682  0.46136  0.94432  1.0000
  H   H618      1.0  0.30711  0.12356  0.56876  1.0000
  H   H619      1.0  0.46638  0.02377  0.51864  1.0000
  H   H620      1.0  0.48065  0.45660  0.77867  1.0000
  H   H621      1.0  0.31565  0.40676  0.72352  1.0000
  C   C355      1.0  0.43713  0.09501  0.61233  1.0000
  H   H622      1.0  0.32214  0.40933  0.68279  1.0000
  H   H623      1.0  0.29650  0.39845  0.68107  1.0000
  H   H624      1.0  0.42091  0.09024  0.61657  1.0000
  H   H625      1.0  0.43147  0.28248  0.83377  1.0000
  H   H626      1.0  0.48090  0.22218  0.52538  1.0000
  C   C356      1.0  0.25063  0.31351  0.54844  1.0000
  H   H627      1.0  0.29062  0.42985  0.66741  1.0000
  H   H628      1.0  0.32973  0.09368  0.56076  1.0000
  C   C357      1.0  0.41804  0.45834  0.93011  1.0000
  H   H629      1.0  0.33374  0.37827  0.70427  1.0000
  H   H630      1.0  0.30808  0.36742  0.70271  1.0000
  H   H631      1.0  0.24604  0.44904  0.67109  1.0000
  H   H632      1.0  0.28131  0.28245  0.55333  1.0000
  H   H633      1.0  0.38811  0.48477  0.72027  1.0000
  C   C358      1.0  0.30724  0.02481  0.55013  1.0000
  N   N20       1.0  0.48697  0.21330  0.49320  1.0000
  H   H634      1.0  0.31708  0.02893  0.61609  1.0000
  C   C359      1.0  0.43151  0.31512  0.84005  1.0000
  H   H635      1.0  0.41695  0.31867  0.83145  1.0000
  H   H636      1.0  0.42736  0.31273  0.85696  1.0000
  H   H637      1.0  0.44167  0.32885  0.83806  1.0000
  H   H638      1.0  0.46642  0.05304  0.54254  1.0000
  H   H639      1.0  0.25702  0.30632  0.49460  1.0000
  C   C360      1.0  0.39023  0.99971  0.56039  1.0000
  C   C361      1.0  0.48377  0.05206  0.54227  1.0000
  H   H640      1.0  0.34403  0.47619  0.70390  1.0000
  H   H641      1.0  0.44544  0.29833  0.81439  1.0000
  N   N21       1.0  0.43682  0.11756  0.60425  1.0000
  C   C362      1.0  0.30569  0.04898  0.54813  1.0000
  H   H642      1.0  0.45807  0.44267  0.78788  1.0000
  H   H643      1.0  0.26472  0.31359  0.55815  1.0000
  C   C363      1.0  0.47421  0.25753  0.70392  1.0000
  H   H644      1.0  0.44165  0.07971  0.58162  1.0000
  C   C364      1.0  0.48497  0.27848  0.81332  1.0000
  H   H645      1.0  0.48121  0.12456  0.66237  1.0000
  C   C365      1.0  0.41978  0.00588  0.58199  1.0000
  H   H646      1.0  0.44315  0.26073  0.80929  1.0000
  H   H647      1.0  0.35393  0.04184  0.58708  1.0000
  C   C366      1.0  0.42440  0.14550  0.65733  1.0000
  C   C367      1.0  0.27783  0.27928  0.50011  1.0000
  H   H648      1.0  0.29018  0.05320  0.55529  1.0000
  C   C368      1.0  0.45338  0.46007  0.75804  1.0000
  H   H649      1.0  0.26838  0.45368  0.76815  1.0000
  H   H650      1.0  0.37616  0.42633  0.98347  1.0000
  S   S84       1.0  0.42850  0.48648  0.98232  1.0000
  C   C369      1.0  0.27121  0.42971  0.74452  1.0000
  H   H651      1.0  0.40932  0.12590  0.62327  1.0000
  H   H652      1.0  0.46917  0.11799  0.61265  1.0000
  H   H653      1.0  0.28978  0.45604  0.73453  1.0000
  H   H654      1.0  0.39811  0.13283  0.55231  1.0000
  C   C370      1.0  0.42580  0.13071  0.62079  1.0000
  C   C371      1.0  0.46287  0.29009  0.84306  1.0000
  H   H655      1.0  0.47555  0.17879  0.54963  1.0000
  H   H656      1.0  0.43966  0.45013  0.75617  1.0000
  S   S85       1.0  0.48662  0.18137  0.60578  1.0000
  C   C372      1.0  0.46466  0.25208  0.83517  1.0000
  C   C373      1.0  0.41455  0.43490  0.92849  1.0000
  C   C374      1.0  0.34326  0.46896  0.85972  1.0000
  H   H657      1.0  0.41804  0.15312  0.49612  1.0000
  C   C375      1.0  0.38279  0.05966  0.54538  1.0000
  C   C376      1.0  0.31794  0.08396  0.55358  1.0000
  H   H658      1.0  0.26598  0.42213  0.70156  1.0000
  C   C377      1.0  0.44555  0.27152  0.64848  1.0000
  H   H659      1.0  0.47744  0.25438  0.87563  1.0000
  H   H660      1.0  0.30489  0.01958  0.56672  1.0000
  C   C378      1.0  0.46742  0.44741  0.77368  1.0000
  H   H661      1.0  0.46763  0.40570  0.88820  1.0000
  H   H662      1.0  0.36199  0.07237  0.56921  1.0000
  H   H663      1.0  0.42601  0.00838  0.59716  1.0000
  H   H664      1.0  0.44778  0.05360  0.62221  1.0000
  S   S86       1.0  0.35884  0.48383  0.80080  1.0000
  H   H665      1.0  0.45864  0.34120  0.89464  1.0000
  N   N22       1.0  0.47648  0.27222  0.83485  1.0000
  S   S87       1.0  0.47348  0.32400  0.93426  1.0000
  C   C379      1.0  0.31165  0.10812  0.49554  1.0000
  H   H666      1.0  0.47211  0.30455  0.84325  1.0000
  H   H667      1.0  0.26551  0.22866  0.49341  1.0000
  C   C380      1.0  0.48687  0.11069  0.65443  1.0000
  H   H668      1.0  0.27437  0.02041  0.54386  1.0000
  H   H669      1.0  0.29651  0.12179  0.54297  1.0000
  C   C381      1.0  0.42487  0.00288  0.54456  1.0000
  H   H670      1.0  0.46169  0.46077  0.74244  1.0000
  H   H671      1.0  0.42960  0.27680  0.65370  1.0000
  H   H672      1.0  0.44596  0.27055  0.63114  1.0000
  H   H673      1.0  0.40287  0.46724  0.93076  1.0000
  H   H674      1.0  0.48494  0.41768  0.77589  1.0000
  C   C382      1.0  0.43376  0.47989  0.78453  1.0000
  H   H675      1.0  0.47088  0.38440  0.90720  1.0000
  S   S88       1.0  0.48366  0.36382  0.75862  1.0000
  H   H676      1.0  0.34077  0.42909  0.71470  1.0000
  C   C383      1.0  0.25782  0.48735  0.72805  1.0000
  H   H677      1.0  0.26935  0.27926  0.57919  1.0000
  H   H678      1.0  0.47375  0.24475  0.49597  1.0000
  Fe  Fe44      1.0  0.32501  0.21542  0.50287  1.0000
  H   H679      1.0  0.43022  0.42698  0.92756  1.0000
  C   C384      1.0  0.27634  0.43572  0.69904  1.0000
  H   H680      1.0  0.36283  0.10067  0.50663  1.0000
  H   H681      1.0  0.39758  0.99785  0.52739  1.0000
  H   H682      1.0  0.40642  0.43260  0.91370  1.0000
  C   C385      1.0  0.31329  0.48313  0.87899  1.0000
  H   H683      1.0  0.27931  0.12220  0.56577  1.0000
  H   H684      1.0  0.30680  0.05420  0.58766  1.0000
  H   H685      1.0  0.43496  0.00280  0.53071  1.0000
  Fe  Fe45      1.0  0.48188  0.01811  0.63987  1.0000
  C   C386      1.0  0.40354  0.00005  0.54267  1.0000
  H   H686      1.0  0.46234  0.13284  0.56692  1.0000
  C   C387      1.0  0.34331  0.05537  0.54709  1.0000
  C   C388      1.0  0.32295  0.05675  0.58137  1.0000
  H   H687      1.0  0.42719  0.46410  0.91618  1.0000
  H   H688      1.0  0.43575  0.11475  0.65030  1.0000
  C   C389      1.0  0.48317  0.33515  0.87139  1.0000
  H   H689      1.0  0.45705  0.30269  0.64898  1.0000
  H   H690      1.0  0.29002  0.39966  0.71842  1.0000
  H   H691      1.0  0.25304  0.42218  0.66516  1.0000
  H   H692      1.0  0.30713  0.46290  0.70228  1.0000
  H   H693      1.0  0.27159  0.35147  0.54764  1.0000
  C   C390      1.0  0.46915  0.12163  0.57868  1.0000
  C   C391      1.0  0.28057  0.25728  0.49976  1.0000
  C   C392      1.0  0.41227  0.14223  0.55365  1.0000
  C   C393      1.0  0.36765  0.41369  0.97630  1.0000
  H   H694      1.0  0.29126  0.99774  0.53966  1.0000
  S   S89       1.0  0.37133  0.46987  0.97978  1.0000
  S   S90       1.0  0.30848  0.48050  0.83645  1.0000
  H   H695      1.0  0.25949  0.48529  0.74479  1.0000
  H   H696      1.0  0.48176  0.33422  0.64158  1.0000
  H   H697      1.0  0.40615  0.14933  0.58588  1.0000
  H   H698      1.0  0.48899  0.04106  0.55506  1.0000
  C   C394      1.0  0.33144  0.11279  0.50241  1.0000
  H   H699      1.0  0.42179  0.46783  0.78314  1.0000
  C   C395      1.0  0.43603  0.13051  0.64251  1.0000
  C   C396      1.0  0.47820  0.09108  0.65956  1.0000
  S   S91       1.0  0.47465  0.04833  0.65725  1.0000
  H   H700      1.0  0.43284  0.15215  0.57724  1.0000
  H   H701      1.0  0.42499  0.13587  0.54326  1.0000
  H   H702      1.0  0.26071  0.34780  0.52222  1.0000
  H   H703      1.0  0.45922  0.14242  0.60299  1.0000
  H   H704      1.0  0.29889  0.11955  0.49711  1.0000
  H   H705      1.0  0.31617  0.48418  0.91263  1.0000
  H   H706      1.0  0.32817  0.07081  0.58942  1.0000
  H   H707      1.0  0.30485  0.05347  0.53111  1.0000
  S   S92       1.0  0.45537  0.99922  0.62881  1.0000
  H   H708      1.0  0.35284  0.45513  0.68702  1.0000
  H   H709      1.0  0.42499  0.16189  0.65105  1.0000
  H   H710      1.0  0.44769  0.21450  0.82412  1.0000
  H   H711      1.0  0.31910  0.08758  0.53643  1.0000
  H   H712      1.0  0.39550  0.07007  0.54940  1.0000
  H   H713      1.0  0.47525  0.37997  0.87952  1.0000
  H   H714      1.0  0.41177  0.42677  0.96162  1.0000
  C   C397      1.0  0.48225  0.20779  0.51595  1.0000
  C   C398      1.0  0.29124  0.43867  0.73373  1.0000
  C   C399      1.0  0.42392  0.11940  0.58485  1.0000
  C   C400      1.0  0.47648  0.42739  0.76393  1.0000
  H   H715      1.0  0.27156  0.41235  0.74460  1.0000
  H   H716      1.0  0.46699  0.10567  0.57315  1.0000
  S   S93       1.0  0.47234  0.30424  0.74672  1.0000
  C   C401      1.0  0.26389  0.24558  0.49351  1.0000
  H   H717      1.0  0.45137  0.04452  0.59596  1.0000
  H   H718      1.0  0.34163  0.05625  0.52984  1.0000
  H   H719      1.0  0.38794  0.00335  0.59378  1.0000
  H   H720      1.0  0.44881  0.25566  0.65557  1.0000
  C   C402      1.0  0.47441  0.33513  0.89199  1.0000
  C   C403      1.0  0.32393  0.48023  0.89794  1.0000
  C   C404      1.0  0.48580  0.07274  0.64991  1.0000
  H   H721      1.0  0.42626  0.23248  0.83101  1.0000
  H   H722      1.0  0.48965  0.01214  0.52834  1.0000
  H   H723      1.0  0.46218  0.41646  0.98280  1.0000
  H   H724      1.0  0.26770  0.24099  0.57460  1.0000
  H   H725      1.0  0.47235  0.28049  0.80186  1.0000
  H   H726      1.0  0.48050  0.42634  0.82270  1.0000
  H   H727      1.0  0.27779  0.24392  0.54794  1.0000
  S   S94       1.0  0.47767  0.37590  0.96223  1.0000
  H   H728      1.0  0.29055  0.28858  0.50491  1.0000
  C   C405      1.0  0.41386  0.48077  0.74137  1.0000
  H   H729      1.0  0.47362  0.31654  0.62199  1.0000
  N   N23       1.0  0.48905  0.01456  0.49433  1.0000
  C   C406      1.0  0.48407  0.27988  0.64872  1.0000
  H   H730      1.0  0.47943  0.48795  0.75782  1.0000
  H   H731      1.0  0.48967  0.06780  0.54528  1.0000
  H   H732      1.0  0.40303  0.47950  0.75520  1.0000
  H   H733      1.0  0.46065  0.45477  0.97433  1.0000
  Fe  Fe46      1.0  0.35870  0.48438  0.95003  1.0000
  C   C407      1.0  0.27771  0.25057  0.56379  1.0000
  C   C408      1.0  0.43854  0.22872  0.81893  1.0000
  C   C409      1.0  0.25695  0.35169  0.53877  1.0000
  H   H734      1.0  0.29394  0.24963  0.56945  1.0000
  H   H735      1.0  0.39612  0.39517  0.97850  1.0000
  H   H736      1.0  0.46389  0.41786  0.75802  1.0000
  H   H737      1.0  0.35728  0.42085  0.96425  1.0000
  C   C410      1.0  0.24797  0.27563  0.55316  1.0000
  H   H738      1.0  0.35625  0.06564  0.49277  1.0000
  C   C411      1.0  0.34380  0.07742  0.49336  1.0000
  N   N24       1.0  0.44657  0.48193  0.76442  1.0000
  H   H739      1.0  0.43078  0.22525  0.80418  1.0000
  H   H740      1.0  0.45328  0.25171  0.84870  1.0000
  C   C412      1.0  0.45283  0.24723  0.81507  1.0000
  C   C413      1.0  0.43093  0.45999  0.99033  1.0000
  C   C414      1.0  0.24155  0.33623  0.54874  1.0000
  H   H741      1.0  0.48683  0.26487  0.65774  1.0000
  H   H742      1.0  0.24347  0.30528  0.58728  1.0000
  H   H743      1.0  0.48051  0.35137  0.60658  1.0000
  C   C415      1.0  0.48699  0.32496  0.62791  1.0000
  C   C416      1.0  0.43406  0.49188  0.74686  1.0000
  C   C417      1.0  0.35329  0.50029  0.09504  1.0000
  H   H744      1.0  0.33901  0.96928  0.42953  1.0000
  C   C418      1.0  0.48888  0.73041  0.27425  1.0000
  H   H745      1.0  0.46314  0.92335  0.33625  1.0000
  S   S95       1.0  0.46155  0.59714  0.00940  1.0000
  C   C419      1.0  0.40871  0.94647  0.46220  1.0000
  S   S96       1.0  0.24812  0.50025  0.30427  1.0000
  H   H746      1.0  0.40733  0.58904  0.09944  1.0000
  S   S97       1.0  0.37552  0.51767  0.99726  1.0000
  H   H747      1.0  0.35978  0.87438  0.39861  1.0000
  H   H748      1.0  0.40337  0.88241  0.30292  1.0000
  H   H749      1.0  0.34389  0.89590  0.45508  1.0000
  H   H750      1.0  0.37081  0.60944  0.13074  1.0000
  H   H751      1.0  0.24636  0.52279  0.34813  1.0000
  Fe  Fe47      1.0  0.32710  0.49634  0.19719  1.0000
  H   H752      1.0  0.44440  0.54985  0.02181  1.0000
  S   S98       1.0  0.47314  0.96365  0.37661  1.0000
  C   C420      1.0  0.46888  0.58573  0.11741  1.0000
  Fe  Fe48      1.0  0.35141  0.49300  0.99789  1.0000
  H   H753      1.0  0.41393  0.76229  0.35034  1.0000
  C   C421      1.0  0.47877  0.56829  0.13118  1.0000
  Fe  Fe49      1.0  0.37334  0.50743  0.19492  1.0000
  S   S99       1.0  0.40211  0.52182  0.20752  1.0000
  S   S100      1.0  0.34488  0.52253  0.18017  1.0000
  H   H754      1.0  0.43032  0.64104  0.04438  1.0000
  S   S101      1.0  0.38653  0.81152  0.44066  1.0000
  S   S102      1.0  0.33077  0.80525  0.46988  1.0000
  H   H755      1.0  0.42980  0.61288  0.04603  1.0000
  H   H756      1.0  0.44783  0.74439  0.44197  1.0000
  H   H757      1.0  0.38764  0.77212  0.34604  1.0000
  C   C422      1.0  0.34635  0.96925  0.41354  1.0000
  C   C423      1.0  0.40111  0.56418  0.03763  1.0000
  C   C424      1.0  0.46052  0.49897  0.19896  1.0000
  Fe  Fe50      1.0  0.47141  0.77274  0.36341  1.0000
  S   S103      1.0  0.44974  0.75583  0.38653  1.0000
  S   S104      1.0  0.45987  0.78572  0.33265  1.0000
  H   H758      1.0  0.45078  0.55439  0.99425  1.0000
  C   C425      1.0  0.34004  0.91279  0.48370  1.0000
  C   C426      1.0  0.33129  0.61897  0.02496  1.0000
  H   H759      1.0  0.43800  0.85599  0.40696  1.0000
  H   H760      1.0  0.32013  0.58959  0.01544  1.0000
  C   C427      1.0  0.33344  0.59510  0.02424  1.0000
  Fe  Fe51      1.0  0.45766  0.62617  0.18879  1.0000
  S   S105      1.0  0.42432  0.61647  0.18566  1.0000
  S   S106      1.0  0.46675  0.65993  0.18643  1.0000
  H   H761      1.0  0.29882  0.55099  0.34188  1.0000
  H   H762      1.0  0.34126  0.85580  0.39003  1.0000
  H   H763      1.0  0.45184  0.49314  0.18567  1.0000
  S   S107      1.0  0.35989  0.50969  0.11979  1.0000
  H   H764      1.0  0.48867  0.74089  0.46625  1.0000
  H   H765      1.0  0.47397  0.58286  0.10094  1.0000
  C   C428      1.0  0.40495  0.79504  0.42779  1.0000
  C   C429      1.0  0.40113  0.77397  0.42464  1.0000
  C   C430      1.0  0.41534  0.76185  0.41248  1.0000
  C   C431      1.0  0.43314  0.77088  0.40309  1.0000
  C   C432      1.0  0.43729  0.79174  0.40691  1.0000
  C   C433      1.0  0.42338  0.80364  0.41952  1.0000
  H   H766      1.0  0.38695  0.76718  0.43104  1.0000
  H   H767      1.0  0.41212  0.74566  0.40968  1.0000
  H   H768      1.0  0.45116  0.79871  0.40010  1.0000
  H   H769      1.0  0.42673  0.81972  0.42259  1.0000
  H   H770      1.0  0.36869  0.54320  0.05369  1.0000
  H   H771      1.0  0.37167  0.58364  0.11951  1.0000
  C   C434      1.0  0.36395  0.56000  0.05128  1.0000
  C   C435      1.0  0.45874  0.52288  0.00617  1.0000
  C   C436      1.0  0.40827  0.54795  0.20049  1.0000
  C   C437      1.0  0.39335  0.56205  0.19211  1.0000
  C   C438      1.0  0.39843  0.58306  0.18776  1.0000
  C   C439      1.0  0.41856  0.58997  0.19122  1.0000
  C   C440      1.0  0.43364  0.57576  0.19912  1.0000
  C   C441      1.0  0.42842  0.55488  0.20397  1.0000
  H   H772      1.0  0.37775  0.55694  0.18956  1.0000
  H   H773      1.0  0.38663  0.59407  0.18196  1.0000
  H   H774      1.0  0.44917  0.58096  0.20187  1.0000
  H   H775      1.0  0.43999  0.54412  0.21057  1.0000
  H   H776      1.0  0.44790  0.87776  0.39133  1.0000
  C   C442      1.0  0.48937  0.70958  0.24237  1.0000
  S   S108      1.0  0.40802  0.62619  0.00069  1.0000
  H   H777      1.0  0.40152  0.85499  0.29744  1.0000
  H   H778      1.0  0.42875  0.53894  0.00206  1.0000
  H   H779      1.0  0.45126  0.51147  0.01723  1.0000
  H   H780      1.0  0.45651  0.72444  0.46008  1.0000
  H   H781      1.0  0.48673  0.72043  0.43379  1.0000
  H   H782      1.0  0.31732  0.58710  0.05311  1.0000
  H   H783      1.0  0.44671  0.88872  0.33621  1.0000
  S   S109      1.0  0.47958  0.61808  0.21458  1.0000
  H   H784      1.0  0.35036  0.85408  0.41643  1.0000
  C   C443      1.0  0.32133  0.55270  0.10673  1.0000
  H   H785      1.0  0.41101  0.57213  0.02544  1.0000
  H   H786      1.0  0.26872  0.78939  0.47277  1.0000
  H   H787      1.0  0.41147  0.78713  0.47830  1.0000
  C   C444      1.0  0.42817  0.94997  0.47473  1.0000
  C   C445      1.0  0.26124  0.58457  0.36630  1.0000
  H   H788      1.0  0.33284  0.53470  0.06796  1.0000
  C   C446      1.0  0.48748  0.72907  0.25234  1.0000
  H   H789      1.0  0.32021  0.53535  0.10710  1.0000
  C   C447      1.0  0.33508  0.54958  0.02983  1.0000
  C   C448      1.0  0.39306  0.81155  0.36399  1.0000
  H   H790      1.0  0.43936  0.57179  0.11200  1.0000
  H   H791      1.0  0.48165  0.55916  0.21679  1.0000
  H   H792      1.0  0.24255  0.60617  0.41328  1.0000
  H   H793      1.0  0.44081  0.58376  0.13668  1.0000
  C   C449      1.0  0.44470  0.58605  0.11963  1.0000
  H   H794      1.0  0.43822  0.93549  0.47553  1.0000
  C   C450      1.0  0.36082  0.49988  0.05716  1.0000
  C   C451      1.0  0.26259  0.52578  0.35246  1.0000
  H   H795      1.0  0.32708  0.55734  0.12209  1.0000
  H   H796      1.0  0.40431  0.54700  0.03703  1.0000
  Fe  Fe52      1.0  0.35160  0.49994  0.15392  1.0000
  H   H797      1.0  0.45594  0.85143  0.38496  1.0000
  C   C452      1.0  0.33355  0.58481  0.04664  1.0000
  C   C453      1.0  0.48479  0.66077  0.08794  1.0000
  H   H798      1.0  0.40545  0.56981  0.05312  1.0000
  H   H799      1.0  0.42478  0.86445  0.30891  1.0000
  H   H800      1.0  0.48065  0.65842  0.05458  1.0000
  H   H801      1.0  0.40387  0.87420  0.34078  1.0000
  H   H802      1.0  0.37101  0.58619  0.14749  1.0000
  H   H803      1.0  0.27897  0.54734  0.37148  1.0000
  H   H804      1.0  0.30236  0.56186  0.02927  1.0000
  C   C454      1.0  0.43029  0.66065  0.13669  1.0000
  H   H805      1.0  0.37628  0.58673  0.03297  1.0000
  H   H806      1.0  0.34179  0.55633  0.01499  1.0000
  Fe  Fe53      1.0  0.36521  0.79776  0.46612  1.0000
  H   H807      1.0  0.45866  0.78284  0.46952  1.0000
  H   H808      1.0  0.33378  0.96801  0.40212  1.0000
  H   H809      1.0  0.38673  0.88072  0.46217  1.0000
  C   C455      1.0  0.47279  0.90913  0.33630  1.0000
  C   C456      1.0  0.30690  0.53887  0.00548  1.0000
  H   H810      1.0  0.33987  0.86066  0.47218  1.0000
  C   C457      1.0  0.28154  0.50459  0.27595  1.0000
  C   C458      1.0  0.28152  0.49795  0.23842  1.0000
  C   C459      1.0  0.45605  0.74168  0.45703  1.0000
  C   C460      1.0  0.33005  0.55203  0.06763  1.0000
  S   S110      1.0  0.29391  0.49630  0.21283  1.0000
  H   H811      1.0  0.31307  0.54958  0.99286  1.0000
  C   C461      1.0  0.42195  0.74511  0.47472  1.0000
  H   H812      1.0  0.27782  0.58420  0.37096  1.0000
  H   H813      1.0  0.40015  0.93345  0.47003  1.0000
  S   S111      1.0  0.48797  0.75582  0.28561  1.0000
  C   C462      1.0  0.40144  0.77342  0.35596  1.0000
  C   C463      1.0  0.26321  0.70111  0.47288  1.0000
  C   C464      1.0  0.37812  0.56937  0.03356  1.0000
  H   H814      1.0  0.28990  0.50929  0.28938  1.0000
  H   H815      1.0  0.41406  0.75014  0.46001  1.0000
  S   S112      1.0  0.48003  0.61562  0.16362  1.0000
  H   H816      1.0  0.39513  0.69856  0.48389  1.0000
  C   C465      1.0  0.28667  0.72914  0.48208  1.0000
  H   H817      1.0  0.48077  0.56634  0.25473  1.0000
  C   C466      1.0  0.41943  0.72109  0.47771  1.0000
  H   H818      1.0  0.43064  0.81817  0.46456  1.0000
  S   S113      1.0  0.30395  0.74959  0.47340  1.0000
  H   H819      1.0  0.26061  0.50511  0.38019  1.0000
  H   H820      1.0  0.34326  0.59443  0.05657  1.0000
  C   C467      1.0  0.44487  0.54280  0.00615  1.0000
  H   H821      1.0  0.36843  0.56801  0.06557  1.0000
  H   H822      1.0  0.47473  0.57073  0.14799  1.0000
  C   C468      1.0  0.33646  0.55989  0.08918  1.0000
  C   C469      1.0  0.33910  0.87451  0.48154  1.0000
  H   H823      1.0  0.34226  0.53346  0.03103  1.0000
  H   H824      1.0  0.47910  0.53210  0.02970  1.0000
  H   H825      1.0  0.48839  0.70901  0.22553  1.0000
  S   S114      1.0  0.47173  0.99103  0.33197  1.0000
  H   H826      1.0  0.48500  0.74330  0.24295  1.0000
  Fe  Fe54      1.0  0.47896  0.81380  0.33894  1.0000
  H   H827      1.0  0.30555  0.56000  0.10456  1.0000
  S   S115      1.0  0.48832  0.80167  0.37080  1.0000
  C   C470      1.0  0.27046  0.50696  0.36569  1.0000
  H   H828      1.0  0.48006  0.74441  0.41925  1.0000
  H   H829      1.0  0.26506  0.55703  0.32107  1.0000
  H   H830      1.0  0.48646  0.54132  0.00415  1.0000
  H   H831      1.0  0.37083  0.50402  0.04384  1.0000
  C   C471      1.0  0.37715  0.59309  0.13244  1.0000
  H   H832      1.0  0.44059  0.61849  0.14084  1.0000
  H   H833      1.0  0.41913  0.83530  0.33424  1.0000
  C   C472      1.0  0.48659  0.65069  0.06860  1.0000
  C   C473      1.0  0.29202  0.50394  0.25609  1.0000
  H   H834      1.0  0.47934  0.61738  0.30174  1.0000
  S   S116      1.0  0.46379  0.64831  0.99752  1.0000
  H   H835      1.0  0.47511  0.60084  0.12191  1.0000
  C   C474      1.0  0.46351  0.88942  0.33629  1.0000
  H   H836      1.0  0.37968  0.91737  0.44916  1.0000
  Fe  Fe55      1.0  0.45481  0.99124  0.36338  1.0000
  S   S117      1.0  0.46324  0.84637  0.33557  1.0000
  H   H837      1.0  0.34512  0.62541  0.03227  1.0000
  C   C475      1.0  0.27772  0.71672  0.46705  1.0000
  Fe  Fe56      1.0  0.44211  0.62194  0.99308  1.0000
  H   H838      1.0  0.45385  0.62605  0.05007  1.0000
  H   H839      1.0  0.39710  0.76883  0.37239  1.0000
  H   H840      1.0  0.48119  0.76453  0.45149  1.0000
  H   H841      1.0  0.44800  0.81558  0.48648  1.0000
  H   H842      1.0  0.31416  0.52298  0.00379  1.0000
  C   C476      1.0  0.44105  0.60906  0.08857  1.0000
  H   H843      1.0  0.26872  0.60671  0.40218  1.0000
  C   C477      1.0  0.47919  0.74739  0.45319  1.0000
  H   H844      1.0  0.30114  0.58307  0.30498  1.0000
  H   H845      1.0  0.31280  0.55445  0.06696  1.0000
  H   H846      1.0  0.47122  0.51134  0.19313  1.0000
  H   H847      1.0  0.38675  0.72162  0.46900  1.0000
  H   H848      1.0  0.42456  0.71296  0.46324  1.0000
  H   H849      1.0  0.34776  0.59124  0.01496  1.0000
  H   H850      1.0  0.45008  0.98918  0.40354  1.0000
  C   C478      1.0  0.44304  0.77596  0.46916  1.0000
  H   H851      1.0  0.30820  0.50819  0.25446  1.0000
  N   N25       1.0  0.39708  0.93541  0.42562  1.0000
  C   C479      1.0  0.41462  0.94179  0.43907  1.0000
  C   C480      1.0  0.40475  0.93388  0.40303  1.0000
  C   C481      1.0  0.38024  0.95252  0.42655  1.0000
  C   C482      1.0  0.38755  0.91522  0.43357  1.0000
  C   C483      1.0  0.40232  0.89560  0.43498  1.0000
  C   C484      1.0  0.48103  0.52724  0.01318  1.0000
  C   C485      1.0  0.36180  0.95064  0.41154  1.0000
  C   C486      1.0  0.42778  0.92632  0.39907  1.0000
  C   C487      1.0  0.43229  0.92229  0.37592  1.0000
  C   C488      1.0  0.39126  0.87710  0.44574  1.0000
  C   C489      1.0  0.29399  0.56628  0.33454  1.0000
  H   H852      1.0  0.42167  0.95624  0.43212  1.0000
  H   H853      1.0  0.42753  0.92983  0.43926  1.0000
  H   H854      1.0  0.39445  0.92369  0.39434  1.0000
  H   H855      1.0  0.40373  0.94963  0.39486  1.0000
  H   H856      1.0  0.38721  0.96803  0.42320  1.0000
  H   H857      1.0  0.29986  0.57897  0.34401  1.0000
  H   H858      1.0  0.30533  0.53518  0.03882  1.0000
  H   H859      1.0  0.37484  0.91087  0.42328  1.0000
  H   H860      1.0  0.41631  0.89841  0.44409  1.0000
  H   H861      1.0  0.40714  0.89069  0.41901  1.0000
  H   H862      1.0  0.43818  0.77872  0.45272  1.0000
  H   H863      1.0  0.30003  0.55488  0.30301  1.0000
  H   H864      1.0  0.35296  0.93629  0.41534  1.0000
  H   H865      1.0  0.36734  0.95028  0.39494  1.0000
  H   H866      1.0  0.43850  0.93863  0.40361  1.0000
  H   H867      1.0  0.43182  0.91180  0.40815  1.0000
  H   H868      1.0  0.42955  0.93688  0.36627  1.0000
  H   H869      1.0  0.44891  0.91717  0.37372  1.0000
  H   H870      1.0  0.42235  0.90978  0.37043  1.0000
  H   H871      1.0  0.40183  0.86294  0.44589  1.0000
  H   H872      1.0  0.38029  0.51376  0.07960  1.0000
  H   H873      1.0  0.37701  0.87339  0.43732  1.0000
  H   H874      1.0  0.41677  0.64782  0.10990  1.0000
  C   C490      1.0  0.40944  0.79573  0.35462  1.0000
  H   H875      1.0  0.37309  0.95336  0.44257  1.0000
  N   N26       1.0  0.39829  0.83448  0.36165  1.0000
  C   C491      1.0  0.37955  0.84709  0.36974  1.0000
  C   C492      1.0  0.40258  0.83951  0.33861  1.0000
  C   C493      1.0  0.41744  0.83772  0.37410  1.0000
  C   C494      1.0  0.42418  0.86054  0.37629  1.0000
  C   C495      1.0  0.37306  0.84303  0.39313  1.0000
  C   C496      1.0  0.39786  0.86234  0.33053  1.0000
  C   C497      1.0  0.40747  0.86621  0.30860  1.0000
  C   C498      1.0  0.44261  0.86141  0.39083  1.0000
  C   C499      1.0  0.35502  0.85780  0.39985  1.0000
  H   H876      1.0  0.36576  0.84406  0.36019  1.0000
  H   H877      1.0  0.38198  0.86415  0.36778  1.0000
  H   H878      1.0  0.39306  0.82961  0.32873  1.0000
  H   H879      1.0  0.37780  0.80886  0.35675  1.0000
  H   H880      1.0  0.39119  0.80665  0.38081  1.0000
  H   H881      1.0  0.41525  0.83089  0.39004  1.0000
  H   H882      1.0  0.41137  0.87066  0.38281  1.0000
  H   H883      1.0  0.42951  0.86700  0.36089  1.0000
  H   H884      1.0  0.36766  0.82681  0.39590  1.0000
  H   H885      1.0  0.38620  0.84552  0.40357  1.0000
  H   H886      1.0  0.38070  0.86512  0.32964  1.0000
  C   C500      1.0  0.25198  0.60590  0.39838  1.0000
  N   N27       1.0  0.44406  0.75274  0.47441  1.0000
  H   H887      1.0  0.28693  0.50891  0.36993  1.0000
  C   C501      1.0  0.31134  0.54691  0.02707  1.0000
  N   N28       1.0  0.25724  0.56620  0.35286  1.0000
  N   N29       1.0  0.43339  0.60549  0.11098  1.0000
  Fe  Fe57      1.0  0.48414  0.62286  0.01254  1.0000
  C   C502      1.0  0.36617  0.50533  0.07748  1.0000
  H   H888      1.0  0.37466  0.56318  0.01809  1.0000
  C   C503      1.0  0.42776  0.78917  0.48317  1.0000
  H   H889      1.0  0.43905  0.59460  0.07960  1.0000
  H   H890      1.0  0.40636  0.57631  0.13573  1.0000
  C   C504      1.0  0.24989  0.49333  0.26093  1.0000
  H   H891      1.0  0.39887  0.96106  0.46292  1.0000
  C   C505      1.0  0.34143  0.89454  0.47188  1.0000
  H   H892      1.0  0.43121  0.82903  0.36721  1.0000
  S   S118      1.0  0.36242  0.76471  0.47856  1.0000
  S   S119      1.0  0.34182  0.93769  0.47048  1.0000
  H   H893      1.0  0.47543  0.53618  0.23255  1.0000
  C   C506      1.0  0.41039  0.60100  0.11119  1.0000
  H   H894      1.0  0.40590  0.60237  0.14553  1.0000
  C   C507      1.0  0.43830  0.62380  0.12427  1.0000
  C   C508      1.0  0.40101  0.59280  0.13249  1.0000
  H   H895      1.0  0.45348  0.63051  0.11899  1.0000
  H   H896      1.0  0.43728  0.96297  0.46746  1.0000
  H   H897      1.0  0.28203  0.71924  0.45068  1.0000
  N   N30       1.0  0.34065  0.56201  0.04846  1.0000
  C   C509      1.0  0.43108  0.62788  0.07617  1.0000
  C   C510      1.0  0.43210  0.81254  0.48110  1.0000
  C   C511      1.0  0.47582  0.87077  0.33583  1.0000
  H   H898      1.0  0.35429  0.98428  0.41035  1.0000
  C   C512      1.0  0.43667  0.62682  0.05278  1.0000
  H   H899      1.0  0.43724  0.64272  0.08172  1.0000
  H   H900      1.0  0.41383  0.62849  0.07767  1.0000
  H   H901      1.0  0.40094  0.61505  0.10628  1.0000
  H   H902      1.0  0.41811  0.67337  0.13779  1.0000
  H   H903      1.0  0.33681  0.57726  0.08911  1.0000
  H   H904      1.0  0.41324  0.79945  0.33789  1.0000
  H   H905      1.0  0.43478  0.65579  0.15282  1.0000
  H   H906      1.0  0.40769  0.63703  0.13458  1.0000
  C   C513      1.0  0.42178  0.64210  0.12550  1.0000
  H   H907      1.0  0.25648  0.69194  0.46101  1.0000
  H   H908      1.0  0.25903  0.59962  0.35722  1.0000
  H   H909      1.0  0.42407  0.79570  0.36343  1.0000
  H   H910      1.0  0.44412  0.66693  0.12797  1.0000
  Fe  Fe58      1.0  0.34700  0.96926  0.48515  1.0000
  Fe  Fe59      1.0  0.48898  0.77072  0.31815  1.0000
  C   C514      1.0  0.30490  0.56773  0.31294  1.0000
  H   H911      1.0  0.35217  0.55328  0.09312  1.0000
  H   H912      1.0  0.45807  0.61201  0.08786  1.0000
  H   H913      1.0  0.31689  0.62378  0.03394  1.0000
  H   H914      1.0  0.32209  0.56626  0.31464  1.0000
  H   H915      1.0  0.33034  0.62574  0.00877  1.0000
  H   H916      1.0  0.24727  0.61992  0.38867  1.0000
  H   H917      1.0  0.47743  0.67624  0.08868  1.0000
  H   H918      1.0  0.26673  0.58412  0.32506  1.0000
  C   C515      1.0  0.26992  0.56847  0.33266  1.0000
  H   H919      1.0  0.27247  0.52646  0.33793  1.0000
  C   C516      1.0  0.26321  0.54625  0.36483  1.0000
  C   C517      1.0  0.26037  0.49932  0.27859  1.0000
  H   H920      1.0  0.48503  0.49787  0.04119  1.0000
  H   H921      1.0  0.47332  0.55274  0.12679  1.0000
  C   C518      1.0  0.39658  0.71582  0.48213  1.0000
  H   H922      1.0  0.28979  0.53774  0.00376  1.0000
  C   C519      1.0  0.26036  0.49271  0.24108  1.0000
  C   C520      1.0  0.24796  0.58582  0.38698  1.0000
  Fe  Fe60      1.0  0.32816  0.77261  0.48512  1.0000
  H   H923      1.0  0.25082  0.75632  0.47158  1.0000
  H   H924      1.0  0.25248  0.54396  0.37870  1.0000
  H   H925      1.0  0.25183  0.57239  0.39779  1.0000
  H   H926      1.0  0.41250  0.75238  0.48761  1.0000
  C   C521      1.0  0.48822  0.73773  0.43314  1.0000
  H   H927      1.0  0.44896  0.50606  0.21018  1.0000
  C   C522      1.0  0.48793  0.54733  0.22831  1.0000
  H   H928      1.0  0.48512  0.63686  0.28131  1.0000
  C   C523      1.0  0.24257  0.76932  0.47994  1.0000
  C   C524      1.0  0.25921  0.78413  0.48668  1.0000
  H   H929      1.0  0.26964  0.49249  0.35659  1.0000
  H   H930      1.0  0.42053  0.82145  0.49090  1.0000
  H   H931      1.0  0.48356  0.76369  0.49077  1.0000
  H   H932      1.0  0.42344  0.95432  0.49093  1.0000
  H   H933      1.0  0.42865  0.71464  0.49099  1.0000
  S   S120      1.0  0.37302  0.81022  0.49710  1.0000
  Fe  Fe61      1.0  0.33869  0.81609  0.50173  1.0000
  H   H934      1.0  0.41403  0.55663  0.88905  1.0000
  H   H935      1.0  0.34501  0.60347  0.96865  1.0000
  H   H936      1.0  0.36841  0.84041  0.53682  1.0000
  H   H937      1.0  0.42022  0.81379  0.56605  1.0000
  N   N31       1.0  0.40937  0.84426  0.55416  1.0000
  H   H938      1.0  0.44432  0.61820  0.70612  1.0000
  S   S121      1.0  0.29939  0.50024  0.72607  1.0000
  S   S122      1.0  0.46124  0.93977  0.64894  1.0000
  H   H939      1.0  0.40061  0.84431  0.52169  1.0000
  H   H940      1.0  0.38220  0.87241  0.50141  1.0000
  H   H941      1.0  0.45545  0.86558  0.59337  1.0000
  H   H942      1.0  0.29244  0.52576  0.82513  1.0000
  H   H943      1.0  0.26989  0.77596  0.49789  1.0000
  H   H944      1.0  0.48366  0.72180  0.86826  1.0000
  C   C525      1.0  0.48706  0.70485  0.82616  1.0000
  S   S123      1.0  0.35304  0.56111  0.95752  1.0000
  H   H945      1.0  0.27870  0.53377  0.65516  1.0000
  S   S124      1.0  0.47154  0.75965  0.62287  1.0000
  C   C526      1.0  0.45736  0.73135  0.82607  1.0000
  Fe  Fe62      1.0  0.45182  0.78920  0.62527  1.0000
  S   S125      1.0  0.41741  0.79139  0.61830  1.0000
  S   S126      1.0  0.46531  0.79873  0.65576  1.0000
  C   C527      1.0  0.40175  0.58797  0.98380  1.0000
  H   H946      1.0  0.24149  0.55305  0.58961  1.0000
  H   H947      1.0  0.41396  0.60470  0.89358  1.0000
  H   H948      1.0  0.45793  0.65580  0.66427  1.0000
  H   H949      1.0  0.39355  0.52066  0.88005  1.0000
  S   S127      1.0  0.45340  0.63905  0.84777  1.0000
  Fe  Fe63      1.0  0.46568  0.60972  0.77592  1.0000
  S   S128      1.0  0.44986  0.58513  0.75763  1.0000
  S   S129      1.0  0.45062  0.63956  0.78721  1.0000
  Fe  Fe64      1.0  0.35299  0.51372  0.78220  1.0000
  S   S130      1.0  0.31803  0.51342  0.78590  1.0000
  S   S131      1.0  0.36860  0.54171  0.79540  1.0000
  C   C528      1.0  0.35164  0.52984  0.87483  1.0000
  Fe  Fe65      1.0  0.47801  0.65618  0.77194  1.0000
  H   H950      1.0  0.40393  0.95989  0.57583  1.0000
  H   H951      1.0  0.46663  0.74835  0.85331  1.0000
  H   H952      1.0  0.25102  0.49490  0.66794  1.0000
  S   S132      1.0  0.32982  0.84782  0.51571  1.0000
  C   C529      1.0  0.39419  0.96420  0.62693  1.0000
  H   H953      1.0  0.45160  0.52638  0.76943  1.0000
  H   H954      1.0  0.37338  0.59548  0.86410  1.0000
  H   H955      1.0  0.42439  0.61936  0.92582  1.0000
  H   H956      1.0  0.40007  0.68083  0.81175  1.0000
  H   H957      1.0  0.48536  0.62666  0.68356  1.0000
  Fe  Fe66      1.0  0.36783  0.77785  0.51012  1.0000
  S   S133      1.0  0.39443  0.76225  0.52815  1.0000
  S   S134      1.0  0.33361  0.78416  0.51766  1.0000
  C   C530      1.0  0.27141  0.54661  0.66443  1.0000
  H   H958      1.0  0.41032  0.50554  0.78086  1.0000
  C   C531      1.0  0.42719  0.84802  0.58966  1.0000
  C   C532      1.0  0.45436  0.80259  0.54348  1.0000
  C   C533      1.0  0.44036  0.86270  0.60184  1.0000
  H   H959      1.0  0.36653  0.56616  0.88913  1.0000
  C   C534      1.0  0.42755  0.57282  0.76844  1.0000
  C   C535      1.0  0.41831  0.55708  0.75732  1.0000
  C   C536      1.0  0.40031  0.54724  0.76544  1.0000
  C   C537      1.0  0.39145  0.55313  0.78472  1.0000
  C   C538      1.0  0.40077  0.56876  0.79587  1.0000
  C   C539      1.0  0.41877  0.57855  0.78780  1.0000
  H   H960      1.0  0.42497  0.55267  0.74227  1.0000
  H   H961      1.0  0.39307  0.53539  0.75667  1.0000
  H   H962      1.0  0.39389  0.57347  0.81072  1.0000
  H   H963      1.0  0.42571  0.59073  0.79640  1.0000
  C   C540      1.0  0.41053  0.78143  0.59411  1.0000
  C   C541      1.0  0.39011  0.78472  0.58711  1.0000
  C   C542      1.0  0.38480  0.77856  0.56704  1.0000
  C   C543      1.0  0.39988  0.76896  0.55395  1.0000
  C   C544      1.0  0.42000  0.76474  0.56138  1.0000
  C   C545      1.0  0.42539  0.77114  0.58129  1.0000
  H   H964      1.0  0.37846  0.79230  0.59714  1.0000
  H   H965      1.0  0.36905  0.78116  0.56170  1.0000
  H   H966      1.0  0.43161  0.75690  0.55152  1.0000
  H   H967      1.0  0.44112  0.76834  0.58660  1.0000
  H   H968      1.0  0.30681  0.55740  0.88864  1.0000
  H   H969      1.0  0.41244  0.49438  0.70963  1.0000
  C   C546      1.0  0.28079  0.72556  0.50318  1.0000
  C   C547      1.0  0.47443  0.95642  0.50840  1.0000
  C   C548      1.0  0.46288  0.77037  0.82768  1.0000
  H   H970      1.0  0.39560  0.55770  0.97160  1.0000
  C   C549      1.0  0.45916  0.70334  0.85410  1.0000
  H   H971      1.0  0.46047  0.94922  0.51601  1.0000
  S   S135      1.0  0.38342  0.50839  0.94694  1.0000
  H   H972      1.0  0.46477  0.71367  0.65888  1.0000
  C   C550      1.0  0.42069  0.82340  0.55125  1.0000
  H   H973      1.0  0.38131  0.92743  0.53551  1.0000
  H   H974      1.0  0.44592  0.77337  0.83090  1.0000
  H   H975      1.0  0.41368  0.56335  0.93273  1.0000
  S   S136      1.0  0.33583  0.50477  0.96821  1.0000
  C   C551      1.0  0.42118  0.85805  0.56809  1.0000
  H   H976      1.0  0.40003  0.88024  0.63264  1.0000
  C   C552      1.0  0.48590  0.64684  0.87434  1.0000
  H   H977      1.0  0.48978  0.60010  0.88634  1.0000
  C   C553      1.0  0.46283  0.89653  0.65213  1.0000
  C   C554      1.0  0.35310  0.57652  0.88464  1.0000
  H   H978      1.0  0.44864  0.89825  0.66161  1.0000
  H   H979      1.0  0.26140  0.70797  0.52531  1.0000
  H   H980      1.0  0.43650  0.83324  0.58789  1.0000
  C   C555      1.0  0.43825  0.54127  0.92565  1.0000
  C   C556      1.0  0.25270  0.49294  0.68468  1.0000
  H   H981      1.0  0.45315  0.83423  0.55308  1.0000
  C   C557      1.0  0.41423  0.95606  0.61518  1.0000
  H   H982      1.0  0.29460  0.54241  0.68838  1.0000
  C   C558      1.0  0.47644  0.70634  0.87015  1.0000
  H   H983      1.0  0.34898  0.60854  0.87192  1.0000
  H   H984      1.0  0.30123  0.56147  0.66800  1.0000
  H   H985      1.0  0.44078  0.73421  0.83113  1.0000
  C   C559      1.0  0.46462  0.64329  0.87231  1.0000
  C   C560      1.0  0.45147  0.64351  0.89032  1.0000
  C   C561      1.0  0.45948  0.64665  0.91021  1.0000
  H   H986      1.0  0.43494  0.64118  0.88890  1.0000
  H   H987      1.0  0.44912  0.64708  0.92387  1.0000
  C   C562      1.0  0.36080  0.59908  0.97294  1.0000
  H   H988      1.0  0.26978  0.52667  0.58085  1.0000
  H   H989      1.0  0.36649  0.62892  0.98611  1.0000
  H   H990      1.0  0.25186  0.79814  0.49411  1.0000
  H   H991      1.0  0.41684  0.63598  0.67015  1.0000
  C   C563      1.0  0.29401  0.54305  0.82515  1.0000
  H   H992      1.0  0.43566  0.95035  0.56402  1.0000
  H   H993      1.0  0.44460  0.83069  0.52686  1.0000
  H   H994      1.0  0.34290  0.57952  0.89864  1.0000
  H   H995      1.0  0.30101  0.55820  0.92667  1.0000
  C   C564      1.0  0.43006  0.57673  0.86612  1.0000
  H   H996      1.0  0.44142  0.55227  0.88694  1.0000
  H   H997      1.0  0.35439  0.81654  0.57714  1.0000
  H   H998      1.0  0.46426  0.77802  0.50547  1.0000
  H   H999      1.0  0.41330  0.55387  0.84896  1.0000
  H   H1000     1.0  0.45269  0.59944  0.91958  1.0000
  C   C565      1.0  0.39906  0.98226  0.64094  1.0000
  H   H1001     1.0  0.41448  0.59613  0.69851  1.0000
  H   H1002     1.0  0.45453  0.69855  0.80104  1.0000
  H   H1003     1.0  0.46971  0.68908  0.64633  1.0000
  C   C566      1.0  0.41332  0.59369  0.90741  1.0000
  C   C567      1.0  0.43912  0.53079  0.94744  1.0000
  H   H1004     1.0  0.42335  0.69348  0.83862  1.0000
  C   C568      1.0  0.44477  0.94608  0.57808  1.0000
  C   C569      1.0  0.33382  0.89075  0.51499  1.0000
  H   H1005     1.0  0.27841  0.55056  0.82246  1.0000
  H   H1006     1.0  0.39072  0.63071  0.94132  1.0000
  C   C570      1.0  0.28821  0.55520  0.67795  1.0000
  H   H1007     1.0  0.28150  0.56779  0.68797  1.0000
  C   C571      1.0  0.38326  0.93904  0.54779  1.0000
  C   C572      1.0  0.39117  0.88391  0.50989  1.0000
  Fe  Fe67      1.0  0.36151  0.52789  0.96667  1.0000
  H   H1008     1.0  0.43334  0.51264  0.79436  1.0000
  C   C573      1.0  0.44909  0.66402  0.67701  1.0000
  H   H1009     1.0  0.42351  0.53135  0.95549  1.0000
  N   N32       1.0  0.33345  0.54489  0.87081  1.0000
  C   C574      1.0  0.44195  0.62916  0.69238  1.0000
  C   C575      1.0  0.36176  0.59763  0.87720  1.0000
  C   C576      1.0  0.42913  0.56485  0.88776  1.0000
  C   C577      1.0  0.47053  0.64865  0.70596  1.0000
  H   H1010     1.0  0.45407  0.53990  0.91828  1.0000
  H   H1011     1.0  0.48674  0.74677  0.83282  1.0000
  S   S137      1.0  0.47320  0.80850  0.60480  1.0000
  H   H1012     1.0  0.44102  0.74815  0.50821  1.0000
  H   H1013     1.0  0.34593  0.51361  0.87694  1.0000
  H   H1014     1.0  0.49009  0.72615  0.79822  1.0000
  Fe  Fe68      1.0  0.39462  0.49517  0.97769  1.0000
  N   N33       1.0  0.41170  0.93789  0.60107  1.0000
  C   C578      1.0  0.47196  0.57659  0.90414  1.0000
  C   C579      1.0  0.43312  0.93061  0.59325  1.0000
  H   H1015     1.0  0.43241  0.91526  0.58559  1.0000
  C   C580      1.0  0.39554  0.92909  0.56584  1.0000
  H   H1016     1.0  0.44806  0.96071  0.58611  1.0000
  H   H1017     1.0  0.32639  0.57799  0.86562  1.0000
  C   C581      1.0  0.42781  0.69581  0.82182  1.0000
  S   S138      1.0  0.48779  0.56195  0.96420  1.0000
  H   H1018     1.0  0.41084  0.92350  0.55924  1.0000
  H   H1019     1.0  0.28468  0.50282  0.68399  1.0000
  H   H1020     1.0  0.48388  0.54568  0.76448  1.0000
  C   C582      1.0  0.46523  0.51815  0.76208  1.0000
  C   C583      1.0  0.39108  0.62044  0.92759  1.0000
  H   H1021     1.0  0.47030  0.80341  0.53624  1.0000
  H   H1022     1.0  0.42912  0.50825  0.75041  1.0000
  C   C584      1.0  0.38826  0.84034  0.56443  1.0000
  C   C585      1.0  0.39445  0.87608  0.53246  1.0000
  C   C586      1.0  0.37218  0.83018  0.55058  1.0000
  C   C587      1.0  0.35170  0.82643  0.56282  1.0000
  C   C588      1.0  0.41730  0.67891  0.80988  1.0000
  H   H1023     1.0  0.39002  0.82987  0.57860  1.0000
  H   H1024     1.0  0.41175  0.87255  0.57154  1.0000
  H   H1025     1.0  0.40282  0.88827  0.54053  1.0000
  H   H1026     1.0  0.37880  0.87455  0.54012  1.0000
  H   H1027     1.0  0.37825  0.81500  0.54472  1.0000
  H   H1028     1.0  0.34088  0.81822  0.55285  1.0000
  C   C589      1.0  0.47761  0.70256  0.73194  1.0000
  C   C590      1.0  0.43020  0.56443  0.92679  1.0000
  H   H1029     1.0  0.43186  0.87784  0.60436  1.0000
  H   H1030     1.0  0.42812  0.90622  0.62952  1.0000
  N   N34       1.0  0.43144  0.57793  0.90681  1.0000
  N   N35       1.0  0.44901  0.65079  0.69702  1.0000
  H   H1031     1.0  0.24166  0.75057  0.50797  1.0000
  H   H1032     1.0  0.39177  0.95254  0.54077  1.0000
  C   C591      1.0  0.43455  0.66127  0.71287  1.0000
  H   H1033     1.0  0.46364  0.86259  0.65495  1.0000
  C   C592      1.0  0.40138  0.91986  0.61265  1.0000
  C   C593      1.0  0.45190  0.69482  0.81803  1.0000
  C   C594      1.0  0.42997  0.64836  0.73339  1.0000
  C   C595      1.0  0.41903  0.62775  0.68553  1.0000
  C   C596      1.0  0.41324  0.60492  0.68326  1.0000
  H   H1034     1.0  0.26015  0.52733  0.62678  1.0000
  H   H1035     1.0  0.39835  0.58536  0.90674  1.0000
  C   C597      1.0  0.41482  0.66044  0.74789  1.0000
  H   H1036     1.0  0.43294  0.66628  0.67127  1.0000
  H   H1037     1.0  0.48897  0.69404  0.86814  1.0000
  C   C598      1.0  0.36930  0.52932  0.85772  1.0000
  C   C599      1.0  0.45885  0.69766  0.65715  1.0000
  H   H1038     1.0  0.41941  0.66606  0.70579  1.0000
  H   H1039     1.0  0.44119  0.67620  0.71773  1.0000
  H   H1040     1.0  0.46058  0.74359  0.69990  1.0000
  C   C600      1.0  0.26180  0.56407  0.64987  1.0000
  H   H1041     1.0  0.43856  0.57185  0.93956  1.0000
  H   H1042     1.0  0.26051  0.59883  0.62150  1.0000
  H   H1043     1.0  0.47542  0.93140  0.58379  1.0000
  C   C601      1.0  0.25611  0.54289  0.61932  1.0000
  H   H1044     1.0  0.44458  0.64501  0.74187  1.0000
  H   H1045     1.0  0.42282  0.63322  0.73034  1.0000
  H   H1046     1.0  0.40780  0.63471  0.69708  1.0000
  H   H1047     1.0  0.44721  0.69602  0.68889  1.0000
  H   H1048     1.0  0.42365  0.59720  0.67138  1.0000
  H   H1049     1.0  0.41694  0.58837  0.86453  1.0000
  S   S139      1.0  0.32813  0.98923  0.50793  1.0000
  C   C602      1.0  0.42229  0.50004  0.79212  1.0000
  S   S140      1.0  0.45434  0.61420  0.96096  1.0000
  H   H1050     1.0  0.46616  0.77181  0.81052  1.0000
  H   H1051     1.0  0.41299  0.59875  0.94167  1.0000
  H   H1052     1.0  0.42120  0.71119  0.81619  1.0000
  H   H1053     1.0  0.42618  0.95217  0.62701  1.0000
  H   H1054     1.0  0.39982  0.66402  0.74009  1.0000
  H   H1055     1.0  0.41153  0.65080  0.76233  1.0000
  H   H1056     1.0  0.42172  0.67531  0.75243  1.0000
  H   H1057     1.0  0.33047  0.88940  0.53167  1.0000
  H   H1058     1.0  0.42055  0.96964  0.60607  1.0000
  C   C603      1.0  0.48068  0.65034  0.91231  1.0000
  H   H1059     1.0  0.44518  0.79160  0.53465  1.0000
  H   H1060     1.0  0.48074  0.70433  0.90377  1.0000
  H   H1061     1.0  0.42199  0.66311  0.81623  1.0000
  H   H1062     1.0  0.45588  0.79645  0.55985  1.0000
  C   C604      1.0  0.45339  0.74764  0.49552  1.0000
  C   C605      1.0  0.46775  0.70425  0.89265  1.0000
  H   H1063     1.0  0.27504  0.57115  0.64075  1.0000
  H   H1064     1.0  0.44361  0.92757  0.60666  1.0000
  H   H1065     1.0  0.40105  0.90610  0.60245  1.0000
  H   H1066     1.0  0.42868  0.78417  0.49992  1.0000
  C   C606      1.0  0.39811  0.94513  0.58323  1.0000
  H   H1067     1.0  0.38469  0.92388  0.61648  1.0000
  Fe  Fe69      1.0  0.47537  0.97023  0.63626  1.0000
  H   H1068     1.0  0.30480  0.54810  0.81216  1.0000
  C   C607      1.0  0.25401  0.52180  0.58633  1.0000
  H   H1069     1.0  0.46308  0.92268  0.56066  1.0000
  H   H1070     1.0  0.44480  0.71207  0.85963  1.0000
  H   H1071     1.0  0.45184  0.62233  0.67955  1.0000
  C   C608      1.0  0.26600  0.71021  0.50898  1.0000
  N   N36       1.0  0.46415  0.70898  0.83127  1.0000
  H   H1072     1.0  0.45036  0.53869  0.95713  1.0000
  H   H1073     1.0  0.38093  0.85512  0.57037  1.0000
  C   C609      1.0  0.46564  0.93644  0.57035  1.0000
  H   H1074     1.0  0.32075  0.52133  0.85159  1.0000
  H   H1075     1.0  0.27134  0.54914  0.61362  1.0000
  H   H1076     1.0  0.38401  0.89855  0.64778  1.0000
  C   C610      1.0  0.40028  0.89358  0.64336  1.0000
  H   H1077     1.0  0.42997  0.57045  0.83299  1.0000
  H   H1078     1.0  0.47165  0.78253  0.83541  1.0000
  H   H1079     1.0  0.39762  0.50900  0.72922  1.0000
  H   H1080     1.0  0.45122  0.60137  0.89219  1.0000
  H   H1081     1.0  0.44405  0.49297  0.73229  1.0000
  H   H1082     1.0  0.38685  0.91536  0.57202  1.0000
  H   H1083     1.0  0.46816  0.75266  0.53576  1.0000
  C   C611      1.0  0.46608  0.49421  0.76764  1.0000
  H   H1084     1.0  0.28999  0.54575  0.85822  1.0000
  H   H1085     1.0  0.34408  0.84160  0.56725  1.0000
  C   C612      1.0  0.41194  0.91189  0.63304  1.0000
  H   H1086     1.0  0.44434  0.51412  0.94612  1.0000
  H   H1087     1.0  0.41252  0.81390  0.53991  1.0000
  H   H1088     1.0  0.38932  0.63051  0.91321  1.0000
  H   H1089     1.0  0.44498  0.58491  0.86366  1.0000
  H   H1090     1.0  0.37777  0.60974  0.92939  1.0000
  H   H1091     1.0  0.44315  0.69920  0.65027  1.0000
  H   H1092     1.0  0.30338  0.56695  0.84501  1.0000
  H   H1093     1.0  0.38726  0.95171  0.63714  1.0000
  H   H1094     1.0  0.33539  0.92462  0.51469  1.0000
  C   C613      1.0  0.47095  0.73136  0.70608  1.0000
  H   H1095     1.0  0.40833  0.88812  0.65778  1.0000
  C   C614      1.0  0.40733  0.85505  0.53294  1.0000
  H   H1096     1.0  0.43559  0.86373  0.55990  1.0000
  H   H1097     1.0  0.41299  0.84451  0.59938  1.0000
  C   C615      1.0  0.33661  0.91075  0.50540  1.0000
  C   C616      1.0  0.45139  0.58984  0.90556  1.0000
  H   H1098     1.0  0.41764  0.58377  0.98781  1.0000
  H   H1099     1.0  0.45979  0.73120  0.49603  1.0000
  Fe  Fe70      1.0  0.47649  0.59240  0.97775  1.0000
  C   C617      1.0  0.41177  0.60790  0.92673  1.0000
  H   H1100     1.0  0.44387  0.85531  0.61739  1.0000
  H   H1101     1.0  0.34911  0.56892  0.85214  1.0000
  C   C618      1.0  0.27458  0.49465  0.71560  1.0000
  C   C619      1.0  0.31733  0.54316  0.88857  1.0000
  H   H1102     1.0  0.25535  0.50666  0.59534  1.0000
  C   C620      1.0  0.38932  0.57328  0.97461  1.0000
  H   H1103     1.0  0.42301  0.85870  0.52611  1.0000
  H   H1104     1.0  0.33398  0.54122  0.83703  1.0000
  H   H1105     1.0  0.48609  0.52731  0.78632  1.0000
  H   H1106     1.0  0.45759  0.73428  0.80878  1.0000
  C   C621      1.0  0.47130  0.87626  0.64839  1.0000
  C   C622      1.0  0.32534  0.53914  0.91110  1.0000
  Fe  Fe71      1.0  0.46998  0.63459  0.81591  1.0000
  H   H1107     1.0  0.41244  0.92438  0.64466  1.0000
  H   H1108     1.0  0.28737  0.73488  0.51501  1.0000
  H   H1109     1.0  0.47414  0.56729  0.91892  1.0000
  H   H1110     1.0  0.38204  0.94931  0.58910  1.0000
  H   H1111     1.0  0.38207  0.89901  0.50978  1.0000
  H   H1112     1.0  0.33788  0.54971  0.91487  1.0000
  C   C623      1.0  0.24333  0.53867  0.59971  1.0000
  C   C624      1.0  0.44378  0.82437  0.54323  1.0000
  H   H1113     1.0  0.46434  0.52078  0.74484  1.0000
  H   H1114     1.0  0.36750  0.94462  0.55337  1.0000
  H   H1115     1.0  0.42747  0.53222  0.91637  1.0000
  C   C625      1.0  0.38769  0.51532  0.86500  1.0000
  H   H1116     1.0  0.45955  0.68930  0.89516  1.0000
  C   C626      1.0  0.27182  0.49740  0.69386  1.0000
  H   H1117     1.0  0.30704  0.52973  0.88613  1.0000
  C   C627      1.0  0.46972  0.74862  0.83613  1.0000
  C   C628      1.0  0.33485  0.87252  0.50312  1.0000
  H   H1118     1.0  0.48786  0.73800  0.52086  1.0000
  H   H1119     1.0  0.39687  0.60428  0.67814  1.0000
  C   C629      1.0  0.36887  0.57893  0.96913  1.0000
  H   H1120     1.0  0.44141  0.54949  0.84873  1.0000
  C   C630      1.0  0.42857  0.56160  0.84820  1.0000
  H   H1121     1.0  0.33169  0.52277  0.91290  1.0000
  C   C631      1.0  0.48029  0.75372  0.52301  1.0000
  H   H1122     1.0  0.44908  0.72136  0.73056  1.0000
  C   C632      1.0  0.25038  0.59014  0.61122  1.0000
  H   H1123     1.0  0.45668  0.71751  0.89614  1.0000
  H   H1124     1.0  0.40067  0.51600  0.85316  1.0000
  H   H1125     1.0  0.45536  0.68643  0.85602  1.0000
  H   H1126     1.0  0.36952  0.60494  0.89027  1.0000
  S   S141      1.0  0.37684  0.97158  0.50200  1.0000
  H   H1127     1.0  0.42161  0.68014  0.79292  1.0000
  Fe  Fe72      1.0  0.47767  0.63862  0.96600  1.0000
  S   S142      1.0  0.46820  0.68676  0.75382  1.0000
  H   H1128     1.0  0.25535  0.57689  0.65981  1.0000
  H   H1129     1.0  0.40055  0.50968  0.81679  1.0000
  C   C633      1.0  0.45764  0.68637  0.67860  1.0000
  H   H1130     1.0  0.25937  0.53984  0.67526  1.0000
  Fe  Fe73      1.0  0.31753  0.49446  0.75669  1.0000
  H   H1131     1.0  0.31369  0.53887  0.94336  1.0000
  C   C634      1.0  0.25693  0.69790  0.49392  1.0000
  H   H1132     1.0  0.37525  0.54519  0.85420  1.0000
  C   C635      1.0  0.47076  0.76205  0.50261  1.0000
  C   C636      1.0  0.34021  0.56719  0.86733  1.0000
  C   C637      1.0  0.48847  0.64190  0.69048  1.0000
  C   C638      1.0  0.32340  0.53849  0.85097  1.0000
  H   H1133     1.0  0.29509  0.53071  0.92494  1.0000
  H   H1134     1.0  0.47061  0.63693  0.71922  1.0000
  C   C639      1.0  0.46447  0.71867  0.72355  1.0000
  H   H1135     1.0  0.47423  0.94829  0.56065  1.0000
  Fe  Fe74      1.0  0.48667  0.76982  0.65212  1.0000
  H   H1136     1.0  0.35907  0.53303  0.88977  1.0000
  N   N37       1.0  0.24558  0.55707  0.63523  1.0000
  H   H1137     1.0  0.38229  0.97011  0.61578  1.0000
  H   H1138     1.0  0.41076  0.97708  0.65267  1.0000
  C   C640      1.0  0.30762  0.54191  0.92744  1.0000
  H   H1139     1.0  0.36370  0.52287  0.84304  1.0000
  C   C641      1.0  0.30208  0.54969  0.84604  1.0000
  H   H1140     1.0  0.47118  0.49214  0.78410  1.0000
  Fe  Fe75      1.0  0.48821  0.81641  0.63461  1.0000
  H   H1141     1.0  0.26063  0.58088  0.60046  1.0000
  S   S143      1.0  0.48283  0.60319  0.80570  1.0000
  H   H1142     1.0  0.38288  0.49880  0.86705  1.0000
  H   H1143     1.0  0.40637  0.88637  0.50151  1.0000
  H   H1144     1.0  0.47352  0.68596  0.68497  1.0000
  H   H1145     1.0  0.47492  0.66350  0.71300  1.0000
  C   C642      1.0  0.47274  0.91455  0.64406  1.0000
  H   H1146     1.0  0.46806  0.98557  0.52308  1.0000
  S   S144      1.0  0.35241  0.49758  0.75148  1.0000
  H   H1147     1.0  0.45744  0.67820  0.82049  1.0000
  H   H1148     1.0  0.47220  0.56597  0.89076  1.0000
  C   C643      1.0  0.47103  0.98022  0.50690  1.0000
  H   H1149     1.0  0.45887  0.51706  0.99007  1.0000
  H   H1150     1.0  0.38460  0.98770  0.64942  1.0000
  C   C644      1.0  0.40239  0.49306  0.72406  1.0000
  H   H1151     1.0  0.47686  0.94998  0.49253  1.0000
  C   C645      1.0  0.37290  0.61343  0.98284  1.0000
  C   C646      1.0  0.41113  0.49604  0.81326  1.0000
  H   H1152     1.0  0.48821  0.95219  0.51798  1.0000
  C   C647      1.0  0.48480  0.52872  0.76903  1.0000
  C   C648      1.0  0.39336  0.60795  0.98820  1.0000
  H   H1153     1.0  0.39065  0.72300  0.49688  1.0000
  H   H1154     1.0  0.24454  0.51936  0.57239  1.0000
  H   H1155     1.0  0.45679  0.98360  0.49779  1.0000
  H   H1156     1.0  0.48451  0.49518  0.98417  1.0000
  H   H1157     1.0  0.48759  0.69902  0.79230  1.0000
  H   H1158     1.0  0.24903  0.61660  0.58899  1.0000
  H   H1159     1.0  0.42263  0.49392  0.82586  1.0000
  C   C649      1.0  0.49017  0.87379  0.63700  1.0000
  C   C650      1.0  0.53054  0.12895  0.36157  1.0000
  H   H1160     1.0  0.50662  0.25762  0.38518  1.0000
  S   S145      1.0  0.55427  0.46913  0.02892  1.0000
  S   S146      1.0  0.61348  0.47080  0.00930  1.0000
  S   S147      1.0  0.49232  0.37993  0.17517  1.0000
  H   H1161     1.0  0.69033  0.45363  0.03454  1.0000
  H   H1162     1.0  0.55455  0.35849  0.13477  1.0000
  H   H1163     1.0  0.64776  0.26701  0.44537  1.0000
  H   H1164     1.0  0.54284  0.17504  0.46266  1.0000
  H   H1165     1.0  0.61747  0.05464  0.46609  1.0000
  C   C651      1.0  0.51637  0.44435  0.16631  1.0000
  Fe  Fe76      1.0  0.51279  0.19151  0.36124  1.0000
  S   S148      1.0  0.54700  0.19000  0.36936  1.0000
  S   S149      1.0  0.50180  0.18357  0.32929  1.0000
  Fe  Fe77      1.0  0.52051  0.36478  0.18967  1.0000
  S   S150      1.0  0.55059  0.38110  0.18075  1.0000
  S   S151      1.0  0.51370  0.33294  0.17779  1.0000
  Fe  Fe78      1.0  0.61429  0.47201  0.21675  1.0000
  S   S152      1.0  0.59169  0.45050  0.23405  1.0000
  S   S153      1.0  0.64322  0.46061  0.19963  1.0000
  Fe  Fe79      1.0  0.60092  0.20349  0.47479  1.0000
  S   S154      1.0  0.57066  0.21595  0.46063  1.0000
  S   S155      1.0  0.62989  0.19143  0.45811  1.0000
  H   H1166     1.0  0.54982  0.05324  0.41776  1.0000
  H   H1167     1.0  0.66363  0.41974  0.05358  1.0000
  C   C652      1.0  0.56184  0.44302  0.99653  1.0000
  H   H1168     1.0  0.51869  0.28999  0.16071  1.0000
  H   H1169     1.0  0.52269  0.29969  0.32277  1.0000
  H   H1170     1.0  0.49847  0.16694  0.44913  1.0000
  C   C653      1.0  0.61917  0.15193  0.40959  1.0000
  C   C654      1.0  0.56108  0.40081  0.19575  1.0000
  C   C655      1.0  0.55619  0.40254  0.21713  1.0000
  C   C656      1.0  0.56567  0.41782  0.22874  1.0000
  C   C657      1.0  0.57985  0.43165  0.21902  1.0000
  C   C658      1.0  0.58447  0.43014  0.19758  1.0000
  C   C659      1.0  0.57522  0.41469  0.18605  1.0000
  H   H1171     1.0  0.54554  0.39173  0.22481  1.0000
  H   H1172     1.0  0.56215  0.41880  0.24535  1.0000
  H   H1173     1.0  0.59545  0.44064  0.18992  1.0000
  H   H1174     1.0  0.57923  0.41336  0.16956  1.0000
  C   C660      1.0  0.55352  0.19842  0.39434  1.0000
  C   C661      1.0  0.53811  0.20527  0.40875  1.0000
  C   C662      1.0  0.54370  0.21116  0.42880  1.0000
  C   C663      1.0  0.56459  0.20972  0.43481  1.0000
  C   C664      1.0  0.58004  0.20321  0.42027  1.0000
  C   C665      1.0  0.57452  0.19787  0.40001  1.0000
  H   H1175     1.0  0.52189  0.20599  0.40447  1.0000
  H   H1176     1.0  0.53177  0.21656  0.43982  1.0000
  H   H1177     1.0  0.59622  0.20230  0.42464  1.0000
  H   H1178     1.0  0.58655  0.19289  0.38882  1.0000
  C   C666      1.0  0.49238  0.49168  0.02654  1.0000
  H   H1179     1.0  0.50878  0.40614  0.26240  1.0000
  Fe  Fe80      1.0  0.63446  0.48436  0.17420  1.0000
  H   H1180     1.0  0.53262  0.44978  0.16696  1.0000
  C   C667      1.0  0.53741  0.25394  0.36970  1.0000
  H   H1181     1.0  0.52727  0.14614  0.36077  1.0000
  H   H1182     1.0  0.54303  0.14781  0.39639  1.0000
  C   C668      1.0  0.60135  0.13909  0.41916  1.0000
  C   C669      1.0  0.63105  0.27926  0.47283  1.0000
  H   H1183     1.0  0.56315  0.13217  0.36659  1.0000
  H   H1184     1.0  0.72474  0.28811  0.46280  1.0000
  H   H1185     1.0  0.68501  0.47260  0.34687  1.0000
  H   H1186     1.0  0.53198  0.12358  0.40381  1.0000
  H   H1187     1.0  0.50068  0.42093  0.14890  1.0000
  C   C670      1.0  0.62946  0.10486  0.47800  1.0000
  C   C671      1.0  0.73541  0.47752  0.27575  1.0000
  H   H1188     1.0  0.60933  0.26118  0.33278  1.0000
  H   H1189     1.0  0.49823  0.43225  0.26664  1.0000
  H   H1190     1.0  0.72289  0.45728  0.02221  1.0000
  Fe  Fe81      1.0  0.49246  0.34081  0.01143  1.0000
  H   H1191     1.0  0.51901  0.31423  0.08273  1.0000
  H   H1192     1.0  0.50704  0.01860  0.45260  1.0000
  C   C672      1.0  0.54843  0.44830  0.01332  1.0000
  H   H1193     1.0  0.55051  0.45228  0.09995  1.0000
  C   C673      1.0  0.69737  0.48416  0.34365  1.0000
  C   C674      1.0  0.52996  0.43750  0.01703  1.0000
  C   C675      1.0  0.55508  0.20245  0.30653  1.0000
  H   H1194     1.0  0.51941  0.44186  0.02979  1.0000
  H   H1195     1.0  0.51378  0.40011  0.04376  1.0000
  H   H1196     1.0  0.60773  0.12305  0.42266  1.0000
  C   C676      1.0  0.49333  0.28072  0.24887  1.0000
  H   H1197     1.0  0.54130  0.08884  0.40428  1.0000
  H   H1198     1.0  0.52315  0.43197  0.13552  1.0000
  H   H1199     1.0  0.55335  0.25876  0.37326  1.0000
  C   C677      1.0  0.54319  0.37173  0.05784  1.0000
  C   C678      1.0  0.54588  0.36939  0.10354  1.0000
  H   H1200     1.0  0.72970  0.46125  0.24741  1.0000
  C   C679      1.0  0.55185  0.15443  0.43738  1.0000
  H   H1201     1.0  0.72493  0.42741  0.26934  1.0000
  H   H1202     1.0  0.53470  0.35671  0.05878  1.0000
  C   C680      1.0  0.56174  0.36070  0.02396  1.0000
  H   H1203     1.0  0.55011  0.35375  0.09721  1.0000
  C   C681      1.0  0.62031  0.47808  0.09910  1.0000
  H   H1204     1.0  0.54084  0.29888  0.27767  1.0000
  H   H1205     1.0  0.53768  0.38156  0.13435  1.0000
  Fe  Fe82      1.0  0.62852  0.16386  0.48134  1.0000
  S   S156      1.0  0.62699  0.47447  0.14123  1.0000
  S   S157      1.0  0.50479  0.35890  0.22113  1.0000
  C   C682      1.0  0.63396  0.27738  0.44912  1.0000
  H   H1206     1.0  0.56146  0.15456  0.46979  1.0000
  N   N38       1.0  0.54318  0.25733  0.32920  1.0000
  H   H1207     1.0  0.71601  0.40473  0.28440  1.0000
  C   C683      1.0  0.53421  0.26942  0.31062  1.0000
  C   C684      1.0  0.56593  0.26242  0.33100  1.0000
  H   H1208     1.0  0.49773  0.20609  0.45039  1.0000
  H   H1209     1.0  0.71279  0.47567  0.34361  1.0000
  C   C685      1.0  0.68071  0.44657  0.02257  1.0000
  C   C686      1.0  0.49612  0.06931  0.33605  1.0000
  H   H1210     1.0  0.53843  0.04028  0.45829  1.0000
  H   H1211     1.0  0.51350  0.29959  0.28552  1.0000
  H   H1212     1.0  0.54593  0.22451  0.33900  1.0000
  H   H1213     1.0  0.51180  0.22575  0.47320  1.0000
  C   C687      1.0  0.50861  0.42632  0.23444  1.0000
  C   C688      1.0  0.55211  0.44278  0.08569  1.0000
  S   S158      1.0  0.50075  0.29516  0.22527  1.0000
  C   C689      1.0  0.57130  0.10293  0.41137  1.0000
  H   H1214     1.0  0.51766  0.26521  0.30862  1.0000
  H   H1215     1.0  0.54265  0.26499  0.29587  1.0000
  H   H1216     1.0  0.57307  0.26634  0.31529  1.0000
  H   H1217     1.0  0.55126  0.01714  0.46988  1.0000
  S   S159      1.0  0.62532  0.13106  0.46803  1.0000
  H   H1218     1.0  0.72223  0.48013  0.00496  1.0000
  H   H1219     1.0  0.53867  0.22880  0.29217  1.0000
  H   H1220     1.0  0.66635  0.41798  0.99636  1.0000
  H   H1221     1.0  0.49415  0.42765  0.18680  1.0000
  C   C690      1.0  0.53062  0.26388  0.34844  1.0000
  H   H1222     1.0  0.50318  0.37776  0.05702  1.0000
  C   C691      1.0  0.49479  0.40766  0.07047  1.0000
  H   H1223     1.0  0.53773  0.15949  0.42869  1.0000
  N   N39       1.0  0.50393  0.45407  0.20401  1.0000
  C   C692      1.0  0.58280  0.13870  0.40413  1.0000
  H   H1224     1.0  0.61152  0.09172  0.45393  1.0000
  C   C693      1.0  0.51049  0.27691  0.16894  1.0000
  H   H1225     1.0  0.51517  0.26197  0.16140  1.0000
  C   C694      1.0  0.60137  0.25389  0.34675  1.0000
  H   H1226     1.0  0.53651  0.45292  0.21244  1.0000
  H   H1227     1.0  0.53276  0.37776  0.02556  1.0000
  H   H1228     1.0  0.72866  0.42545  0.29716  1.0000
  H   H1229     1.0  0.61996  0.27034  0.44274  1.0000
  H   H1230     1.0  0.51446  0.25472  0.24197  1.0000
  C   C695      1.0  0.62077  0.08826  0.46755  1.0000
  C   C696      1.0  0.55761  0.13101  0.43370  1.0000
  H   H1231     1.0  0.53142  0.28103  0.35046  1.0000
  C   C697      1.0  0.56258  0.06440  0.41470  1.0000
  N   N40       1.0  0.56453  0.12581  0.41163  1.0000
  H   H1232     1.0  0.54790  0.41425  0.10365  1.0000
  C   C698      1.0  0.49460  0.33193  0.06696  1.0000
  H   H1233     1.0  0.53705  0.23662  0.36975  1.0000
  H   H1234     1.0  0.58932  0.13289  0.38897  1.0000
  H   H1235     1.0  0.55872  0.36811  0.06463  1.0000
  C   C699      1.0  0.62418  0.06718  0.47437  1.0000
  C   C700      1.0  0.54115  0.42203  0.08950  1.0000
  S   S160      1.0  0.59739  0.00686  0.47285  1.0000
  H   H1236     1.0  0.54175  0.41751  0.05592  1.0000
  S   S161      1.0  0.49339  0.22116  0.36296  1.0000
  C   C701      1.0  0.54657  0.13060  0.39731  1.0000
  C   C702      1.0  0.54095  0.36624  0.12698  1.0000
  H   H1237     1.0  0.54676  0.08878  0.43174  1.0000
  H   H1238     1.0  0.56624  0.19879  0.31921  1.0000
  H   H1239     1.0  0.53039  0.47185  0.19279  1.0000
  C   C703      1.0  0.54996  0.12380  0.37432  1.0000
  H   H1240     1.0  0.56402  0.36488  0.00704  1.0000
  H   H1241     1.0  0.51378  0.26072  0.34650  1.0000
  C   C704      1.0  0.71784  0.42196  0.28456  1.0000
  H   H1242     1.0  0.69685  0.26543  0.45087  1.0000
  H   H1243     1.0  0.52438  0.43187  0.23740  1.0000
  H   H1244     1.0  0.52303  0.23119  0.32567  1.0000
  H   H1245     1.0  0.51659  0.47724  0.23891  1.0000
  H   H1246     1.0  0.51910  0.39085  0.10228  1.0000
  N   N41       1.0  0.65897  0.43633  0.27473  1.0000
  C   C705      1.0  0.64765  0.43436  0.25455  1.0000
  C   C706      1.0  0.65806  0.45904  0.28072  1.0000
  C   C707      1.0  0.68168  0.43026  0.27042  1.0000
  C   C708      1.0  0.65045  0.42236  0.29236  1.0000
  C   C709      1.0  0.62677  0.41769  0.29221  1.0000
  C   C710      1.0  0.65007  0.41256  0.24441  1.0000
  C   C711      1.0  0.69675  0.43320  0.28862  1.0000
  C   C712      1.0  0.63627  0.46873  0.28639  1.0000
  S   S162      1.0  0.69096  0.47751  0.23077  1.0000
  C   C713      1.0  0.61946  0.40726  0.31289  1.0000
  C   C714      1.0  0.63186  0.40825  0.23042  1.0000
  H   H1247     1.0  0.52956  0.32124  0.29091  1.0000
  H   H1248     1.0  0.65339  0.44613  0.24264  1.0000
  H   H1249     1.0  0.63078  0.43843  0.25658  1.0000
  H   H1250     1.0  0.66753  0.46135  0.29467  1.0000
  H   H1251     1.0  0.66505  0.46891  0.26782  1.0000
  H   H1252     1.0  0.68793  0.43930  0.25650  1.0000
  H   H1253     1.0  0.68331  0.41350  0.26622  1.0000
  H   H1254     1.0  0.65874  0.40673  0.29256  1.0000
  H   H1255     1.0  0.65377  0.42905  0.30775  1.0000
  H   H1256     1.0  0.62365  0.40680  0.27957  1.0000
  H   H1257     1.0  0.61684  0.43195  0.28948  1.0000
  H   H1258     1.0  0.66470  0.41195  0.23459  1.0000
  H   H1259     1.0  0.65115  0.39963  0.25639  1.0000
  H   H1260     1.0  0.69016  0.42704  0.30376  1.0000
  H   H1261     1.0  0.69986  0.45008  0.29020  1.0000
  H   H1262     1.0  0.62531  0.46752  0.27343  1.0000
  H   H1263     1.0  0.62972  0.46089  0.30076  1.0000
  H   H1264     1.0  0.50993  0.41231  0.22458  1.0000
  C   C715      1.0  0.49761  0.24873  0.27132  1.0000
  C   C716      1.0  0.72388  0.47320  0.25790  1.0000
  H   H1265     1.0  0.62854  0.39241  0.31597  1.0000
  H   H1266     1.0  0.62126  0.41794  0.32606  1.0000
  H   H1267     1.0  0.60269  0.40356  0.31209  1.0000
  H   H1268     1.0  0.63026  0.42061  0.21793  1.0000
  H   H1269     1.0  0.63460  0.39294  0.22287  1.0000
  H   H1270     1.0  0.61700  0.40763  0.23980  1.0000
  H   H1271     1.0  0.61669  0.28903  0.47580  1.0000
  N   N42       1.0  0.68366  0.45808  0.00168  1.0000
  C   C717      1.0  0.65736  0.43616  0.05384  1.0000
  C   C718      1.0  0.49830  0.32977  0.10510  1.0000
  H   H1272     1.0  0.53312  0.12350  0.34533  1.0000
  H   H1273     1.0  0.51553  0.27588  0.18542  1.0000
  H   H1274     1.0  0.53712  0.00177  0.39294  1.0000
  H   H1275     1.0  0.55327  0.10669  0.37344  1.0000
  Fe  Fe83      1.0  0.49563  0.32777  0.20871  1.0000
  C   C719      1.0  0.54729  0.15825  0.46059  1.0000
  H   H1276     1.0  0.56131  0.40337  0.06973  1.0000
  H   H1277     1.0  0.61384  0.16843  0.40654  1.0000
  H   H1278     1.0  0.61168  0.24102  0.35308  1.0000
  H   H1279     1.0  0.59888  0.26574  0.35901  1.0000
  H   H1280     1.0  0.56230  0.19722  0.29148  1.0000
  C   C720      1.0  0.50526  0.32434  0.08474  1.0000
  C   C721      1.0  0.50289  0.26085  0.25304  1.0000
  H   H1281     1.0  0.55490  0.39267  0.03208  1.0000
  S   S163      1.0  0.50497  0.04348  0.32987  1.0000
  H   H1282     1.0  0.59654  0.14634  0.43416  1.0000
  H   H1283     1.0  0.57370  0.04994  0.48202  1.0000
  H   H1284     1.0  0.57575  0.99803  0.39369  1.0000
  H   H1285     1.0  0.56474  0.16461  0.43225  1.0000
  H   H1286     1.0  0.65083  0.30538  0.47530  1.0000
  H   H1287     1.0  0.51084  0.03904  0.48564  1.0000
  H   H1288     1.0  0.64781  0.43741  0.02196  1.0000
  H   H1289     1.0  0.57598  0.45146  0.99343  1.0000
  H   H1290     1.0  0.64093  0.43604  0.05994  1.0000
  C   C722      1.0  0.70502  0.48421  0.25341  1.0000
  C   C723      1.0  0.54745  0.37726  0.03426  1.0000
  H   H1291     1.0  0.52449  0.42568  0.09312  1.0000
  H   H1292     1.0  0.52722  0.35622  0.12969  1.0000
  H   H1293     1.0  0.57467  0.06127  0.42661  1.0000
  C   C724      1.0  0.51027  0.02172  0.48666  1.0000
  Fe  Fe84      1.0  0.49285  0.01394  0.34652  1.0000
  H   H1294     1.0  0.62521  0.14508  0.39475  1.0000
  H   H1295     1.0  0.55455  0.34508  0.02538  1.0000
  H   H1296     1.0  0.54498  0.45189  0.07248  1.0000
  H   H1297     1.0  0.61518  0.47934  0.06578  1.0000
  H   H1298     1.0  0.57363  0.23735  0.35509  1.0000
  H   H1299     1.0  0.55015  0.29904  0.31554  1.0000
  C   C725      1.0  0.51096  0.39280  0.05956  1.0000
  H   H1300     1.0  0.55477  0.47832  0.23468  1.0000
  H   H1301     1.0  0.59798  0.99335  0.35543  1.0000
  H   H1302     1.0  0.52800  0.25356  0.40262  1.0000
  H   H1303     1.0  0.49127  0.45558  0.23594  1.0000
  C   C726      1.0  0.49901  0.41917  0.25557  1.0000
  H   H1304     1.0  0.57015  0.47778  0.14975  1.0000
  C   C727      1.0  0.54431  0.40770  0.07040  1.0000
  H   H1305     1.0  0.58407  0.23253  0.32954  1.0000
  C   C728      1.0  0.50841  0.43697  0.18851  1.0000
  C   C729      1.0  0.51813  0.01385  0.46501  1.0000
  H   H1306     1.0  0.56902  0.43998  0.08203  1.0000
  C   C730      1.0  0.52681  0.37913  0.09195  1.0000
  H   H1307     1.0  0.56726  0.27692  0.34004  1.0000
  C   C731      1.0  0.55384  0.08693  0.41583  1.0000
  H   H1308     1.0  0.57763  0.15517  0.40053  1.0000
  H   H1309     1.0  0.54349  0.12223  0.43855  1.0000
  H   H1310     1.0  0.56955  0.06145  0.39888  1.0000
  C   C732      1.0  0.52310  0.26145  0.38773  1.0000
  C   C733      1.0  0.70277  0.26296  0.46646  1.0000
  C   C734      1.0  0.58055  0.24504  0.34087  1.0000
  H   H1311     1.0  0.57922  0.09914  0.39614  1.0000
  H   H1312     1.0  0.63214  0.15188  0.42075  1.0000
  H   H1313     1.0  0.51043  0.41350  0.00631  1.0000
  H   H1314     1.0  0.58334  0.09945  0.42329  1.0000
  C   C735      1.0  0.62468  0.48455  0.07818  1.0000
  C   C736      1.0  0.54487  0.49069  0.22695  1.0000
  H   H1315     1.0  0.55966  0.37941  0.10152  1.0000
  Fe  Fe85      1.0  0.65946  0.48656  0.21551  1.0000
  N   N43       1.0  0.53136  0.38830  0.07028  1.0000
  C   C737      1.0  0.63259  0.48445  0.11547  1.0000
  H   H1316     1.0  0.56975  0.12572  0.44501  1.0000
  H   H1317     1.0  0.50669  0.32383  0.11858  1.0000
  H   H1318     1.0  0.50708  0.08264  0.30648  1.0000
  H   H1319     1.0  0.51526  0.36662  0.09114  1.0000
  C   C738      1.0  0.52495  0.42138  0.00387  1.0000
  H   H1320     1.0  0.51672  0.12099  0.36859  1.0000
  H   H1321     1.0  0.52407  0.27866  0.38932  1.0000
  H   H1322     1.0  0.50046  0.42390  0.06967  1.0000
  S   S164      1.0  0.50373  0.32452  0.04161  1.0000
  H   H1323     1.0  0.51976  0.47581  0.99572  1.0000
  H   H1324     1.0  0.57723  0.35986  0.03131  1.0000
  H   H1325     1.0  0.56437  0.23406  0.30020  1.0000
  H   H1326     1.0  0.65138  0.46240  0.03323  1.0000
  H   H1327     1.0  0.60747  0.46782  0.10261  1.0000
  C   C739      1.0  0.54003  0.23438  0.32576  1.0000
  H   H1328     1.0  0.66351  0.48462  0.00966  1.0000
  H   H1329     1.0  0.54073  0.19356  0.30972  1.0000
  C   C740      1.0  0.54986  0.22597  0.30498  1.0000
  C   C741      1.0  0.52417  0.46463  0.20767  1.0000
  H   H1330     1.0  0.52066  0.42565  0.19429  1.0000
  C   C742      1.0  0.71864  0.27593  0.47321  1.0000
  H   H1331     1.0  0.53427  0.14854  0.46670  1.0000
  Fe  Fe86      1.0  0.58143  0.48540  0.01336  1.0000
  C   C743      1.0  0.65806  0.44633  0.03186  1.0000
  Fe  Fe87      1.0  0.64811  0.20843  0.48205  1.0000
  C   C744      1.0  0.65029  0.28923  0.48229  1.0000
  H   H1332     1.0  0.62849  0.26328  0.47943  1.0000
  H   H1333     1.0  0.66650  0.44526  0.06470  1.0000
  C   C745      1.0  0.53929  0.02288  0.45871  1.0000
  C   C746      1.0  0.53460  0.29371  0.31127  1.0000
  C   C747      1.0  0.52934  0.30390  0.29002  1.0000
  H   H1334     1.0  0.54427  0.01759  0.44290  1.0000
  H   H1335     1.0  0.50503  0.23348  0.27404  1.0000
  C   C748      1.0  0.49891  0.08576  0.32118  1.0000
  H   H1336     1.0  0.63609  0.29304  0.44141  1.0000
  S   S165      1.0  0.67343  0.23184  0.47041  1.0000
  C   C749      1.0  0.52313  0.48252  0.22345  1.0000
  C   C750      1.0  0.69429  0.24703  0.47968  1.0000
  H   H1337     1.0  0.50702  0.48335  0.03165  1.0000
  H   H1338     1.0  0.68656  0.43000  0.02173  1.0000
  H   H1339     1.0  0.52678  0.41317  0.15678  1.0000
  C   C751      1.0  0.51671  0.42647  0.15098  1.0000
  H   H1340     1.0  0.49758  0.18242  0.48380  1.0000
  C   C752      1.0  0.72337  0.46274  0.00555  1.0000
  H   H1341     1.0  0.49603  0.48159  0.18459  1.0000
  H   H1342     1.0  0.66449  0.28073  0.47611  1.0000
  Fe  Fe88      1.0  0.62741  0.00591  0.48984  1.0000
  C   C753      1.0  0.49496  0.44388  0.22385  1.0000
  H   H1343     1.0  0.50646  0.45730  0.15963  1.0000
  H   H1344     1.0  0.49173  0.11822  0.31267  1.0000
  H   H1345     1.0  0.54129  0.24899  0.48270  1.0000
  C   C754      1.0  0.68006  0.48123  0.00496  1.0000
  H   H1346     1.0  0.52030  0.99656  0.46540  1.0000
  H   H1347     1.0  0.68914  0.48637  0.01837  1.0000
  H   H1348     1.0  0.67778  0.32115  0.48636  1.0000
  H   H1349     1.0  0.49147  0.40279  0.08700  1.0000
  C   C755      1.0  0.50904  0.22056  0.48981  1.0000
  C   C756      1.0  0.49034  0.10601  0.32474  1.0000
  H   H1350     1.0  0.70866  0.43598  0.99357  1.0000
  C   C757      1.0  0.70553  0.45324  0.99340  1.0000
  H   H1351     1.0  0.69498  0.49155  0.32789  1.0000
  H   H1352     1.0  0.65502  0.07545  0.51533  1.0000
  C   C758      1.0  0.67645  0.32019  0.50371  1.0000
  H   H1353     1.0  0.53392  0.43464  0.93475  1.0000
  C   C759      1.0  0.61399  0.32381  0.54215  1.0000
  H   H1354     1.0  0.66867  0.40861  0.75103  1.0000
  H   H1355     1.0  0.55109  0.24169  0.63143  1.0000
  C   C760      1.0  0.62581  0.46889  0.90472  1.0000
  H   H1356     1.0  0.51357  0.19869  0.52716  1.0000
  H   H1357     1.0  0.68764  0.44768  0.68790  1.0000
  H   H1358     1.0  0.51830  0.46171  0.75539  1.0000
  H   H1359     1.0  0.63283  0.31890  0.50477  1.0000
  S   S166      1.0  0.61331  0.47807  0.77080  1.0000
  C   C761      1.0  0.51530  0.23910  0.50318  1.0000
  Fe  Fe89      1.0  0.61943  0.45880  0.79984  1.0000
  S   S167      1.0  0.61297  0.42423  0.80311  1.0000
  S   S168      1.0  0.65106  0.47203  0.80489  1.0000
  Fe  Fe90      1.0  0.51548  0.36514  0.77245  1.0000
  S   S169      1.0  0.51818  0.33038  0.77985  1.0000
  S   S170      1.0  0.53868  0.38588  0.75490  1.0000
  H   H1360     1.0  0.67989  0.44652  0.77634  1.0000
  S   S171      1.0  0.52026  0.22474  0.58014  1.0000
  S   S172      1.0  0.52087  0.19737  0.63792  1.0000
  H   H1361     1.0  0.62175  0.45264  0.90690  1.0000
  C   C762      1.0  0.65861  0.26083  0.53535  1.0000
  C   C763      1.0  0.67151  0.29761  0.51169  1.0000
  H   H1362     1.0  0.52621  0.25805  0.71213  1.0000
  H   H1363     1.0  0.71021  0.31643  0.50614  1.0000
  C   C764      1.0  0.49692  0.30678  0.67190  1.0000
  C   C765      1.0  0.49999  0.39664  0.89381  1.0000
  Fe  Fe91      1.0  0.61890  0.19301  0.51765  1.0000
  S   S173      1.0  0.61210  0.19448  0.55263  1.0000
  S   S174      1.0  0.64925  0.17964  0.50393  1.0000
  H   H1364     1.0  0.73560  0.46283  0.54630  1.0000
  H   H1365     1.0  0.61437  0.46090  0.70958  1.0000
  H   H1366     1.0  0.52971  0.31076  0.88186  1.0000
  C   C766      1.0  0.51527  0.47752  0.96256  1.0000
  H   H1367     1.0  0.59152  0.03209  0.51136  1.0000
  S   S175      1.0  0.51522  0.13632  0.63299  1.0000
  C   C767      1.0  0.54610  0.21705  0.57280  1.0000
  C   C768      1.0  0.56126  0.21282  0.58774  1.0000
  C   C769      1.0  0.58173  0.20668  0.58138  1.0000
  C   C770      1.0  0.58704  0.20441  0.56007  1.0000
  C   C771      1.0  0.57198  0.20911  0.54511  1.0000
  C   C772      1.0  0.55167  0.21562  0.55149  1.0000
  H   H1368     1.0  0.55720  0.21437  0.60416  1.0000
  H   H1369     1.0  0.59339  0.20336  0.59301  1.0000
  H   H1370     1.0  0.57594  0.20758  0.52864  1.0000
  H   H1371     1.0  0.54016  0.21927  0.53991  1.0000
  C   C773      1.0  0.59212  0.41408  0.78963  1.0000
  C   C774      1.0  0.58622  0.42247  0.77012  1.0000
  C   C775      1.0  0.57022  0.41330  0.75933  1.0000
  C   C776      1.0  0.55942  0.39629  0.76835  1.0000
  C   C777      1.0  0.56521  0.38805  0.78792  1.0000
  C   C778      1.0  0.58175  0.39670  0.79834  1.0000
  H   H1372     1.0  0.59433  0.43565  0.76311  1.0000
  H   H1373     1.0  0.56597  0.41958  0.74407  1.0000
  H   H1374     1.0  0.55729  0.37465  0.79468  1.0000
  H   H1375     1.0  0.58663  0.38987  0.81317  1.0000
  C   C779      1.0  0.49236  0.04462  0.52108  1.0000
  H   H1376     1.0  0.50506  0.25754  0.90178  1.0000
  Fe  Fe92      1.0  0.50058  0.16932  0.63572  1.0000
  H   H1377     1.0  0.50845  0.06028  0.62769  1.0000
  H   H1378     1.0  0.64632  0.45210  0.68858  1.0000
  C   C780      1.0  0.72680  0.27288  0.49321  1.0000
  H   H1379     1.0  0.55980  0.06740  0.49955  1.0000
  H   H1380     1.0  0.56691  0.46101  0.85125  1.0000
  H   H1381     1.0  0.51850  0.42020  0.81626  1.0000
  H   H1382     1.0  0.50684  0.34997  0.61573  1.0000
  H   H1383     1.0  0.66426  0.33166  0.50913  1.0000
  C   C781      1.0  0.53057  0.44974  0.75956  1.0000
  H   H1384     1.0  0.61285  0.32592  0.55934  1.0000
  H   H1385     1.0  0.65708  0.22713  0.53098  1.0000
  H   H1386     1.0  0.56315  0.12609  0.58005  1.0000
  S   S176      1.0  0.51177  0.34059  0.98115  1.0000
  H   H1387     1.0  0.73330  0.46499  0.73591  1.0000
  C   C782      1.0  0.53833  0.24397  0.49931  1.0000
  H   H1388     1.0  0.52394  0.09470  0.61881  1.0000
  H   H1389     1.0  0.50066  0.40922  0.90534  1.0000
  H   H1390     1.0  0.62767  0.46768  0.87082  1.0000
  H   H1391     1.0  0.70119  0.47739  0.55694  1.0000
  H   H1392     1.0  0.56056  0.26357  0.64511  1.0000
  H   H1393     1.0  0.52055  0.20734  0.49242  1.0000
  H   H1394     1.0  0.54686  0.44264  0.85762  1.0000
  H   H1395     1.0  0.63852  0.00021  0.55365  1.0000
  H   H1396     1.0  0.50481  0.25546  0.84427  1.0000
  C   C783      1.0  0.50583  0.31833  0.90519  1.0000
  H   H1397     1.0  0.69426  0.44595  0.71493  1.0000
  H   H1398     1.0  0.70615  0.41323  0.68184  1.0000
  C   C784      1.0  0.50317  0.32631  0.86759  1.0000
  C   C785      1.0  0.54375  0.15220  0.55483  1.0000
  H   H1399     1.0  0.59657  0.13792  0.57900  1.0000
  H   H1400     1.0  0.51440  0.31115  0.91801  1.0000
  H   H1401     1.0  0.59740  0.16298  0.58961  1.0000
  C   C786      1.0  0.66839  0.45130  0.98595  1.0000
  H   H1402     1.0  0.61607  0.37334  0.73553  1.0000
  C   C787      1.0  0.51436  0.31789  0.88461  1.0000
  S   S177      1.0  0.62411  0.46967  0.94794  1.0000
  C   C788      1.0  0.55704  0.42667  0.98368  1.0000
  C   C789      1.0  0.69729  0.32699  0.51181  1.0000
  H   H1403     1.0  0.69627  0.23187  0.51013  1.0000
  C   C790      1.0  0.56036  0.44594  0.84690  1.0000
  Fe  Fe93      1.0  0.50502  0.21017  0.60938  1.0000
  H   H1404     1.0  0.67332  0.29728  0.52889  1.0000
  C   C791      1.0  0.50903  0.25867  0.88473  1.0000
  C   C792      1.0  0.62759  0.48128  0.92239  1.0000
  H   H1405     1.0  0.68388  0.42252  0.97425  1.0000
  H   H1406     1.0  0.70049  0.34316  0.50592  1.0000
  H   H1407     1.0  0.63133  0.26345  0.51601  1.0000
  H   H1408     1.0  0.72468  0.25407  0.52180  1.0000
  C   C793      1.0  0.53414  0.99259  0.54834  1.0000
  N   N44       1.0  0.65062  0.28949  0.50594  1.0000
  C   C794      1.0  0.50314  0.27848  0.72718  1.0000
  C   C795      1.0  0.51479  0.45247  0.82867  1.0000
  H   H1409     1.0  0.52849  0.31308  0.68243  1.0000
  H   H1410     1.0  0.50611  0.25357  0.49901  1.0000
  H   H1411     1.0  0.51744  0.26672  0.81109  1.0000
  H   H1412     1.0  0.51466  0.24298  0.87955  1.0000
  H   H1413     1.0  0.61769  0.06528  0.56401  1.0000
  C   C796      1.0  0.51775  0.48814  0.98336  1.0000
  N   N45       1.0  0.65298  0.43528  0.71784  1.0000
  S   S178      1.0  0.50505  0.23202  0.68413  1.0000
  C   C797      1.0  0.52142  0.28187  0.65536  1.0000
  H   H1414     1.0  0.67129  0.45945  0.97050  1.0000
  C   C798      1.0  0.69035  0.43661  0.70141  1.0000
  H   H1415     1.0  0.52059  0.27310  0.67070  1.0000
  C   C799      1.0  0.49382  0.34052  0.61053  1.0000
  H   H1416     1.0  0.56765  0.42242  0.97091  1.0000
  C   C800      1.0  0.49542  0.25176  0.70172  1.0000
  H   H1417     1.0  0.53030  0.27359  0.62284  1.0000
  Fe  Fe94      1.0  0.50268  0.33843  0.81108  1.0000
  H   H1418     1.0  0.56905  0.16619  0.56933  1.0000
  H   H1419     1.0  0.55491  0.03953  0.50089  1.0000
  H   H1420     1.0  0.61754  0.29667  0.50942  1.0000
  C   C801      1.0  0.63364  0.42237  0.71797  1.0000
  H   H1421     1.0  0.54415  0.38984  0.83454  1.0000
  H   H1422     1.0  0.59635  0.05963  0.51018  1.0000
  C   C802      1.0  0.65242  0.23885  0.54289  1.0000
  H   H1423     1.0  0.64858  0.39118  0.72492  1.0000
  C   C803      1.0  0.65152  0.42230  0.96690  1.0000
  H   H1424     1.0  0.72590  0.48131  0.52689  1.0000
  C   C804      1.0  0.56703  0.05144  0.49818  1.0000
  H   H1425     1.0  0.51284  0.23563  0.52016  1.0000
  H   H1426     1.0  0.62979  0.10005  0.53891  1.0000
  H   H1427     1.0  0.59174  0.43309  0.84115  1.0000
  H   H1428     1.0  0.50964  0.04329  0.52215  1.0000
  H   H1429     1.0  0.54175  0.43216  0.78633  1.0000
  C   C805      1.0  0.59594  0.14607  0.59417  1.0000
  C   C806      1.0  0.70235  0.24408  0.49974  1.0000
  H   H1430     1.0  0.52216  0.01675  0.49828  1.0000
  C   C807      1.0  0.49058  0.18701  0.54925  1.0000
  H   H1431     1.0  0.51344  0.48945  0.94966  1.0000
  C   C808      1.0  0.63105  0.30727  0.53713  1.0000
  H   H1432     1.0  0.65878  0.42892  0.78272  1.0000
  H   H1433     1.0  0.65369  0.43083  0.95157  1.0000
  H   H1434     1.0  0.72053  0.48539  0.57461  1.0000
  C   C809      1.0  0.67439  0.43033  0.77481  1.0000
  H   H1435     1.0  0.55200  0.43100  0.81849  1.0000
  H   H1436     1.0  0.66515  0.41829  0.69108  1.0000
  H   H1437     1.0  0.65501  0.25583  0.50303  1.0000
  C   C810      1.0  0.54917  0.37402  0.84049  1.0000
  C   C811      1.0  0.72136  0.47507  0.72892  1.0000
  H   H1438     1.0  0.68945  0.42595  0.74492  1.0000
  H   H1439     1.0  0.62671  0.29262  0.54575  1.0000
  H   H1440     1.0  0.61775  0.33912  0.53440  1.0000
  S   S179      1.0  0.61867  0.22216  0.49715  1.0000
  H   H1441     1.0  0.54613  0.45567  0.75461  1.0000
  C   C812      1.0  0.50670  0.33401  0.69766  1.0000
  H   H1442     1.0  0.56457  0.03644  0.53885  1.0000
  N   N46       1.0  0.57529  0.14271  0.60578  1.0000
  C   C813      1.0  0.57560  0.12374  0.62049  1.0000
  C   C814      1.0  0.56870  0.16158  0.61833  1.0000
  C   C815      1.0  0.55874  0.13970  0.58987  1.0000
  C   C816      1.0  0.57827  0.10220  0.61005  1.0000
  C   C817      1.0  0.58421  0.16845  0.63471  1.0000
  C   C818      1.0  0.57472  0.18597  0.64807  1.0000
  C   C819      1.0  0.58432  0.08502  0.62617  1.0000
  H   H1443     1.0  0.56074  0.12324  0.63008  1.0000
  H   H1444     1.0  0.58793  0.12477  0.63215  1.0000
  H   H1445     1.0  0.56613  0.17552  0.60796  1.0000
  H   H1446     1.0  0.55332  0.15896  0.62645  1.0000
  H   H1447     1.0  0.54360  0.13578  0.59784  1.0000
  H   H1448     1.0  0.61758  0.12151  0.60660  1.0000
  H   H1449     1.0  0.61664  0.14470  0.62152  1.0000
  H   H1450     1.0  0.56325  0.09790  0.60334  1.0000
  H   H1451     1.0  0.59030  0.10249  0.59720  1.0000
  H   H1452     1.0  0.54400  0.17047  0.58235  1.0000
  H   H1453     1.0  0.58877  0.15537  0.64560  1.0000
  H   H1454     1.0  0.59838  0.17471  0.62661  1.0000
  H   H1455     1.0  0.56090  0.18036  0.65728  1.0000
  H   H1456     1.0  0.58641  0.19097  0.65921  1.0000
  H   H1457     1.0  0.57004  0.19979  0.63808  1.0000
  H   H1458     1.0  0.59938  0.08843  0.63331  1.0000
  H   H1459     1.0  0.57197  0.08370  0.63872  1.0000
  H   H1460     1.0  0.58619  0.06973  0.61855  1.0000
  N   N47       1.0  0.59168  0.04813  0.55347  1.0000
  C   C820      1.0  0.58074  0.05134  0.57443  1.0000
  C   C821      1.0  0.60769  0.06485  0.55012  1.0000
  C   C822      1.0  0.51103  0.09382  0.63005  1.0000
  C   C823      1.0  0.60274  0.02692  0.55276  1.0000
  C   C824      1.0  0.64816  0.26720  0.51437  1.0000
  C   C825      1.0  0.56494  0.03454  0.58169  1.0000
  H   H1461     1.0  0.66582  0.45602  0.74005  1.0000
  C   C826      1.0  0.59893  0.08754  0.54575  1.0000
  C   C827      1.0  0.61557  0.10374  0.54861  1.0000
  C   C828      1.0  0.55590  0.03898  0.60358  1.0000
  H   H1462     1.0  0.52873  0.14483  0.55900  1.0000
  H   H1463     1.0  0.57178  0.06651  0.57439  1.0000
  H   H1464     1.0  0.59236  0.05248  0.58687  1.0000
  H   H1465     1.0  0.62906  0.41984  0.70157  1.0000
  H   H1466     1.0  0.61882  0.06094  0.53695  1.0000
  H   H1467     1.0  0.50836  0.28327  0.77630  1.0000
  H   H1468     1.0  0.69702  0.32678  0.52920  1.0000
  H   H1469     1.0  0.59131  0.01425  0.55185  1.0000
  H   H1470     1.0  0.61258  0.02580  0.53814  1.0000
  C   C829      1.0  0.54722  0.25307  0.64386  1.0000
  H   H1471     1.0  0.55165  0.03440  0.57099  1.0000
  H   H1472     1.0  0.57248  0.01871  0.58234  1.0000
  C   C830      1.0  0.51324  0.42821  0.83066  1.0000
  H   H1473     1.0  0.54356  0.35248  0.86582  1.0000
  H   H1474     1.0  0.59360  0.08929  0.52941  1.0000
  H   H1475     1.0  0.58553  0.09168  0.55630  1.0000
  H   H1476     1.0  0.61992  0.10404  0.56528  1.0000
  C   C831      1.0  0.64525  0.07896  0.50208  1.0000
  H   H1477     1.0  0.60948  0.11959  0.54369  1.0000
  H   H1478     1.0  0.54868  0.05502  0.60418  1.0000
  H   H1479     1.0  0.50544  0.40269  0.87822  1.0000
  H   H1480     1.0  0.56823  0.03705  0.61538  1.0000
  H   H1481     1.0  0.56592  0.06417  0.53789  1.0000
  C   C832      1.0  0.50221  0.07426  0.63501  1.0000
  C   C833      1.0  0.61741  0.02123  0.57109  1.0000
  C   C834      1.0  0.64839  0.45541  0.70540  1.0000
  C   C835      1.0  0.57564  0.04947  0.53667  1.0000
  H   H1482     1.0  0.63833  0.99586  0.58164  1.0000
  H   H1483     1.0  0.73924  0.42420  0.55491  1.0000
  H   H1484     1.0  0.63539  0.16404  0.59243  1.0000
  C   C836      1.0  0.63552  0.14661  0.59329  1.0000
  C   C837      1.0  0.58438  0.04790  0.51388  1.0000
  H   H1485     1.0  0.56760  0.45282  0.81419  1.0000
  H   H1486     1.0  0.53847  0.48104  0.84550  1.0000
  C   C838      1.0  0.73230  0.47970  0.54280  1.0000
  C   C839      1.0  0.61619  0.13887  0.60545  1.0000
  H   H1487     1.0  0.56191  0.43048  0.93221  1.0000
  H   H1488     1.0  0.60860  0.02034  0.58629  1.0000
  H   H1489     1.0  0.72291  0.43250  0.69179  1.0000
  C   C840      1.0  0.67056  0.42371  0.70635  1.0000
  C   C841      1.0  0.62837  0.99987  0.56808  1.0000
  H   H1490     1.0  0.51783  0.25648  0.77437  1.0000
  H   H1491     1.0  0.50527  0.28287  0.84728  1.0000
  H   H1492     1.0  0.54062  0.16634  0.54466  1.0000
  H   H1493     1.0  0.70730  0.45823  0.97659  1.0000
  H   H1494     1.0  0.55400  0.14111  0.54586  1.0000
  H   H1495     1.0  0.61482  0.38431  0.70921  1.0000
  H   H1496     1.0  0.68426  0.28699  0.50560  1.0000
  H   H1497     1.0  0.56642  0.37310  0.84166  1.0000
  H   H1498     1.0  0.63611  0.14071  0.57710  1.0000
  H   H1499     1.0  0.63528  0.23831  0.54598  1.0000
  H   H1500     1.0  0.64986  0.14090  0.60129  1.0000
  C   C842      1.0  0.50480  0.26670  0.78041  1.0000
  C   C843      1.0  0.71513  0.48709  0.55826  1.0000
  H   H1501     1.0  0.57234  0.41350  0.84618  1.0000
  C   C844      1.0  0.62810  0.49016  0.70148  1.0000
  C   C845      1.0  0.55384  0.44723  0.82367  1.0000
  C   C846      1.0  0.50977  0.26230  0.71359  1.0000
  C   C847      1.0  0.50223  0.26350  0.80412  1.0000
  C   C848      1.0  0.55442  0.15865  0.57454  1.0000
  H   H1502     1.0  0.49238  0.34371  0.69446  1.0000
  H   H1503     1.0  0.54487  0.24413  0.65892  1.0000
  H   H1504     1.0  0.51194  0.45815  0.84485  1.0000
  H   H1505     1.0  0.54850  0.22997  0.50297  1.0000
  H   H1506     1.0  0.52941  0.46752  0.95914  1.0000
  H   H1507     1.0  0.67545  0.40915  0.71502  1.0000
  N   N48       1.0  0.53658  0.37975  0.90056  1.0000
  C   C849      1.0  0.54482  0.38434  0.87852  1.0000
  C   C850      1.0  0.54267  0.39653  0.91525  1.0000
  C   C851      1.0  0.54673  0.35920  0.90794  1.0000
  C   C852      1.0  0.51324  0.37733  0.90134  1.0000
  H   H1508     1.0  0.52000  0.47509  0.79172  1.0000
  C   C853      1.0  0.54211  0.35220  0.93109  1.0000
  C   C854      1.0  0.54462  0.41924  0.90615  1.0000
  C   C855      1.0  0.54753  0.43470  0.92353  1.0000
  H   H1509     1.0  0.50342  0.32307  0.71115  1.0000
  C   C856      1.0  0.55475  0.33224  0.93691  1.0000
  H   H1510     1.0  0.56220  0.38488  0.87844  1.0000
  H   H1511     1.0  0.53944  0.40002  0.87259  1.0000
  H   H1512     1.0  0.53138  0.39713  0.92877  1.0000
  H   H1513     1.0  0.55816  0.39261  0.92213  1.0000
  H   H1514     1.0  0.56404  0.35979  0.90566  1.0000
  H   H1515     1.0  0.54180  0.34608  0.89853  1.0000
  H   H1516     1.0  0.50904  0.36359  0.89234  1.0000
  H   H1517     1.0  0.63504  0.40323  0.74698  1.0000
  C   C857      1.0  0.57748  0.42914  0.85053  1.0000
  H   H1518     1.0  0.62022  0.43086  0.72567  1.0000
  H   H1519     1.0  0.52536  0.34876  0.93371  1.0000
  H   H1520     1.0  0.54627  0.36431  0.94208  1.0000
  H   H1521     1.0  0.55854  0.42006  0.89543  1.0000
  H   H1522     1.0  0.53075  0.42460  0.89732  1.0000
  H   H1523     1.0  0.49430  0.29555  0.68533  1.0000
  H   H1524     1.0  0.54906  0.45080  0.91668  1.0000
  C   C858      1.0  0.61546  0.38820  0.72599  1.0000
  C   C859      1.0  0.50333  0.11216  0.63963  1.0000
  C   C860      1.0  0.49260  0.12505  0.57876  1.0000
  C   C861      1.0  0.72433  0.48252  0.70803  1.0000
  H   H1525     1.0  0.55083  0.32727  0.95335  1.0000
  H   H1526     1.0  0.55107  0.31931  0.92655  1.0000
  H   H1527     1.0  0.57174  0.33510  0.93563  1.0000
  H   H1528     1.0  0.65438  0.27180  0.54793  1.0000
  H   H1529     1.0  0.62968  0.03297  0.57210  1.0000
  H   H1530     1.0  0.50754  0.37372  0.91763  1.0000
  H   H1531     1.0  0.49889  0.33213  0.59618  1.0000
  H   H1532     1.0  0.71341  0.41188  0.70910  1.0000
  H   H1533     1.0  0.49943  0.12269  0.56281  1.0000
  H   H1534     1.0  0.54267  0.25681  0.50948  1.0000
  H   H1535     1.0  0.64586  0.31287  0.54311  1.0000
  H   H1536     1.0  0.50150  0.46736  0.96344  1.0000
  C   C862      1.0  0.63661  0.06237  0.49162  1.0000
  H   H1537     1.0  0.55972  0.48680  0.89478  1.0000
  C   C863      1.0  0.53822  0.48229  0.82811  1.0000
  C   C864      1.0  0.63474  0.40084  0.72984  1.0000
  H   H1538     1.0  0.52311  0.42190  0.84349  1.0000
  H   H1539     1.0  0.51415  0.43839  0.78698  1.0000
  H   H1540     1.0  0.52790  0.43533  0.75085  1.0000
  H   H1541     1.0  0.59861  0.31882  0.53688  1.0000
  H   H1542     1.0  0.64380  0.44269  0.74977  1.0000
  N   N49       1.0  0.53480  0.46106  0.81914  1.0000
  H   H1543     1.0  0.54468  0.36235  0.82905  1.0000
  C   C865      1.0  0.62923  0.47736  0.88423  1.0000
  H   H1544     1.0  0.67588  0.26051  0.53318  1.0000
  H   H1545     1.0  0.54365  0.02762  0.60785  1.0000
  H   H1546     1.0  0.68551  0.41928  0.78281  1.0000
  C   C866      1.0  0.53330  0.46427  0.79571  1.0000
  C   C867      1.0  0.49783  0.19210  0.52669  1.0000
  C   C868      1.0  0.70930  0.42258  0.69569  1.0000
  C   C869      1.0  0.70306  0.48041  0.74085  1.0000
  S   S180      1.0  0.59862  0.17557  0.49682  1.0000
  H   H1547     1.0  0.64865  0.11258  0.50346  1.0000
  C   C870      1.0  0.65833  0.44059  0.73991  1.0000
  C   C871      1.0  0.66874  0.42750  0.98172  1.0000
  H   H1548     1.0  0.51491  0.25427  0.63667  1.0000
  H   H1549     1.0  0.66187  0.46595  0.70577  1.0000
  S   S181      1.0  0.60218  0.48109  0.82111  1.0000
  C   C872      1.0  0.71855  0.25675  0.50633  1.0000
  H   H1550     1.0  0.51448  0.28647  0.73593  1.0000
  H   H1551     1.0  0.62965  0.47135  0.72984  1.0000
  H   H1552     1.0  0.60097  0.39712  0.73060  1.0000
  S   S182      1.0  0.49799  0.02048  0.60841  1.0000
  S   S183      1.0  0.53344  0.39524  0.97114  1.0000
  C   C873      1.0  0.62907  0.46873  0.71286  1.0000
  H   H1553     1.0  0.66040  0.23442  0.55764  1.0000
  C   C874      1.0  0.53869  0.36884  0.86169  1.0000
  H   H1554     1.0  0.58173  0.42851  0.86724  1.0000
  C   C875      1.0  0.67337  0.42506  0.75175  1.0000
  S   S184      1.0  0.51479  0.32470  0.84201  1.0000
  Fe  Fe95      1.0  0.50653  0.37545  0.98110  1.0000
  H   H1555     1.0  0.52155  0.36959  0.85952  1.0000
  H   H1556     1.0  0.57838  0.48811  0.87299  1.0000
  H   H1557     1.0  0.54766  0.47183  0.78917  1.0000
  H   H1558     1.0  0.70116  0.47451  0.75682  1.0000
  C   C876      1.0  0.52978  0.44456  0.78309  1.0000
  C   C877      1.0  0.64160  0.10006  0.49544  1.0000
  H   H1559     1.0  0.52173  0.27000  0.88221  1.0000
  H   H1560     1.0  0.49883  0.24681  0.80763  1.0000
  H   H1561     1.0  0.65201  0.40521  0.96411  1.0000
  S   S185      1.0  0.64151  0.03607  0.50099  1.0000
  C   C878      1.0  0.63264  0.30345  0.51335  1.0000
  H   H1562     1.0  0.63590  0.42670  0.97376  1.0000
  H   H1563     1.0  0.50118  0.45874  0.81971  1.0000
  S   S186      1.0  0.50307  0.37304  0.80440  1.0000
  C   C879      1.0  0.51390  0.32189  0.67833  1.0000
  C   C880      1.0  0.53868  0.41577  0.98739  1.0000
  C   C881      1.0  0.49491  0.26925  0.84902  1.0000
  Fe  Fe96      1.0  0.61392  0.48723  0.97731  1.0000
  Fe  Fe97      1.0  0.49415  0.21277  0.65654  1.0000
  H   H1564     1.0  0.65219  0.45633  0.99060  1.0000
  H   H1565     1.0  0.53502  0.29215  0.65614  1.0000
  H   H1566     1.0  0.52126  0.99922  0.53961  1.0000
  H   H1567     1.0  0.51838  0.99641  0.57800  1.0000
  H   H1568     1.0  0.49917  0.17714  0.51834  1.0000
  H   H1569     1.0  0.50246  0.17679  0.55716  1.0000
  H   H1570     1.0  0.49573  0.14120  0.58350  1.0000
  H   H1571     1.0  0.50031  0.11365  0.58976  1.0000
  C   C882      1.0  0.52736  0.26568  0.63831  1.0000
  N   N50       1.0  0.50147  0.29477  0.65220  1.0000
  H   H1572     1.0  0.55381  0.48809  0.82284  1.0000
  H   H1573     1.0  0.62720  0.48837  0.68431  1.0000
  H   H1574     1.0  0.51740  0.33353  0.66555  1.0000
  H   H1575     1.0  0.51915  0.34457  0.70213  1.0000
  H   H1576     1.0  0.51950  0.31791  0.63475  1.0000
  C   C883      1.0  0.50495  0.30911  0.63327  1.0000
  H   H1577     1.0  0.50769  0.29977  0.61900  1.0000
  H   H1578     1.0  0.49030  0.26263  0.77258  1.0000
  C   C884      1.0  0.49083  0.42186  0.83588  1.0000
  H   H1579     1.0  0.49193  0.29426  0.81362  1.0000
  H   H1580     1.0  0.49035  0.40458  0.83842  1.0000
  C   C885      1.0  0.54102  0.53318  0.04385  1.0000
  H   H1581     1.0  0.57121  0.81267  0.45645  1.0000
  C   C886      1.0  0.54894  0.71625  0.26405  1.0000
  S   S187      1.0  0.49946  0.75594  0.34873  1.0000
  H   H1582     1.0  0.70194  0.80858  0.46484  1.0000
  H   H1583     1.0  0.72759  0.55432  0.33264  1.0000
  H   H1584     1.0  0.55569  0.94267  0.40015  1.0000
  H   H1585     1.0  0.62354  0.71224  0.28936  1.0000
  C   C887      1.0  0.53162  0.79250  0.26665  1.0000
  H   H1586     1.0  0.55699  0.63727  0.24756  1.0000
  H   H1587     1.0  0.56559  0.62071  0.22626  1.0000
  C   C888      1.0  0.73227  0.54824  0.36681  1.0000
  Fe  Fe98      1.0  0.60053  0.77334  0.47475  1.0000
  S   S188      1.0  0.56982  0.76678  0.45964  1.0000
  S   S189      1.0  0.63210  0.77899  0.45999  1.0000
  Fe  Fe99      1.0  0.51549  0.78618  0.35375  1.0000
  S   S190      1.0  0.54874  0.78853  0.36453  1.0000
  H   H1588     1.0  0.53669  0.57770  0.28954  1.0000
  H   H1589     1.0  0.59272  0.87689  0.44820  1.0000
  S   S191      1.0  0.51791  0.57706  0.18823  1.0000
  S   S192      1.0  0.51579  0.64230  0.18599  1.0000
  C   C889      1.0  0.54434  0.99174  0.40476  1.0000
  H   H1590     1.0  0.58284  0.67719  0.03034  1.0000
  H   H1591     1.0  0.55109  0.75787  0.25099  1.0000
  H   H1592     1.0  0.50722  0.85787  0.33435  1.0000
  C   C890      1.0  0.49475  0.55803  0.24794  1.0000
  Fe  Fe100     1.0  0.59461  0.52689  0.99464  1.0000
  H   H1593     1.0  0.69188  0.79875  0.42056  1.0000
  Fe  Fe101     1.0  0.62327  0.51769  0.20607  1.0000
  S   S193      1.0  0.61192  0.55164  0.20818  1.0000
  S   S194      1.0  0.65322  0.50944  0.18825  1.0000
  S   S195      1.0  0.64162  0.97866  0.47160  1.0000
  H   H1594     1.0  0.49250  0.98386  0.48069  1.0000
  H   H1595     1.0  0.70021  0.51775  0.39812  1.0000
  S   S196      1.0  0.64822  0.50468  0.04696  1.0000
  H   H1596     1.0  0.59336  0.90764  0.42254  1.0000
  H   H1597     1.0  0.51802  0.69730  0.00836  1.0000
  C   C891      1.0  0.54405  0.57055  0.19410  1.0000
  C   C892      1.0  0.55884  0.58586  0.19627  1.0000
  C   C893      1.0  0.57961  0.57989  0.20072  1.0000
  C   C894      1.0  0.58571  0.55861  0.20284  1.0000
  C   C895      1.0  0.57085  0.54335  0.20069  1.0000
  C   C896      1.0  0.55012  0.54930  0.19630  1.0000
  H   H1598     1.0  0.55439  0.60226  0.19409  1.0000
  H   H1599     1.0  0.59106  0.59177  0.20228  1.0000
  H   H1600     1.0  0.57530  0.52697  0.20257  1.0000
  H   H1601     1.0  0.53873  0.53737  0.19462  1.0000
  H   H1602     1.0  0.66434  0.57973  0.35952  1.0000
  H   H1603     1.0  0.55181  0.74276  0.30968  1.0000
  H   H1604     1.0  0.56260  0.52524  0.28148  1.0000
  N   N51       1.0  0.55355  0.73497  0.27681  1.0000
  C   C897      1.0  0.56435  0.77314  0.43318  1.0000
  C   C898      1.0  0.54356  0.77311  0.42682  1.0000
  C   C899      1.0  0.53857  0.77787  0.40586  1.0000
  C   C900      1.0  0.55437  0.78271  0.39107  1.0000
  C   C901      1.0  0.57514  0.78296  0.39747  1.0000
  C   C902      1.0  0.58013  0.77810  0.41844  1.0000
  H   H1605     1.0  0.53129  0.76926  0.43816  1.0000
  H   H1606     1.0  0.52253  0.77757  0.40111  1.0000
  H   H1607     1.0  0.58746  0.78659  0.38611  1.0000
  H   H1608     1.0  0.59620  0.77780  0.42312  1.0000
  H   H1609     1.0  0.54858  0.80187  0.48606  1.0000
  H   H1610     1.0  0.51075  0.54551  0.03580  1.0000
  C   C903      1.0  0.49677  0.63103  0.06736  1.0000
  H   H1611     1.0  0.55755  0.69751  0.21351  1.0000
  H   H1612     1.0  0.55466  0.85027  0.38633  1.0000
  H   H1613     1.0  0.72771  0.51424  0.39456  1.0000
  H   H1614     1.0  0.54223  0.82787  0.41825  1.0000
  H   H1615     1.0  0.55874  0.77967  0.28171  1.0000
  H   H1616     1.0  0.69659  0.76641  0.44358  1.0000
  H   H1617     1.0  0.49516  0.60754  0.25785  1.0000
  C   C904      1.0  0.64922  0.49763  0.11070  1.0000
  H   H1618     1.0  0.62470  0.98383  0.35279  1.0000
  H   H1619     1.0  0.67306  0.80909  0.43967  1.0000
  H   H1620     1.0  0.53736  0.54205  0.25777  1.0000
  Fe  Fe102     1.0  0.49201  0.96519  0.34663  1.0000
  C   C905      1.0  0.63632  0.88098  0.46850  1.0000
  H   H1621     1.0  0.50578  0.58520  0.23099  1.0000
  H   H1622     1.0  0.63552  0.88027  0.45166  1.0000
  H   H1623     1.0  0.63330  0.91489  0.46850  1.0000
  S   S197      1.0  0.49168  0.66491  0.12999  1.0000
  H   H1624     1.0  0.53981  0.79575  0.25138  1.0000
  H   H1625     1.0  0.53848  0.87147  0.39619  1.0000
  H   H1626     1.0  0.49156  0.58844  0.27803  1.0000
  H   H1627     1.0  0.49491  0.68194  0.00946  1.0000
  H   H1628     1.0  0.70478  0.55428  0.41114  1.0000
  C   C906      1.0  0.70034  0.70165  0.47190  1.0000
  C   C907      1.0  0.55977  0.84521  0.45314  1.0000
  S   S198      1.0  0.49766  0.66605  0.24228  1.0000
  H   H1629     1.0  0.49682  0.63817  0.30646  1.0000
  H   H1630     1.0  0.51247  0.60614  0.08495  1.0000
  C   C908      1.0  0.55170  0.69677  0.23005  1.0000
  H   H1631     1.0  0.53322  0.60119  0.14938  1.0000
  C   C909      1.0  0.55685  0.71691  0.24086  1.0000
  C   C910      1.0  0.52615  0.92800  0.40087  1.0000
  C   C911      1.0  0.49299  0.69098  0.25412  1.0000
  C   C912      1.0  0.56593  0.87411  0.42704  1.0000
  C   C913      1.0  0.55636  0.59610  0.04973  1.0000
  S   S199      1.0  0.63062  0.49659  0.23399  1.0000
  C   C914      1.0  0.56317  0.96728  0.43634  1.0000
  C   C915      1.0  0.57662  0.73879  0.27737  1.0000
  C   C916      1.0  0.54393  0.70986  0.30879  1.0000
  C   C917      1.0  0.53650  0.71018  0.33173  1.0000
  H   H1632     1.0  0.66790  0.78547  0.42634  1.0000
  Fe  Fe103     1.0  0.61016  0.97832  0.45676  1.0000
  H   H1633     1.0  0.51699  0.94272  0.39736  1.0000
  H   H1634     1.0  0.65888  0.50255  0.12311  1.0000
  C   C918      1.0  0.51036  0.61376  0.28686  1.0000
  Fe  Fe104     1.0  0.50298  0.60983  0.18899  1.0000
  H   H1635     1.0  0.54694  0.97241  0.29619  1.0000
  H   H1636     1.0  0.73072  0.51919  0.43313  1.0000
  S   S200      1.0  0.59228  0.51436  0.02764  1.0000
  C   C919      1.0  0.61378  0.72523  0.28244  1.0000
  H   H1637     1.0  0.54093  0.54274  0.05806  1.0000
  H   H1638     1.0  0.68838  0.54494  0.33582  1.0000
  H   H1639     1.0  0.58800  0.71891  0.30335  1.0000
  C   C920      1.0  0.59067  0.72063  0.28615  1.0000
  H   H1640     1.0  0.57781  0.65402  0.04605  1.0000
  C   C921      1.0  0.56738  0.61120  0.03426  1.0000
  H   H1641     1.0  0.50855  0.62373  0.11909  1.0000
  H   H1642     1.0  0.53298  0.70011  0.30051  1.0000
  H   H1643     1.0  0.55944  0.70183  0.30807  1.0000
  H   H1644     1.0  0.52020  0.71657  0.33298  1.0000
  H   H1645     1.0  0.53683  0.69397  0.33860  1.0000
  H   H1646     1.0  0.54674  0.71989  0.34094  1.0000
  C   C922      1.0  0.52196  0.84510  0.38632  1.0000
  H   H1647     1.0  0.56528  0.49901  0.16730  1.0000
  S   S201      1.0  0.50475  0.98428  0.42023  1.0000
  H   H1648     1.0  0.61768  0.72659  0.26540  1.0000
  C   C923      1.0  0.60929  0.98077  0.36050  1.0000
  H   H1649     1.0  0.51520  0.78852  0.26386  1.0000
  H   H1650     1.0  0.72905  0.50783  0.35817  1.0000
  H   H1651     1.0  0.50869  0.57729  0.99923  1.0000
  H   H1652     1.0  0.61995  0.66487  0.02427  1.0000
  H   H1653     1.0  0.54971  0.60472  0.06336  1.0000
  C   C924      1.0  0.60267  0.84138  0.42880  1.0000
  C   C925      1.0  0.61866  0.82583  0.41925  1.0000
  H   H1654     1.0  0.60282  0.83908  0.44605  1.0000
  C   C926      1.0  0.58043  0.95449  0.36503  1.0000
  H   H1655     1.0  0.61529  0.80961  0.42480  1.0000
  H   H1656     1.0  0.54983  0.54157  0.03107  1.0000
  C   C927      1.0  0.61021  0.65841  0.03750  1.0000
  H   H1657     1.0  0.54763  0.60369  0.26585  1.0000
  H   H1658     1.0  0.56769  0.58387  0.05548  1.0000
  N   N52       1.0  0.58162  0.54821  0.12580  1.0000
  C   C928      1.0  0.58875  0.54024  0.10465  1.0000
  C   C929      1.0  0.56928  0.53181  0.13804  1.0000
  C   C930      1.0  0.56711  0.56703  0.12182  1.0000
  C   C931      1.0  0.59960  0.55530  0.13822  1.0000
  C   C932      1.0  0.61759  0.53900  0.14212  1.0000
  C   C933      1.0  0.60269  0.55509  0.09096  1.0000
  C   C934      1.0  0.55558  0.57622  0.14135  1.0000
  H   H1659     1.0  0.50129  0.53856  0.22087  1.0000
  C   C935      1.0  0.70963  0.50435  0.28477  1.0000
  C   C936      1.0  0.63707  0.54960  0.14926  1.0000
  C   C937      1.0  0.60620  0.54684  0.06894  1.0000
  C   C938      1.0  0.54117  0.59479  0.13515  1.0000
  H   H1660     1.0  0.57492  0.53639  0.09551  1.0000
  H   H1661     1.0  0.59794  0.52525  0.10609  1.0000
  H   H1662     1.0  0.56890  0.53521  0.15506  1.0000
  H   H1663     1.0  0.55267  0.53248  0.13331  1.0000
  H   H1664     1.0  0.55494  0.56310  0.11059  1.0000
  H   H1665     1.0  0.57569  0.58029  0.11441  1.0000
  H   H1666     1.0  0.60634  0.56959  0.13059  1.0000
  H   H1667     1.0  0.59410  0.56024  0.15405  1.0000
  H   H1668     1.0  0.62223  0.53031  0.12795  1.0000
  H   H1669     1.0  0.61284  0.52764  0.15476  1.0000
  H   H1670     1.0  0.59570  0.57108  0.08908  1.0000
  H   H1671     1.0  0.61821  0.55625  0.09805  1.0000
  H   H1672     1.0  0.56688  0.58195  0.15245  1.0000
  H   H1673     1.0  0.54577  0.56438  0.14961  1.0000
  H   H1674     1.0  0.51356  0.49595  0.21716  1.0000
  C   C939      1.0  0.72626  0.76001  0.47309  1.0000
  H   H1675     1.0  0.57761  0.82113  0.42176  1.0000
  H   H1676     1.0  0.53453  0.69483  0.23009  1.0000
  H   H1677     1.0  0.72028  0.79704  0.44710  1.0000
  H   H1678     1.0  0.64992  0.53769  0.15124  1.0000
  H   H1679     1.0  0.64240  0.56150  0.13739  1.0000
  H   H1680     1.0  0.63386  0.55720  0.16448  1.0000
  H   H1681     1.0  0.59125  0.54721  0.06058  1.0000
  H   H1682     1.0  0.61743  0.55675  0.05988  1.0000
  H   H1683     1.0  0.61271  0.53053  0.06960  1.0000
  H   H1684     1.0  0.55020  0.60752  0.12728  1.0000
  H   H1685     1.0  0.52903  0.58977  0.12452  1.0000
  C   C940      1.0  0.71824  0.68929  0.47738  1.0000
  N   N53       1.0  0.52092  0.58475  0.26064  1.0000
  C   C941      1.0  0.54142  0.96937  0.43594  1.0000
  H   H1686     1.0  0.52680  0.75076  0.26269  1.0000
  H   H1687     1.0  0.68360  0.50855  0.26391  1.0000
  H   H1688     1.0  0.61103  0.98131  0.37770  1.0000
  H   H1689     1.0  0.66697  0.51366  0.08608  1.0000
  H   H1690     1.0  0.61502  0.64176  0.04069  1.0000
  H   H1691     1.0  0.54397  0.63548  0.03868  1.0000
  H   H1692     1.0  0.54364  0.50440  0.23722  1.0000
  H   H1693     1.0  0.54596  0.57781  0.00741  1.0000
  C   C942      1.0  0.55221  0.63005  0.23295  1.0000
  C   C943      1.0  0.57415  0.89489  0.35802  1.0000
  C   C944      1.0  0.58076  0.83814  0.42037  1.0000
  H   H1694     1.0  0.54754  0.66937  0.02818  1.0000
  H   H1695     1.0  0.54626  0.85462  0.45966  1.0000
  H   H1696     1.0  0.53136  0.80694  0.27590  1.0000
  C   C945      1.0  0.51130  0.68242  0.01451  1.0000
  C   C946      1.0  0.66579  0.56703  0.34803  1.0000
  S   S202      1.0  0.50673  0.93504  0.33369  1.0000
  H   H1697     1.0  0.52228  0.62462  0.28044  1.0000
  H   H1698     1.0  0.58253  0.86165  0.35954  1.0000
  H   H1699     1.0  0.55064  0.58769  0.24385  1.0000
  H   H1700     1.0  0.57544  0.60181  0.02203  1.0000
  H   H1701     1.0  0.52506  0.56517  0.23369  1.0000
  H   H1702     1.0  0.54795  0.64286  0.22154  1.0000
  C   C947      1.0  0.52383  0.66354  0.00613  1.0000
  H   H1703     1.0  0.63458  0.82944  0.42414  1.0000
  C   C948      1.0  0.53898  0.59764  0.25259  1.0000
  C   C949      1.0  0.52875  0.56931  0.27719  1.0000
  H   H1704     1.0  0.61766  0.74001  0.28997  1.0000
  C   C950      1.0  0.53340  0.61630  0.23740  1.0000
  H   H1705     1.0  0.54204  0.94487  0.29924  1.0000
  C   C951      1.0  0.54445  0.55198  0.26939  1.0000
  C   C952      1.0  0.56391  0.49417  0.15088  1.0000
  H   H1706     1.0  0.59858  0.91699  0.35302  1.0000
  H   H1707     1.0  0.52070  0.62654  0.24383  1.0000
  H   H1708     1.0  0.57403  0.71853  0.23974  1.0000
  H   H1709     1.0  0.54278  0.96223  0.33342  1.0000
  S   S203      1.0  0.66983  0.73305  0.47683  1.0000
  H   H1710     1.0  0.57367  0.87746  0.41151  1.0000
  Fe  Fe105     1.0  0.62444  0.50101  0.02168  1.0000
  C   C953      1.0  0.71812  0.53153  0.43248  1.0000
  H   H1711     1.0  0.58213  0.84159  0.40326  1.0000
  C   C954      1.0  0.57799  0.88528  0.44405  1.0000
  S   S204      1.0  0.51458  0.98813  0.35843  1.0000
  H   H1712     1.0  0.55865  0.55890  0.26204  1.0000
  H   H1713     1.0  0.60794  0.85732  0.42427  1.0000
  H   H1714     1.0  0.57945  0.75238  0.28725  1.0000
  H   H1715     1.0  0.52831  0.61046  0.22229  1.0000
  C   C955      1.0  0.58708  0.66023  0.03240  1.0000
  C   C956      1.0  0.49206  0.71176  0.28606  1.0000
  C   C957      1.0  0.51862  0.52978  0.03753  1.0000
  H   H1716     1.0  0.61849  0.82677  0.40187  1.0000
  C   C958      1.0  0.51806  0.51817  0.01660  1.0000
  H   H1717     1.0  0.59464  0.87669  0.37899  1.0000
  H   H1718     1.0  0.51837  0.91469  0.39391  1.0000
  C   C959      1.0  0.56705  0.93695  0.33403  1.0000
  H   H1719     1.0  0.70411  0.51670  0.29491  1.0000
  H   H1720     1.0  0.50736  0.84877  0.39549  1.0000
  H   H1721     1.0  0.55945  0.54645  0.29935  1.0000
  C   C960      1.0  0.69792  0.49978  0.26712  1.0000
  H   H1722     1.0  0.55541  0.70149  0.27119  1.0000
  C   C961      1.0  0.54325  0.84521  0.41921  1.0000
  H   H1723     1.0  0.73259  0.55049  0.40823  1.0000
  H   H1724     1.0  0.53371  0.82629  0.48476  1.0000
  C   C962      1.0  0.68035  0.79454  0.43321  1.0000
  C   C963      1.0  0.57636  0.50848  0.13581  1.0000
  H   H1725     1.0  0.55641  0.92462  0.32926  1.0000
  C   C964      1.0  0.54721  0.66427  0.01170  1.0000
  C   C965      1.0  0.71463  0.52616  0.39346  1.0000
  C   C966      1.0  0.53198  0.98163  0.42020  1.0000
  H   H1726     1.0  0.53965  0.92152  0.36109  1.0000
  H   H1727     1.0  0.49997  0.54555  0.25924  1.0000
  N   N54       1.0  0.71957  0.78219  0.47817  1.0000
  C   C967      1.0  0.54118  0.56942  0.99409  1.0000
  H   H1728     1.0  0.52037  0.85193  0.37024  1.0000
  H   H1729     1.0  0.57342  0.84942  0.46220  1.0000
  H   H1730     1.0  0.51684  0.60506  0.30063  1.0000
  H   H1731     1.0  0.51547  0.56150  0.28554  1.0000
  H   H1732     1.0  0.72489  0.67799  0.46661  1.0000
  H   H1733     1.0  0.53025  0.50539  0.01725  1.0000
  H   H1734     1.0  0.56884  0.91727  0.43418  1.0000
  H   H1735     1.0  0.55706  0.91488  0.39637  1.0000
  N   N55       1.0  0.49722  0.50959  0.01125  1.0000
  C   C968      1.0  0.58979  0.87681  0.36246  1.0000
  H   H1736     1.0  0.55998  0.89218  0.36801  1.0000
  H   H1737     1.0  0.67994  0.53904  0.37616  1.0000
  H   H1738     1.0  0.54348  0.58827  0.04217  1.0000
  H   H1739     1.0  0.52367  0.52912  0.00397  1.0000
  C   C969      1.0  0.57564  0.97764  0.42122  1.0000
  H   H1740     1.0  0.57954  0.61871  0.04309  1.0000
  H   H1741     1.0  0.67869  0.77760  0.46269  1.0000
  C   C970      1.0  0.55162  0.62777  0.02490  1.0000
  N   N56       1.0  0.56289  0.85076  0.43012  1.0000
  H   H1742     1.0  0.56980  0.89411  0.34140  1.0000
  C   C971      1.0  0.71768  0.54231  0.41076  1.0000
  C   C972      1.0  0.69082  0.78129  0.45053  1.0000
  H   H1743     1.0  0.65404  0.55502  0.35209  1.0000
  S   S205      1.0  0.64245  0.83814  0.46768  1.0000
  H   H1744     1.0  0.69865  0.56973  0.34303  1.0000
  C   C973      1.0  0.55356  0.95706  0.30196  1.0000
  C   C974      1.0  0.51234  0.57362  0.24250  1.0000
  H   H1745     1.0  0.49304  0.71237  0.30289  1.0000
  H   H1746     1.0  0.72956  0.56417  0.37319  1.0000
  H   H1747     1.0  0.52369  0.89269  0.33375  1.0000
  S   S206      1.0  0.59636  0.95535  0.48009  1.0000
  C   C975      1.0  0.55775  0.95812  0.32531  1.0000
  H   H1748     1.0  0.58839  0.91614  0.37901  1.0000
  H   H1749     1.0  0.53429  0.77262  0.29408  1.0000
  C   C976      1.0  0.54322  0.75405  0.26634  1.0000
  S   S207      1.0  0.50726  0.80014  0.32205  1.0000
  H   H1750     1.0  0.57369  0.50330  0.11970  1.0000
  N   N57       1.0  0.71338  0.53500  0.37125  1.0000
  C   C977      1.0  0.69340  0.54807  0.36976  1.0000
  H   H1751     1.0  0.66240  0.57390  0.33225  1.0000
  H   H1752     1.0  0.60385  0.87819  0.35195  1.0000
  H   H1753     1.0  0.53945  0.94865  0.36542  1.0000
  Fe  Fe106     1.0  0.49086  0.65130  0.21056  1.0000
  C   C978      1.0  0.54879  0.93390  0.36812  1.0000
  C   C979      1.0  0.68783  0.55711  0.34780  1.0000
  H   H1754     1.0  0.54905  0.51786  0.04742  1.0000
  H   H1755     1.0  0.58202  0.93366  0.32526  1.0000
  H   H1756     1.0  0.49712  0.67812  0.28540  1.0000
  H   H1757     1.0  0.52627  0.92548  0.41814  1.0000
  H   H1758     1.0  0.55256  0.49564  0.21185  1.0000
  H   H1759     1.0  0.56853  0.97111  0.32725  1.0000
  C   C980      1.0  0.58366  0.91632  0.36238  1.0000
  H   H1760     1.0  0.69394  0.56188  0.37985  1.0000
  C   C981      1.0  0.54853  0.92970  0.39215  1.0000
  N   N58       1.0  0.57002  0.93542  0.35741  1.0000
  Fe  Fe107     1.0  0.49408  0.98819  0.38737  1.0000
  H   H1761     1.0  0.56985  0.96863  0.36349  1.0000
  H   H1762     1.0  0.60161  0.95924  0.33719  1.0000
  C   C982      1.0  0.49432  0.69229  0.27605  1.0000
  H   H1763     1.0  0.56825  0.95349  0.29291  1.0000
  H   H1764     1.0  0.61393  0.94742  0.35971  1.0000
  C   C983      1.0  0.55634  0.82178  0.45894  1.0000
  H   H1765     1.0  0.52406  0.82782  0.38517  1.0000
  C   C984      1.0  0.60198  0.95930  0.35450  1.0000
  H   H1766     1.0  0.58332  0.95275  0.38209  1.0000
  H   H1767     1.0  0.55049  0.88268  0.42675  1.0000
  H   H1768     1.0  0.59243  0.63411  0.01158  1.0000
  H   H1769     1.0  0.53786  0.52959  0.29509  1.0000
  H   H1770     1.0  0.69347  0.69967  0.45687  1.0000
  H   H1771     1.0  0.58279  0.74348  0.26149  1.0000
  H   H1772     1.0  0.58784  0.70560  0.27873  1.0000
  C   C985      1.0  0.49758  0.87207  0.33516  1.0000
  C   C986      1.0  0.55146  0.53747  0.28751  1.0000
  H   H1773     1.0  0.53192  0.96141  0.44781  1.0000
  H   H1774     1.0  0.69779  0.49231  0.37579  1.0000
  H   H1775     1.0  0.53176  0.71420  0.26402  1.0000
  H   H1776     1.0  0.56812  0.88635  0.45863  1.0000
  H   H1777     1.0  0.53897  0.61897  0.01791  1.0000
  H   H1778     1.0  0.55418  0.67717  0.00188  1.0000
  C   C987      1.0  0.50366  0.59834  0.27021  1.0000
  C   C988      1.0  0.63510  0.90064  0.47801  1.0000
  H   H1779     1.0  0.57020  0.95732  0.44818  1.0000
  C   C989      1.0  0.49452  0.91046  0.33543  1.0000
  C   C990      1.0  0.54083  0.85416  0.39643  1.0000
  H   H1780     1.0  0.58848  0.65868  0.99871  1.0000
  H   H1781     1.0  0.62192  0.49877  0.29458  1.0000
  H   H1782     1.0  0.73460  0.75228  0.48641  1.0000
  H   H1783     1.0  0.71345  0.52200  0.34017  1.0000
  H   H1784     1.0  0.72119  0.54325  0.44439  1.0000
  C   C991      1.0  0.54411  0.73238  0.29875  1.0000
  C   C992      1.0  0.58329  0.90765  0.43701  1.0000
  C   C993      1.0  0.69626  0.50075  0.36042  1.0000
  N   N59       1.0  0.55989  0.64404  0.00918  1.0000
  C   C994      1.0  0.64167  0.49720  0.07331  1.0000
  H   H1785     1.0  0.59308  0.50591  0.13897  1.0000
  H   H1786     1.0  0.52736  0.73766  0.29901  1.0000
  C   C995      1.0  0.71387  0.51669  0.35684  1.0000
  C   C996      1.0  0.50687  0.89184  0.33479  1.0000
  H   H1787     1.0  0.59196  0.91507  0.44947  1.0000
  H   H1788     1.0  0.51068  0.52079  0.05043  1.0000
  C   C997      1.0  0.58251  0.64869  0.01209  1.0000
  H   H1789     1.0  0.55913  0.68285  0.23805  1.0000
  C   C998      1.0  0.63903  0.86231  0.48057  1.0000
  H   H1790     1.0  0.64756  0.49389  0.30498  1.0000
  H   H1791     1.0  0.71239  0.75039  0.47113  1.0000
  C   C999      1.0  0.50452  0.62131  0.08573  1.0000
  H   H1792     1.0  0.61304  0.66741  0.05167  1.0000
  H   H1793     1.0  0.68064  0.50867  0.35981  1.0000
  C   C1000     1.0  0.54275  0.77460  0.27878  1.0000
  C   C1001     1.0  0.50230  0.63119  0.10511  1.0000
  C   C1002     1.0  0.70884  0.79317  0.45999  1.0000
  H   H1794     1.0  0.50505  0.74124  0.43120  1.0000
  H   H1795     1.0  0.54421  0.81491  0.44957  1.0000
  H   H1796     1.0  0.52909  0.85055  0.42838  1.0000
  H   H1797     1.0  0.54923  0.73008  0.23192  1.0000
  Fe  Fe108     1.0  0.64543  0.75888  0.48663  1.0000
  C   C1003     1.0  0.65382  0.50383  0.08968  1.0000
  H   H1798     1.0  0.51664  0.64917  0.01278  1.0000
  H   H1799     1.0  0.70291  0.52433  0.43649  1.0000
  S   S208      1.0  0.60290  0.97595  0.42275  1.0000
  S   S209      1.0  0.50146  0.61850  0.04320  1.0000
  Fe  Fe109     1.0  0.63333  0.80624  0.48152  1.0000
  H   H1800     1.0  0.64474  0.50079  0.27755  1.0000
  H   H1801     1.0  0.69901  0.52099  0.00175  1.0000
  H   H1802     1.0  0.73421  0.76519  0.43939  1.0000
  C   C1004     1.0  0.72847  0.49327  0.28930  1.0000
  C   C1005     1.0  0.54942  0.81888  0.48195  1.0000
  C   C1006     1.0  0.56619  0.98973  0.40526  1.0000
  S   S210      1.0  0.60443  0.49403  0.19078  1.0000
  H   H1803     1.0  0.51115  0.68208  0.03192  1.0000
  H   H1804     1.0  0.72961  0.72702  0.44497  1.0000
  C   C1007     1.0  0.69141  0.71666  0.48550  1.0000
  H   H1805     1.0  0.49603  0.56840  0.12914  1.0000
  C   C1008     1.0  0.73865  0.79415  0.48294  1.0000
  C   C1009     1.0  0.49172  0.62730  0.29454  1.0000
  H   H1806     1.0  0.72766  0.82689  0.47757  1.0000
  H   H1807     1.0  0.67092  0.52343  0.00130  1.0000
  H   H1808     1.0  0.59260  0.87669  0.49051  1.0000
  C   C1010     1.0  0.49273  0.65112  0.10628  1.0000
  H   H1809     1.0  0.54717  0.49464  0.14686  1.0000
  Fe  Fe110     1.0  0.49059  0.64851  0.16223  1.0000
  C   C1011     1.0  0.74024  0.55069  0.34365  1.0000
  C   C1012     1.0  0.73439  0.81687  0.49036  1.0000
  C   C1013     1.0  0.68520  0.51879  0.99207  1.0000
  C   C1014     1.0  0.63778  0.49195  0.29116  1.0000
  H   H1810     1.0  0.58161  0.69292  0.62274  1.0000
  C   C1015     1.0  0.58477  0.86900  0.50434  1.0000
  C   C1016     1.0  0.63973  0.88320  0.51176  1.0000
  H   H1811     1.0  0.55494  0.91459  0.54019  1.0000
  H   H1812     1.0  0.51947  0.70967  0.69830  1.0000
  H   H1813     1.0  0.49933  0.92571  0.62613  1.0000
  H   H1814     1.0  0.55987  0.85725  0.61803  1.0000
  C   C1017     1.0  0.54927  0.98277  0.58166  1.0000
  H   H1815     1.0  0.60587  0.54089  0.83431  1.0000
  C   C1018     1.0  0.71896  0.57731  0.59658  1.0000
  H   H1816     1.0  0.60417  0.57917  0.86311  1.0000
  H   H1817     1.0  0.67870  0.51140  0.70439  1.0000
  H   H1818     1.0  0.55653  0.80004  0.62820  1.0000
  C   C1019     1.0  0.53794  0.91652  0.56995  1.0000
  H   H1819     1.0  0.52710  0.90657  0.57951  1.0000
  C   C1020     1.0  0.58480  0.89916  0.56769  1.0000
  H   H1820     1.0  0.56705  0.60423  0.98998  1.0000
  S   S211      1.0  0.56555  0.51446  0.78714  1.0000
  S   S212      1.0  0.62843  0.51825  0.79617  1.0000
  C   C1021     1.0  0.68741  0.49350  0.73215  1.0000
  S   S213      1.0  0.50914  0.76955  0.57413  1.0000
  H   H1821     1.0  0.49706  0.71390  0.83617  1.0000
  Fe  Fe111     1.0  0.50808  0.62186  0.78963  1.0000
  S   S214      1.0  0.54205  0.61169  0.79228  1.0000
  H   H1822     1.0  0.54915  0.60836  0.95655  1.0000
  Fe  Fe112     1.0  0.61575  0.78069  0.51839  1.0000
  S   S215      1.0  0.60458  0.78513  0.55200  1.0000
  S   S216      1.0  0.64883  0.78685  0.50704  1.0000
  H   H1823     1.0  0.54110  0.52513  0.83235  1.0000
  S   S217      1.0  0.50266  0.84879  0.63351  1.0000
  H   H1824     1.0  0.62395  0.91704  0.55959  1.0000
  H   H1825     1.0  0.63483  0.51188  0.93271  1.0000
  C   C1022     1.0  0.53500  0.77622  0.56711  1.0000
  C   C1023     1.0  0.54690  0.78798  0.58015  1.0000
  C   C1024     1.0  0.56818  0.79099  0.57522  1.0000
  C   C1025     1.0  0.57750  0.78277  0.55694  1.0000
  C   C1026     1.0  0.56529  0.77202  0.54334  1.0000
  C   C1027     1.0  0.54417  0.76859  0.54852  1.0000
  H   H1826     1.0  0.53981  0.79438  0.59421  1.0000
  H   H1827     1.0  0.57747  0.79961  0.58561  1.0000
  H   H1828     1.0  0.57229  0.76572  0.52916  1.0000
  H   H1829     1.0  0.53503  0.75961  0.53828  1.0000
  H   H1830     1.0  0.51754  0.94403  0.57349  1.0000
  S   S218      1.0  0.63764  0.92638  0.51210  1.0000
  H   H1831     1.0  0.53665  0.89484  0.54481  1.0000
  H   H1832     1.0  0.52355  0.69118  0.80535  1.0000
  C   C1028     1.0  0.55949  0.54160  0.78814  1.0000
  C   C1029     1.0  0.53862  0.54864  0.78644  1.0000
  C   C1030     1.0  0.53314  0.57010  0.78747  1.0000
  C   C1031     1.0  0.54853  0.58471  0.79023  1.0000
  C   C1032     1.0  0.56942  0.57767  0.79188  1.0000
  C   C1033     1.0  0.57491  0.55618  0.79078  1.0000
  H   H1833     1.0  0.52666  0.53750  0.78419  1.0000
  H   H1834     1.0  0.51703  0.57534  0.78601  1.0000
  H   H1835     1.0  0.58143  0.58890  0.79390  1.0000
  H   H1836     1.0  0.59107  0.55094  0.79179  1.0000
  H   H1837     1.0  0.52357  0.53899  0.94648  1.0000
  H   H1838     1.0  0.54581  0.83966  0.60234  1.0000
  H   H1839     1.0  0.61762  0.55493  0.86823  1.0000
  C   C1034     1.0  0.68444  0.49598  0.98562  1.0000
  S   S219      1.0  0.58065  0.49913  0.98064  1.0000
  H   H1840     1.0  0.60973  0.55552  0.94131  1.0000
  H   H1841     1.0  0.59901  0.88868  0.56645  1.0000
  H   H1842     1.0  0.69186  0.77019  0.49384  1.0000
  H   H1843     1.0  0.56094  0.53765  0.95617  1.0000
  H   H1844     1.0  0.64145  0.88399  0.52850  1.0000
  H   H1845     1.0  0.64260  0.84929  0.51179  1.0000
  H   H1846     1.0  0.58057  0.80268  0.64153  1.0000
  H   H1847     1.0  0.51250  0.92901  0.55084  1.0000
  H   H1848     1.0  0.60296  0.67669  0.65066  1.0000
  H   H1849     1.0  0.60328  0.70120  0.66385  1.0000
  H   H1850     1.0  0.50793  0.68736  0.72891  1.0000
  C   C1035     1.0  0.60542  0.55789  0.83737  1.0000
  H   H1851     1.0  0.57814  0.93278  0.56152  1.0000
  H   H1852     1.0  0.64217  0.52642  0.89675  1.0000
  C   C1036     1.0  0.72942  0.63200  0.54047  1.0000
  H   H1853     1.0  0.69214  0.63064  0.50157  1.0000
  H   H1854     1.0  0.61611  0.69858  0.63834  1.0000
  C   C1037     1.0  0.57340  0.49519  0.88806  1.0000
  H   H1855     1.0  0.51020  0.65371  0.89563  1.0000
  H   H1856     1.0  0.56894  0.69529  0.64797  1.0000
  H   H1857     1.0  0.52706  0.58571  0.85932  1.0000
  C   C1038     1.0  0.55598  0.55833  0.98199  1.0000
  H   H1858     1.0  0.73512  0.64751  0.53496  1.0000
  H   H1859     1.0  0.59755  0.89048  0.52501  1.0000
  H   H1860     1.0  0.52312  0.50489  0.80607  1.0000
  H   H1861     1.0  0.72674  0.56867  0.60973  1.0000
  H   H1862     1.0  0.58589  0.52405  0.85656  1.0000
  C   C1039     1.0  0.70724  0.63065  0.53151  1.0000
  S   S220      1.0  0.50023  0.98897  0.65066  1.0000
  C   C1040     1.0  0.49444  0.70983  0.80319  1.0000
  H   H1863     1.0  0.58278  0.56303  0.93754  1.0000
  C   C1041     1.0  0.53996  0.58976  0.84806  1.0000
  C   C1042     1.0  0.62554  0.56689  0.82794  1.0000
  H   H1864     1.0  0.55887  0.79027  0.65495  1.0000
  H   H1865     1.0  0.63938  0.55887  0.83506  1.0000
  H   H1866     1.0  0.62639  0.56439  0.81081  1.0000
  H   H1867     1.0  0.62597  0.58401  0.83043  1.0000
  C   C1043     1.0  0.52505  0.51945  0.83539  1.0000
  S   S221      1.0  0.50052  0.61642  0.98157  1.0000
  C   C1044     1.0  0.57088  0.85598  0.58532  1.0000
  C   C1045     1.0  0.51817  0.70731  0.80058  1.0000
  H   H1868     1.0  0.61085  0.92990  0.58152  1.0000
  H   H1869     1.0  0.51485  0.89010  0.62036  1.0000
  N   N60       1.0  0.56610  0.88829  0.55973  1.0000
  H   H1870     1.0  0.52192  0.63526  0.69003  1.0000
  C   C1046     1.0  0.71874  0.70690  0.51017  1.0000
  H   H1871     1.0  0.55042  0.55528  0.87069  1.0000
  C   C1047     1.0  0.49749  0.69946  0.72261  1.0000
  H   H1872     1.0  0.61434  0.94372  0.55663  1.0000
  C   C1048     1.0  0.49138  0.91205  0.63227  1.0000
  H   H1873     1.0  0.72578  0.78521  0.52277  1.0000
  C   C1049     1.0  0.49074  0.59069  0.90124  1.0000
  H   H1874     1.0  0.59474  0.85531  0.50945  1.0000
  C   C1050     1.0  0.69048  0.50110  0.71133  1.0000
  H   H1875     1.0  0.59199  0.73291  0.56112  1.0000
  C   C1051     1.0  0.56775  0.51848  0.88479  1.0000
  H   H1876     1.0  0.57228  0.84356  0.57352  1.0000
  C   C1052     1.0  0.69677  0.77432  0.53551  1.0000
  H   H1877     1.0  0.64205  0.49922  0.70478  1.0000
  H   H1878     1.0  0.71064  0.50157  0.68338  1.0000
  H   H1879     1.0  0.68638  0.52927  0.97789  1.0000
  H   H1880     1.0  0.60077  0.52440  0.87916  1.0000
  C   C1053     1.0  0.50013  0.89181  0.62896  1.0000
  C   C1054     1.0  0.63722  0.90189  0.49967  1.0000
  C   C1055     1.0  0.70683  0.66756  0.60553  1.0000
  C   C1056     1.0  0.59016  0.92072  0.55715  1.0000
  C   C1057     1.0  0.51383  0.55920  0.97156  1.0000
  C   C1058     1.0  0.52173  0.49991  0.82284  1.0000
  H   H1881     1.0  0.68964  0.79029  0.53731  1.0000
  H   H1882     1.0  0.69922  0.61643  0.53743  1.0000
  S   S222      1.0  0.66360  0.50057  0.74617  1.0000
  C   C1059     1.0  0.56581  0.61245  0.95757  1.0000
  C   C1060     1.0  0.61111  0.92822  0.56426  1.0000
  H   H1883     1.0  0.58674  0.86116  0.58876  1.0000
  H   H1884     1.0  0.56069  0.82582  0.49237  1.0000
  H   H1885     1.0  0.60321  0.58006  0.92794  1.0000
  H   H1886     1.0  0.52225  0.66380  0.98884  1.0000
  H   H1887     1.0  0.50539  0.58091  0.90077  1.0000
  S   S223      1.0  0.63980  0.50983  0.85581  1.0000
  H   H1888     1.0  0.53500  0.94540  0.55095  1.0000
  H   H1889     1.0  0.58546  0.70629  0.55621  1.0000
  Fe  Fe113     1.0  0.62661  0.95707  0.49612  1.0000
  H   H1890     1.0  0.71616  0.61527  0.50257  1.0000
  C   C1061     1.0  0.49032  0.99088  0.49636  1.0000
  H   H1891     1.0  0.51316  0.65428  0.70886  1.0000
  H   H1892     1.0  0.71666  0.64370  0.50077  1.0000
  H   H1893     1.0  0.56520  0.72651  0.55675  1.0000
  H   H1894     1.0  0.59091  0.92038  0.53987  1.0000
  C   C1062     1.0  0.64034  0.86350  0.50232  1.0000
  N   N61       1.0  0.56303  0.73433  0.62151  1.0000
  C   C1063     1.0  0.54383  0.72125  0.62404  1.0000
  C   C1064     1.0  0.58031  0.72520  0.63499  1.0000
  C   C1065     1.0  0.55713  0.75595  0.62920  1.0000
  C   C1066     1.0  0.57032  0.73676  0.59889  1.0000
  C   C1067     1.0  0.57642  0.71641  0.58746  1.0000
  C   C1068     1.0  0.52475  0.72872  0.61110  1.0000
  C   C1069     1.0  0.57537  0.77111  0.63162  1.0000
  C   C1070     1.0  0.58210  0.70094  0.63777  1.0000
  C   C1071     1.0  0.60238  0.69401  0.64831  1.0000
  C   C1072     1.0  0.57998  0.72087  0.56398  1.0000
  H   H1895     1.0  0.72081  0.75841  0.51751  1.0000
  C   C1073     1.0  0.56727  0.79228  0.63957  1.0000
  H   H1896     1.0  0.53861  0.72044  0.64088  1.0000
  H   H1897     1.0  0.54723  0.70481  0.61971  1.0000
  H   H1898     1.0  0.59571  0.73096  0.62909  1.0000
  H   H1899     1.0  0.57825  0.73080  0.65132  1.0000
  H   H1900     1.0  0.54857  0.75475  0.64467  1.0000
  H   H1901     1.0  0.54620  0.76413  0.61831  1.0000
  H   H1902     1.0  0.55831  0.74551  0.58964  1.0000
  H   H1903     1.0  0.58429  0.74662  0.59740  1.0000
  H   H1904     1.0  0.56413  0.70464  0.58929  1.0000
  H   H1905     1.0  0.59132  0.70970  0.59353  1.0000
  H   H1906     1.0  0.51927  0.74473  0.61523  1.0000
  H   H1907     1.0  0.52862  0.72856  0.59406  1.0000
  H   H1908     1.0  0.58376  0.77413  0.61645  1.0000
  H   H1909     1.0  0.58683  0.76472  0.64301  1.0000
  H   H1910     1.0  0.53859  0.60681  0.84402  1.0000
  C   C1074     1.0  0.71730  0.64633  0.57385  1.0000
  H   H1911     1.0  0.54088  0.63331  0.98452  1.0000
  H   H1912     1.0  0.59229  0.56543  0.82885  1.0000
  C   C1075     1.0  0.63311  0.50221  0.91931  1.0000
  C   C1076     1.0  0.60325  0.56196  0.86115  1.0000
  C   C1077     1.0  0.58562  0.52998  0.87274  1.0000
  C   C1078     1.0  0.50637  0.71435  0.61534  1.0000
  H   H1913     1.0  0.61563  0.55386  0.90269  1.0000
  H   H1914     1.0  0.71487  0.68161  0.59904  1.0000
  H   H1915     1.0  0.59693  0.53549  0.91301  1.0000
  H   H1916     1.0  0.53825  0.58104  0.83350  1.0000
  H   H1917     1.0  0.56074  0.65052  0.97570  1.0000
  H   H1918     1.0  0.71814  0.56655  0.58335  1.0000
  H   H1919     1.0  0.56737  0.55965  0.90189  1.0000
  H   H1920     1.0  0.49236  0.76452  0.52790  1.0000
  C   C1079     1.0  0.52846  0.54730  0.95987  1.0000
  N   N62       1.0  0.58403  0.55360  0.87239  1.0000
  C   C1080     1.0  0.58307  0.56183  0.89433  1.0000
  H   H1921     1.0  0.72586  0.70917  0.52502  1.0000
  H   H1922     1.0  0.57341  0.59087  0.84669  1.0000
  C   C1081     1.0  0.56894  0.97690  0.54924  1.0000
  S   S224      1.0  0.61330  0.75148  0.50002  1.0000
  C   C1082     1.0  0.54903  0.90345  0.55250  1.0000
  C   C1083     1.0  0.71367  0.77443  0.51809  1.0000
  C   C1084     1.0  0.59872  0.56348  0.93029  1.0000
  C   C1085     1.0  0.55687  0.87467  0.57729  1.0000
  C   C1086     1.0  0.56438  0.56059  0.86144  1.0000
  H   H1923     1.0  0.56354  0.55293  0.84607  1.0000
  S   S225      1.0  0.61554  0.98422  0.51575  1.0000
  C   C1087     1.0  0.56117  0.58459  0.85761  1.0000
  C   C1088     1.0  0.59962  0.55234  0.90947  1.0000
  H   H1924     1.0  0.58507  0.57909  0.89382  1.0000
  H   H1925     1.0  0.56160  0.59307  0.87245  1.0000
  S   S226      1.0  0.50012  0.74378  0.67460  1.0000
  C   C1089     1.0  0.52494  0.93482  0.56065  1.0000
  H   H1926     1.0  0.50853  0.62670  0.71381  1.0000
  C   C1090     1.0  0.58187  0.88469  0.52185  1.0000
  H   H1927     1.0  0.70528  0.60852  0.57200  1.0000
  C   C1091     1.0  0.54956  0.54665  0.96528  1.0000
  H   H1928     1.0  0.69751  0.64468  0.53574  1.0000
  S   S227      1.0  0.55390  0.98847  0.51060  1.0000
  C   C1092     1.0  0.72262  0.60777  0.57013  1.0000
  C   C1093     1.0  0.50924  0.63942  0.70154  1.0000
  C   C1094     1.0  0.70064  0.71898  0.50484  1.0000
  H   H1929     1.0  0.58272  0.90213  0.58474  1.0000
  H   H1930     1.0  0.56920  0.62571  0.94643  1.0000
  H   H1931     1.0  0.69604  0.79679  0.49864  1.0000
  Fe  Fe114     1.0  0.58644  0.98384  0.49752  1.0000
  C   C1095     1.0  0.70437  0.78135  0.49670  1.0000
  S   S228      1.0  0.51077  0.78855  0.63356  1.0000
  H   H1932     1.0  0.51078  0.69793  0.61146  1.0000
  H   H1933     1.0  0.56942  0.86346  0.49965  1.0000
  H   H1934     1.0  0.70287  0.58206  0.60185  1.0000
  H   H1935     1.0  0.57188  0.89786  0.51580  1.0000
  H   H1936     1.0  0.54190  0.86807  0.57251  1.0000
  H   H1937     1.0  0.52601  0.71879  0.81012  1.0000
  H   H1938     1.0  0.55890  0.86487  0.53759  1.0000
  H   H1939     1.0  0.55285  0.88423  0.59121  1.0000
  C   C1096     1.0  0.70867  0.49559  0.69933  1.0000
  Fe  Fe115     1.0  0.64410  0.49290  0.77646  1.0000
  H   H1940     1.0  0.67180  0.49488  0.97421  1.0000
  H   H1941     1.0  0.54932  0.92286  0.58064  1.0000
  C   C1097     1.0  0.57248  0.87411  0.54200  1.0000
  H   H1942     1.0  0.58474  0.86243  0.54701  1.0000
  C   C1098     1.0  0.56750  0.97566  0.57120  1.0000
  H   H1943     1.0  0.57178  0.83253  0.61064  1.0000
  H   H1944     1.0  0.52256  0.51601  0.85241  1.0000
  C   C1099     1.0  0.56145  0.84581  0.60530  1.0000
  C   C1100     1.0  0.63725  0.51043  0.89889  1.0000
  H   H1945     1.0  0.50430  0.98568  0.50541  1.0000
  Fe  Fe116     1.0  0.59852  0.50173  0.79233  1.0000
  H   H1946     1.0  0.49057  0.65377  0.67759  1.0000
  H   H1947     1.0  0.53227  0.49720  0.98207  1.0000
  H   H1948     1.0  0.49316  0.71969  0.60542  1.0000
  H   H1949     1.0  0.61405  0.49924  0.70709  1.0000
  H   H1950     1.0  0.70060  0.64442  0.57034  1.0000
  H   H1951     1.0  0.70374  0.76915  0.55058  1.0000
  C   C1101     1.0  0.72776  0.69197  0.49650  1.0000
  H   H1952     1.0  0.55330  0.51981  0.87566  1.0000
  H   H1953     1.0  0.56428  0.52496  0.90043  1.0000
  H   H1954     1.0  0.72121  0.66190  0.56665  1.0000
  S   S229      1.0  0.49063  0.96993  0.60441  1.0000
  H   H1955     1.0  0.68433  0.76334  0.53203  1.0000
  H   H1956     1.0  0.57561  0.59860  0.95300  1.0000
  S   S230      1.0  0.62791  0.51621  0.98932  1.0000
  Fe  Fe117     1.0  0.63293  0.49603  0.82417  1.0000
  H   H1957     1.0  0.50564  0.49461  0.82626  1.0000
  C   C1102     1.0  0.50402  0.71222  0.70522  1.0000
  H   H1958     1.0  0.58274  0.97080  0.54121  1.0000
  H   H1959     1.0  0.70961  0.63411  0.60541  1.0000
  H   H1960     1.0  0.72339  0.81738  0.50407  1.0000
  H   H1961     1.0  0.52286  0.71013  0.78386  1.0000
  C   C1103     1.0  0.63518  0.49817  0.88120  1.0000
  C   C1104     1.0  0.70820  0.63005  0.50763  1.0000
  C   C1105     1.0  0.57067  0.61805  0.97995  1.0000
  S   S231      1.0  0.60085  0.80191  0.49425  1.0000
  H   H1962     1.0  0.69395  0.73022  0.51559  1.0000
  H   H1963     1.0  0.49903  0.52163  0.76139  1.0000
  H   H1964     1.0  0.73412  0.64741  0.60357  1.0000
  Fe  Fe118     1.0  0.49431  0.77997  0.60489  1.0000
  H   H1965     1.0  0.70704  0.66781  0.62290  1.0000
  H   H1966     1.0  0.49986  0.51693  0.97799  1.0000
  H   H1967     1.0  0.51380  0.53215  0.83050  1.0000
  H   H1968     1.0  0.50106  0.71496  0.63204  1.0000
  H   H1969     1.0  0.58042  0.96914  0.58007  1.0000
  H   H1970     1.0  0.69031  0.66830  0.60071  1.0000
  H   H1971     1.0  0.71056  0.50376  0.55488  1.0000
  C   C1106     1.0  0.52011  0.56944  0.98919  1.0000
  C   C1107     1.0  0.71793  0.64752  0.59796  1.0000
  H   H1972     1.0  0.58762  0.62097  0.98037  1.0000
  C   C1108     1.0  0.55236  0.98571  0.53786  1.0000
  C   C1109     1.0  0.55732  0.63729  0.98699  1.0000
  S   S232      1.0  0.49635  0.65311  0.80166  1.0000
  S   S233      1.0  0.54752  0.98214  0.60903  1.0000
  N   N63       1.0  0.73071  0.62925  0.56400  1.0000
  C   C1110     1.0  0.49382  0.65063  0.89422  1.0000
  H   H1973     1.0  0.61675  0.98744  0.56692  1.0000
  Fe  Fe119     1.0  0.51421  0.99015  0.61799  1.0000
  H   H1974     1.0  0.72610  0.59653  0.55734  1.0000
  H   H1975     1.0  0.49619  0.64691  0.86059  1.0000
  H   H1976     1.0  0.73140  0.60691  0.60361  1.0000
  S   S234      1.0  0.58236  0.55943  0.98793  1.0000
  C   C1111     1.0  0.49882  0.50292  0.98877  1.0000
  C   C1112     1.0  0.73144  0.59657  0.59007  1.0000
  H   H1977     1.0  0.58636  0.49314  0.89917  1.0000
  H   H1978     1.0  0.73988  0.62015  0.53258  1.0000
  S   S235      1.0  0.49197  0.62633  0.75895  1.0000
  S   S236      1.0  0.49065  0.65614  0.93706  1.0000
  H   H1979     1.0  0.49143  0.60148  0.91450  1.0000
  H   H1980     1.0  0.49129  0.68811  0.82993  1.0000
  H   H1981     1.0  0.69948  0.49212  0.97746  1.0000
  C   C1113     1.0  0.53254  0.99101  0.57016  1.0000
  C   C1114     1.0  0.49084  0.72827  0.69674  1.0000
  Fe  Fe120     1.0  0.80788  0.33801  0.48053  1.0000
  H   H1982     1.0  0.96288  0.39044  0.36470  1.0000
  H   H1983     1.0  0.89693  0.26123  0.47237  1.0000
  H   H1984     1.0  0.80093  0.27694  0.46464  1.0000
  Fe  Fe121     1.0  0.78909  0.45359  0.36068  1.0000
  S   S237      1.0  0.79883  0.46720  0.32886  1.0000
  S   S238      1.0  0.79214  0.41905  0.36956  1.0000
  C   C1115     1.0  0.88290  0.33660  0.46435  1.0000
  S   S239      1.0  0.77803  0.33190  0.46388  1.0000
  H   H1985     1.0  0.97558  0.43600  0.45296  1.0000
  C   C1116     1.0  0.90267  0.33392  0.47334  1.0000
  C   C1117     1.0  0.77958  0.41085  0.39326  1.0000
  C   C1118     1.0  0.78186  0.38987  0.40035  1.0000
  C   C1119     1.0  0.77377  0.38345  0.42017  1.0000
  C   C1120     1.0  0.76231  0.39773  0.43249  1.0000
  C   C1121     1.0  0.75910  0.41843  0.42488  1.0000
  C   C1122     1.0  0.76811  0.42511  0.40557  1.0000
  H   H1986     1.0  0.79050  0.37872  0.39078  1.0000
  H   H1987     1.0  0.86532  0.38339  0.40990  1.0000
  H   H1988     1.0  0.90317  0.46021  0.31212  1.0000
  H   H1989     1.0  0.76614  0.44127  0.40022  1.0000
  H   H1990     1.0  0.81172  0.31538  0.43371  1.0000
  H   H1991     1.0  0.83759  0.46082  0.41461  1.0000
  H   H1992     1.0  0.90532  0.38901  0.41085  1.0000
  N   N64       1.0  0.93079  0.41721  0.38574  1.0000
  H   H1993     1.0  0.88733  0.40469  0.34008  1.0000
  C   C1123     1.0  0.95560  0.40386  0.35581  1.0000
  H   H1994     1.0  0.88068  0.43151  0.33307  1.0000
  H   H1995     1.0  0.78816  0.42106  0.48107  1.0000
  H   H1996     1.0  0.82953  0.38392  0.43372  1.0000
  H   H1997     1.0  0.87161  0.42068  0.35790  1.0000
  C   C1124     1.0  0.93141  0.45762  0.39187  1.0000
  H   H1998     1.0  0.81891  0.39703  0.41178  1.0000
  H   H1999     1.0  0.85975  0.42658  0.45185  1.0000
  C   C1125     1.0  0.85957  0.41306  0.44128  1.0000
  C   C1126     1.0  0.98370  0.48140  0.48336  1.0000
  H   H2000     1.0  0.87444  0.41394  0.43184  1.0000
  H   H2001     1.0  0.84782  0.38961  0.38903  1.0000
  H   H2002     1.0  0.81009  0.43015  0.42678  1.0000
  H   H2003     1.0  0.90131  0.44376  0.36185  1.0000
  H   H2004     1.0  0.91929  0.40454  0.42846  1.0000
  H   H2005     1.0  0.79232  0.29574  0.43075  1.0000
  H   H2006     1.0  0.90694  0.47298  0.41100  1.0000
  H   H2007     1.0  0.82699  0.35813  0.39929  1.0000
  H   H2008     1.0  0.93789  0.43314  0.41408  1.0000
  S   S240      1.0  0.80791  0.47526  0.37861  1.0000
  C   C1127     1.0  0.86295  0.46137  0.39202  1.0000
  C   C1128     1.0  0.98866  0.43793  0.42152  1.0000
  C   C1129     1.0  0.84340  0.35952  0.40408  1.0000
  H   H2009     1.0  0.86066  0.42096  0.39959  1.0000
  H   H2010     1.0  0.85389  0.35159  0.39244  1.0000
  H   H2011     1.0  0.83397  0.42851  0.39639  1.0000
  C   C1130     1.0  0.81294  0.41579  0.45769  1.0000
  C   C1131     1.0  0.89976  0.47161  0.32401  1.0000
  H   H2012     1.0  0.82459  0.41315  0.46999  1.0000
  H   H2013     1.0  0.96282  0.42548  0.37965  1.0000
  H   H2014     1.0  0.85422  0.29122  0.46899  1.0000
  H   H2015     1.0  0.77607  0.36740  0.42577  1.0000
  S   S241      1.0  0.98588  0.46526  0.41996  1.0000
  C   C1132     1.0  0.97185  0.41132  0.33946  1.0000
  H   H2016     1.0  0.86258  0.45266  0.42480  1.0000
  H   H2017     1.0  0.84537  0.35141  0.41957  1.0000
  C   C1133     1.0  0.84685  0.42825  0.40783  1.0000
  H   H2018     1.0  0.94394  0.37407  0.43507  1.0000
  H   H2019     1.0  0.97619  0.39841  0.32877  1.0000
  H   H2020     1.0  0.94209  0.39826  0.34739  1.0000
  H   H2021     1.0  0.83944  0.28787  0.43646  1.0000
  H   H2022     1.0  0.81276  0.29936  0.41106  1.0000
  H   H2023     1.0  0.89394  0.39765  0.46356  1.0000
  H   H2024     1.0  0.91674  0.33543  0.46369  1.0000
  H   H2025     1.0  0.91718  0.36849  0.44196  1.0000
  H   H2026     1.0  0.86643  0.37908  0.44519  1.0000
  S   S242      1.0  0.84006  0.33581  0.46403  1.0000
  S   S243      1.0  0.75967  0.47339  0.36357  1.0000
  H   H2027     1.0  0.88192  0.34037  0.44778  1.0000
  S   S244      1.0  0.95679  0.36766  0.47877  1.0000
  S   S245      1.0  0.94252  0.47163  0.32852  1.0000
  Fe  Fe122     1.0  0.76998  0.48863  0.33272  1.0000
  H   H2028     1.0  0.83473  0.24355  0.45339  1.0000
  C   C1134     1.0  0.86445  0.33392  0.47652  1.0000
  C   C1135     1.0  0.80905  0.29941  0.42815  1.0000
  H   H2029     1.0  0.92907  0.35846  0.41820  1.0000
  H   H2030     1.0  0.82093  0.26791  0.43228  1.0000
  H   H2031     1.0  0.97733  0.39750  0.45512  1.0000
  C   C1136     1.0  0.92826  0.37201  0.42870  1.0000
  H   H2032     1.0  0.85686  0.22863  0.48061  1.0000
  S   S246      1.0  0.75172  0.39027  0.45733  1.0000
  Fe  Fe123     1.0  0.76730  0.36345  0.47558  1.0000
  H   H2033     1.0  0.84711  0.38838  0.46349  1.0000
  H   H2034     1.0  0.86070  0.26644  0.45852  1.0000
  H   H2035     1.0  0.91712  0.42854  0.34372  1.0000
  C   C1137     1.0  0.92094  0.39194  0.41691  1.0000
  H   H2036     1.0  0.93266  0.47204  0.42224  1.0000
  C   C1138     1.0  0.90476  0.42784  0.35625  1.0000
  H   H2037     1.0  0.91113  0.43504  0.40752  1.0000
  H   H2038     1.0  0.97953  0.47069  0.47079  1.0000
  C   C1139     1.0  0.82308  0.28322  0.43951  1.0000
  C   C1140     1.0  0.85216  0.45141  0.41139  1.0000
  C   C1141     1.0  0.91110  0.41269  0.37452  1.0000
  C   C1142     1.0  0.93665  0.39786  0.39882  1.0000
  H   H2039     1.0  0.91222  0.39666  0.36810  1.0000
  C   C1143     1.0  0.88490  0.42066  0.34631  1.0000
  C   C1144     1.0  0.83366  0.39454  0.42021  1.0000
  H   H2040     1.0  0.86628  0.47168  0.31991  1.0000
  H   H2041     1.0  0.76609  0.47234  0.46702  1.0000
  H   H2042     1.0  0.92365  0.46117  0.37698  1.0000
  H   H2043     1.0  0.74987  0.46890  0.27878  1.0000
  H   H2044     1.0  0.85367  0.45948  0.37783  1.0000
  H   H2045     1.0  0.93849  0.38384  0.38896  1.0000
  H   H2046     1.0  0.89750  0.41243  0.38574  1.0000
  H   H2047     1.0  0.95213  0.39975  0.40582  1.0000
  C   C1145     1.0  0.92726  0.43514  0.40057  1.0000
  H   H2048     1.0  0.94845  0.45941  0.38903  1.0000
  H   H2049     1.0  0.94552  0.43595  0.36079  1.0000
  C   C1146     1.0  0.84890  0.38256  0.40513  1.0000
  C   C1147     1.0  0.86179  0.39254  0.45503  1.0000
  H   H2050     1.0  0.96551  0.42483  0.32994  1.0000
  N   N65       1.0  0.84094  0.41531  0.42726  1.0000
  C   C1148     1.0  0.92395  0.47410  0.40750  1.0000
  Fe  Fe124     1.0  0.98422  0.35714  0.45864  1.0000
  H   H2051     1.0  0.86464  0.47842  0.39420  1.0000
  H   H2052     1.0  0.84207  0.19373  0.48516  1.0000
  N   N66       1.0  0.83138  0.26751  0.47654  1.0000
  H   H2053     1.0  0.82770  0.44227  0.44334  1.0000
  H   H2054     1.0  0.80618  0.40071  0.45369  1.0000
  C   C1149     1.0  0.94886  0.42170  0.37073  1.0000
  C   C1150     1.0  0.87880  0.47795  0.32854  1.0000
  C   C1151     1.0  0.79534  0.42947  0.46729  1.0000
  C   C1152     1.0  0.82285  0.42679  0.43806  1.0000
  H   H2055     1.0  0.87872  0.45411  0.38947  1.0000
  Fe  Fe125     1.0  0.97074  0.48418  0.34462  1.0000
  C   C1153     1.0  0.91634  0.48015  0.33450  1.0000
  H   H2056     1.0  0.78299  0.43297  0.45582  1.0000
  H   H2057     1.0  0.94043  0.47987  0.48202  1.0000
  C   C1154     1.0  0.85374  0.27405  0.47267  1.0000
  S   S247      1.0  0.98518  0.32414  0.47181  1.0000
  C   C1155     1.0  0.83368  0.20613  0.47581  1.0000
  C   C1156     1.0  0.82867  0.24537  0.46975  1.0000
  H   H2058     1.0  0.80146  0.44447  0.47242  1.0000
  H   H2059     1.0  0.81729  0.29806  0.46936  1.0000
  C   C1157     1.0  0.81743  0.28186  0.46337  1.0000
  H   H2060     1.0  0.81179  0.24189  0.46918  1.0000
  H   H2061     1.0  0.83801  0.20415  0.45900  1.0000
  H   H2062     1.0  0.81662  0.20403  0.47823  1.0000
  H   H2063     1.0  0.89314  0.28920  0.47507  1.0000
  C   C1158     1.0  0.86913  0.27042  0.49084  1.0000
  C   C1159     1.0  0.98266  0.40543  0.44095  1.0000
  C   C1160     1.0  0.98180  0.42733  0.43977  1.0000
  H   H2064     1.0  0.75003  0.42948  0.43423  1.0000
  C   C1161     1.0  0.87858  0.39435  0.47130  1.0000
  C   C1162     1.0  0.83969  0.22773  0.48286  1.0000
  H   H2065     1.0  0.92683  0.49002  0.40075  1.0000
  S   S248      1.0  0.79768  0.37026  0.48986  1.0000
  H   H2066     1.0  0.87416  0.40699  0.48228  1.0000
  Fe  Fe126     1.0  0.81613  0.49040  0.34748  1.0000
  H   H2067     1.0  0.88017  0.37936  0.48052  1.0000
  H   H2068     1.0  0.79314  0.48486  0.49073  1.0000
  C   C1163     1.0  0.89168  0.27369  0.48325  1.0000
  H   H2069     1.0  0.98616  0.41605  0.34720  1.0000
  C   C1164     1.0  0.76906  0.48929  0.46834  1.0000
  H   H2070     1.0  0.75722  0.46335  0.00503  1.0000
  S   S249      1.0  0.98948  0.36662  0.42488  1.0000
  H   H2071     1.0  0.74710  0.43897  0.99698  1.0000
  C   C1165     1.0  0.99008  0.39400  0.42381  1.0000
  C   C1166     1.0  0.74474  0.45630  0.99612  1.0000
  H   H2072     1.0  0.86281  0.38922  0.55917  1.0000
  H   H2073     1.0  0.93622  0.40182  0.54010  1.0000
  Fe  Fe127     1.0  0.97726  0.44907  0.61757  1.0000
  H   H2074     1.0  0.89061  0.41310  0.56236  1.0000
  S   S250      1.0  0.97612  0.46403  0.64887  1.0000
  S   S251      1.0  0.75271  0.35056  0.50573  1.0000
  C   C1167     1.0  0.85373  0.37422  0.53150  1.0000
  C   C1168     1.0  0.86023  0.47277  0.69577  1.0000
  C   C1169     1.0  0.81765  0.45322  0.69199  1.0000
  S   S252      1.0  0.95508  0.47247  0.60255  1.0000
  H   H2075     1.0  0.89482  0.36731  0.52932  1.0000
  H   H2076     1.0  0.91705  0.34124  0.54642  1.0000
  Fe  Fe128     1.0  0.76540  0.46732  0.61444  1.0000
  S   S253      1.0  0.77784  0.45328  0.64437  1.0000
  H   H2077     1.0  0.81149  0.46884  0.52544  1.0000
  C   C1170     1.0  0.80653  0.43660  0.53371  1.0000
  Fe  Fe129     1.0  0.80544  0.47383  0.63781  1.0000
  S   S254      1.0  0.83841  0.45930  0.63960  1.0000
  H   H2078     1.0  0.85113  0.35873  0.53943  1.0000
  Fe  Fe130     1.0  0.78429  0.35499  0.51902  1.0000
  S   S255      1.0  0.79628  0.32270  0.51062  1.0000
  S   S256      1.0  0.79374  0.36813  0.54981  1.0000
  H   H2079     1.0  0.88077  0.44415  0.63468  1.0000
  H   H2080     1.0  0.83850  0.38307  0.53124  1.0000
  C   C1171     1.0  0.92128  0.39589  0.53464  1.0000
  H   H2081     1.0  0.93729  0.32996  0.57774  1.0000
  H   H2082     1.0  0.89980  0.44160  0.58593  1.0000
  C   C1172     1.0  0.76279  0.42730  0.57789  1.0000
  C   C1173     1.0  0.78140  0.41870  0.58578  1.0000
  C   C1174     1.0  0.79065  0.40052  0.57707  1.0000
  C   C1175     1.0  0.78156  0.39096  0.56023  1.0000
  C   C1176     1.0  0.76309  0.39973  0.55214  1.0000
  H   H2083     1.0  0.85193  0.32646  0.50741  1.0000
  H   H2084     1.0  0.78856  0.42591  0.59874  1.0000
  H   H2085     1.0  0.80491  0.39383  0.58343  1.0000
  C   C1177     1.0  0.75370  0.41775  0.56103  1.0000
  H   H2086     1.0  0.79526  0.45516  0.50796  1.0000
  C   C1178     1.0  0.88116  0.46091  0.63655  1.0000
  H   H2087     1.0  0.92850  0.42274  0.56657  1.0000
  C   C1179     1.0  0.90054  0.47057  0.63758  1.0000
  H   H2088     1.0  0.91492  0.46127  0.63638  1.0000
  H   H2089     1.0  0.92607  0.38415  0.52280  1.0000
  H   H2090     1.0  0.93017  0.40339  0.58771  1.0000
  H   H2091     1.0  0.79477  0.42447  0.53179  1.0000
  C   C1180     1.0  0.97935  0.39116  0.55380  1.0000
  C   C1181     1.0  0.86598  0.32868  0.49787  1.0000
  H   H2092     1.0  0.85921  0.37179  0.51508  1.0000
  H   H2093     1.0  0.90076  0.42169  0.60679  1.0000
  C   C1182     1.0  0.88577  0.32549  0.50674  1.0000
  C   C1183     1.0  0.94602  0.48744  0.49613  1.0000
  C   C1184     1.0  0.76242  0.48776  0.50787  1.0000
  C   C1185     1.0  0.93061  0.35045  0.55059  1.0000
  C   C1186     1.0  0.94524  0.33578  0.56310  1.0000
  H   H2094     1.0  0.97795  0.44559  0.57845  1.0000
  C   C1187     1.0  0.86229  0.47266  0.63838  1.0000
  H   H2095     1.0  0.94995  0.32208  0.55353  1.0000
  H   H2096     1.0  0.93827  0.37726  0.56772  1.0000
  C   C1188     1.0  0.89078  0.37414  0.54484  1.0000
  H   H2097     1.0  0.83065  0.45228  0.72236  1.0000
  C   C1189     1.0  0.84690  0.47680  0.74752  1.0000
  N   N67       1.0  0.90917  0.38570  0.55265  1.0000
  C   C1190     1.0  0.90987  0.41385  0.52234  1.0000
  S   S257      1.0  0.92875  0.32145  0.50564  1.0000
  Fe  Fe131     1.0  0.98401  0.48980  0.59366  1.0000
  H   H2098     1.0  0.75553  0.47246  0.50448  1.0000
  H   H2099     1.0  0.90017  0.45760  0.68617  1.0000
  H   H2100     1.0  0.75593  0.39247  0.53921  1.0000
  C   C1191     1.0  0.80192  0.26496  0.50529  1.0000
  Fe  Fe132     1.0  0.98104  0.37621  0.50107  1.0000
  H   H2101     1.0  0.76671  0.45373  0.53382  1.0000
  Fe  Fe133     1.0  0.95580  0.48886  0.63284  1.0000
  H   H2102     1.0  0.96585  0.46147  0.50566  1.0000
  C   C1192     1.0  0.80080  0.43761  0.69826  1.0000
  C   C1193     1.0  0.85651  0.48780  0.76563  1.0000
  C   C1194     1.0  0.97795  0.41228  0.58471  1.0000
  H   H2103     1.0  0.82706  0.28688  0.50347  1.0000
  H   H2104     1.0  0.85613  0.46744  0.68013  1.0000
  C   C1195     1.0  0.92481  0.42490  0.50682  1.0000
  C   C1196     1.0  0.84654  0.49117  0.72742  1.0000
  H   H2105     1.0  0.80148  0.28143  0.53476  1.0000
  C   C1197     1.0  0.97815  0.42897  0.55012  1.0000
  S   S258      1.0  0.98236  0.34488  0.51793  1.0000
  Fe  Fe134     1.0  0.76525  0.31900  0.49498  1.0000
  H   H2106     1.0  0.87109  0.40195  0.53509  1.0000
  H   H2107     1.0  0.93917  0.35520  0.53598  1.0000
  H   H2108     1.0  0.79613  0.42935  0.68419  1.0000
  S   S259      1.0  0.97838  0.40848  0.51373  1.0000
  H   H2109     1.0  0.89325  0.39311  0.58189  1.0000
  H   H2110     1.0  0.80673  0.42573  0.70988  1.0000
  C   C1198     1.0  0.82492  0.46477  0.71133  1.0000
  C   C1199     1.0  0.79868  0.45770  0.52453  1.0000
  C   C1200     1.0  0.96757  0.47844  0.50181  1.0000
  C   C1201     1.0  0.88938  0.44533  0.69213  1.0000
  H   H2111     1.0  0.83088  0.44426  0.68458  1.0000
  H   H2112     1.0  0.78140  0.46449  0.55340  1.0000
  H   H2113     1.0  0.80972  0.43777  0.55063  1.0000
  H   H2114     1.0  0.89741  0.40732  0.51310  1.0000
  H   H2115     1.0  0.82118  0.43148  0.52538  1.0000
  C   C1202     1.0  0.90998  0.42974  0.59410  1.0000
  S   S260      1.0  0.74769  0.47479  0.69367  1.0000
  H   H2116     1.0  0.87160  0.48532  0.69245  1.0000
  H   H2117     1.0  0.90306  0.42593  0.53281  1.0000
  C   C1203     1.0  0.86955  0.38650  0.54320  1.0000
  H   H2118     1.0  0.95957  0.34397  0.56704  1.0000
  C   C1204     1.0  0.91934  0.41389  0.57873  1.0000
  S   S261      1.0  0.79393  0.48574  0.60678  1.0000
  H   H2119     1.0  0.88679  0.32069  0.52308  1.0000
  H   H2120     1.0  0.83487  0.26080  0.50990  1.0000
  Fe  Fe135     1.0  0.95936  0.33574  0.49398  1.0000
  H   H2121     1.0  0.91623  0.36390  0.57838  1.0000
  C   C1205     1.0  0.92364  0.36985  0.56340  1.0000
  H   H2122     1.0  0.78673  0.44592  0.70494  1.0000
  H   H2123     1.0  0.78110  0.26297  0.53264  1.0000
  Fe  Fe136     1.0  0.76201  0.48099  0.66035  1.0000
  C   C1206     1.0  0.77864  0.46559  0.53626  1.0000
  C   C1207     1.0  0.90197  0.40134  0.56883  1.0000
  H   H2124     1.0  0.88210  0.43821  0.67860  1.0000
  H   H2125     1.0  0.87308  0.49134  0.76179  1.0000
  H   H2126     1.0  0.86229  0.44182  0.71223  1.0000
  S   S262      1.0  0.74728  0.28843  0.50264  1.0000
  H   H2127     1.0  0.93711  0.43270  0.51534  1.0000
  H   H2128     1.0  0.88722  0.36045  0.55552  1.0000
  H   H2129     1.0  0.89861  0.43291  0.70059  1.0000
  H   H2130     1.0  0.85599  0.47744  0.77993  1.0000
  H   H2131     1.0  0.92275  0.43801  0.60139  1.0000
  C   C1208     1.0  0.79786  0.26579  0.52896  1.0000
  H   H2132     1.0  0.83540  0.22855  0.49975  1.0000
  H   H2133     1.0  0.97874  0.37851  0.58560  1.0000
  C   C1209     1.0  0.97874  0.39259  0.57570  1.0000
  H   H2134     1.0  0.80387  0.48994  0.55875  1.0000
  C   C1210     1.0  0.87256  0.45469  0.70689  1.0000
  H   H2135     1.0  0.80745  0.25354  0.53728  1.0000
  N   N68       1.0  0.77040  0.48724  0.52998  1.0000
  H   H2136     1.0  0.74622  0.46192  0.97951  1.0000
  C   C1211     1.0  0.97807  0.43037  0.57183  1.0000
  H   H2137     1.0  0.85581  0.46191  0.74516  1.0000
  H   H2138     1.0  0.81084  0.46428  0.68018  1.0000
  H   H2139     1.0  0.88064  0.46073  0.72045  1.0000
  N   N69       1.0  0.84099  0.48133  0.70716  1.0000
  H   H2140     1.0  0.97984  0.37601  0.54691  1.0000
  S   S263      1.0  0.97633  0.41462  0.61193  1.0000
  H   H2141     1.0  0.86836  0.25450  0.49809  1.0000
  H   H2142     1.0  0.97751  0.44316  0.54047  1.0000
  H   H2143     1.0  0.83066  0.47290  0.75249  1.0000
  H   H2144     1.0  0.98985  0.41726  0.65891  1.0000
  H   H2145     1.0  0.86538  0.28186  0.50328  1.0000
  H   H2146     1.0  0.93476  0.48446  0.50938  1.0000
  S   S264      1.0  0.75058  0.45005  0.58845  1.0000
  H   H2147     1.0  0.81075  0.47192  0.71922  1.0000
  H   H2148     1.0  0.79092  0.27642  0.49780  1.0000
  C   C1212     1.0  0.97886  0.40941  0.54102  1.0000
  H   H2149     1.0  0.75683  0.49060  0.56135  1.0000
  C   C1213     1.0  0.82480  0.27032  0.49921  1.0000
  C   C1214     1.0  0.90423  0.32796  0.49451  1.0000
  H   H2150     1.0  0.97241  0.48627  0.51605  1.0000
  H   H2151     1.0  0.90211  0.27312  0.49683  1.0000
  H   H2152     1.0  0.93237  0.41351  0.49594  1.0000
  H   H2153     1.0  0.91610  0.43705  0.49747  1.0000
  H   H2154     1.0  0.79817  0.24901  0.50052  1.0000
  H   H2155     1.0  0.85618  0.54545  0.40867  1.0000
  Fe  Fe137     1.0  0.98646  0.59054  0.48239  1.0000
  C   C1215     1.0  0.88874  0.56972  0.35199  1.0000
  H   H2156     1.0  0.87982  0.54811  0.37634  1.0000
  C   C1216     1.0  0.87178  0.58049  0.46687  1.0000
  H   H2157     1.0  0.80785  0.57169  0.35757  1.0000
  C   C1217     1.0  0.77350  0.54480  0.43484  1.0000
  S   S265      1.0  0.84867  0.50422  0.34767  1.0000
  C   C1218     1.0  0.77735  0.56582  0.43900  1.0000
  Fe  Fe138     1.0  0.78651  0.61622  0.46091  1.0000
  S   S266      1.0  0.79976  0.64645  0.47150  1.0000
  S   S267      1.0  0.78819  0.60622  0.42713  1.0000
  H   H2158     1.0  0.89561  0.55796  0.43826  1.0000
  H   H2159     1.0  0.86515  0.58584  0.48217  1.0000
  H   H2160     1.0  0.89765  0.66117  0.46441  1.0000
  H   H2161     1.0  0.92966  0.60748  0.46440  1.0000
  H   H2162     1.0  0.75563  0.73249  0.43528  1.0000
  S   S268      1.0  0.78831  0.51316  0.34866  1.0000
  S   S269      1.0  0.77017  0.51118  0.40966  1.0000
  H   H2163     1.0  0.86938  0.57724  0.39640  1.0000
  C   C1219     1.0  0.81062  0.59876  0.33717  1.0000
  H   H2164     1.0  0.98364  0.52274  0.40442  1.0000
  C   C1220     1.0  0.89081  0.50131  0.35421  1.0000
  H   H2165     1.0  0.74896  0.58337  0.34492  1.0000
  C   C1221     1.0  0.78277  0.57983  0.42259  1.0000
  C   C1222     1.0  0.87509  0.64449  0.48395  1.0000
  C   C1223     1.0  0.90680  0.57063  0.43461  1.0000
  C   C1224     1.0  0.77548  0.53754  0.41435  1.0000
  C   C1225     1.0  0.78099  0.55152  0.39798  1.0000
  C   C1226     1.0  0.78417  0.57268  0.40206  1.0000
  H   H2166     1.0  0.78263  0.54606  0.38219  1.0000
  H   H2167     1.0  0.78768  0.58362  0.38933  1.0000
  C   C1227     1.0  0.83782  0.55077  0.38009  1.0000
  H   H2168     1.0  0.85018  0.58973  0.34411  1.0000
  H   H2169     1.0  0.90091  0.54556  0.33097  1.0000
  C   C1228     1.0  0.84739  0.53634  0.39758  1.0000
  H   H2170     1.0  0.81723  0.59439  0.36989  1.0000
  H   H2171     1.0  0.98455  0.58981  0.39833  1.0000
  H   H2172     1.0  0.93522  0.54075  0.39778  1.0000
  N   N70       1.0  0.91068  0.58249  0.45405  1.0000
  C   C1229     1.0  0.87186  0.55611  0.36298  1.0000
  H   H2173     1.0  0.89368  0.60437  0.47369  1.0000
  H   H2174     1.0  0.91400  0.54605  0.35560  1.0000
  H   H2175     1.0  0.87278  0.60634  0.36644  1.0000
  H   H2176     1.0  0.93423  0.56165  0.46768  1.0000
  H   H2177     1.0  0.82062  0.51603  0.39952  1.0000
  H   H2178     1.0  0.76906  0.53415  0.44759  1.0000
  H   H2179     1.0  0.81126  0.58977  0.32255  1.0000
  S   S270      1.0  0.97927  0.55925  0.46975  1.0000
  C   C1230     1.0  0.86055  0.60574  0.37899  1.0000
  C   C1231     1.0  0.92760  0.59823  0.45019  1.0000
  C   C1232     1.0  0.92406  0.61453  0.43195  1.0000
  C   C1233     1.0  0.94368  0.62688  0.42681  1.0000
  C   C1234     1.0  0.89078  0.59416  0.46043  1.0000
  H   H2180     1.0  0.94304  0.59014  0.44761  1.0000
  H   H2181     1.0  0.82050  0.53574  0.41928  1.0000
  H   H2182     1.0  0.91142  0.62602  0.43637  1.0000
  H   H2183     1.0  0.91988  0.60706  0.41734  1.0000
  H   H2184     1.0  0.94027  0.63925  0.41467  1.0000
  H   H2185     1.0  0.94900  0.63461  0.44091  1.0000
  H   H2186     1.0  0.95643  0.61640  0.42068  1.0000
  H   H2187     1.0  0.84047  0.56493  0.33900  1.0000
  S   S271      1.0  0.96502  0.50015  0.37483  1.0000
  H   H2188     1.0  0.93442  0.54908  0.43512  1.0000
  H   H2189     1.0  0.85991  0.57735  0.43546  1.0000
  C   C1235     1.0  0.92646  0.56019  0.42404  1.0000
  C   C1236     1.0  0.85608  0.58297  0.38674  1.0000
  H   H2190     1.0  0.90994  0.53530  0.40952  1.0000
  H   H2191     1.0  0.85531  0.61919  0.40979  1.0000
  H   H2192     1.0  0.86987  0.63526  0.39123  1.0000
  H   H2193     1.0  0.84624  0.61354  0.37270  1.0000
  Fe  Fe139     1.0  0.77955  0.49653  0.37881  1.0000
  H   H2194     1.0  0.98092  0.49759  0.47676  1.0000
  C   C1237     1.0  0.98360  0.57565  0.40802  1.0000
  H   H2195     1.0  0.91882  0.56597  0.33560  1.0000
  H   H2196     1.0  0.76209  0.56873  0.32442  1.0000
  H   H2197     1.0  0.77594  0.57121  0.45487  1.0000
  H   H2198     1.0  0.84252  0.58448  0.39805  1.0000
  C   C1238     1.0  0.81846  0.58508  0.35554  1.0000
  H   H2199     1.0  0.82354  0.55837  0.38710  1.0000
  H   H2200     1.0  0.88587  0.60553  0.44784  1.0000
  C   C1239     1.0  0.83052  0.52460  0.41013  1.0000
  H   H2201     1.0  0.89556  0.58001  0.36346  1.0000
  H   H2202     1.0  0.84828  0.59905  0.44980  1.0000
  H   H2203     1.0  0.83215  0.54041  0.36790  1.0000
  H   H2204     1.0  0.93771  0.57214  0.41850  1.0000
  H   H2205     1.0  0.87603  0.56367  0.46925  1.0000
  H   H2206     1.0  0.79415  0.60393  0.34045  1.0000
  H   H2207     1.0  0.76969  0.56444  0.35114  1.0000
  H   H2208     1.0  0.75635  0.76398  0.45614  1.0000
  C   C1240     1.0  0.86746  0.61888  0.39698  1.0000
  C   C1241     1.0  0.84116  0.57676  0.35143  1.0000
  C   C1242     1.0  0.90666  0.55594  0.34305  1.0000
  C   C1243     1.0  0.85429  0.58253  0.45108  1.0000
  H   H2209     1.0  0.97846  0.52503  0.44257  1.0000
  H   H2210     1.0  0.89888  0.58092  0.42273  1.0000
  H   H2211     1.0  0.88758  0.51279  0.36596  1.0000
  H   H2212     1.0  0.88245  0.57939  0.33879  1.0000
  H   H2213     1.0  0.85814  0.52435  0.39050  1.0000
  S   S272      1.0  0.80249  0.59569  0.48497  1.0000
  C   C1244     1.0  0.91779  0.56701  0.47099  1.0000
  C   C1245     1.0  0.87424  0.49311  0.34348  1.0000
  S   S273      1.0  0.75654  0.62007  0.47980  1.0000
  N   N71       1.0  0.85192  0.56720  0.37032  1.0000
  H   H2214     1.0  0.86808  0.54359  0.35206  1.0000
  H   H2215     1.0  0.98145  0.59178  0.43693  1.0000
  C   C1246     1.0  0.92080  0.54799  0.40496  1.0000
  H   H2216     1.0  0.88238  0.61247  0.40328  1.0000
  H   H2217     1.0  0.82016  0.61291  0.33490  1.0000
  H   H2218     1.0  0.86179  0.65019  0.47517  1.0000
  H   H2219     1.0  0.92413  0.50179  0.35789  1.0000
  C   C1247     1.0  0.91166  0.49498  0.34973  1.0000
  H   H2220     1.0  0.91352  0.55871  0.39307  1.0000
  C   C1248     1.0  0.89545  0.65068  0.47788  1.0000
  H   H2221     1.0  0.90883  0.55239  0.47109  1.0000
  S   S274      1.0  0.93836  0.65177  0.48123  1.0000
  H   H2222     1.0  0.84110  0.57264  0.45650  1.0000
  H   H2223     1.0  0.74906  0.79560  0.46874  1.0000
  H   H2224     1.0  0.83787  0.51305  0.42123  1.0000
  C   C1249     1.0  0.98182  0.57677  0.42988  1.0000
  Fe  Fe140     1.0  0.96843  0.63407  0.49059  1.0000
  C   C1250     1.0  0.98047  0.55849  0.44240  1.0000
  H   H2225     1.0  0.75426  0.49850  0.46604  1.0000
  C   C1251     1.0  0.74453  0.73416  0.44886  1.0000
  H   H2226     1.0  0.78036  0.49394  0.45562  1.0000
  C   C1252     1.0  0.98035  0.53912  0.43301  1.0000
  C   C1253     1.0  0.75621  0.56790  0.34096  1.0000
  H   H2227     1.0  0.76601  0.82724  0.48317  1.0000
  C   C1254     1.0  0.77802  0.49357  0.48964  1.0000
  C   C1255     1.0  0.74089  0.75737  0.45351  1.0000
  H   H2228     1.0  0.78119  0.51060  0.48985  1.0000
  H   H2229     1.0  0.74597  0.54127  0.37517  1.0000
  C   C1256     1.0  0.98452  0.55616  0.39870  1.0000
  H   H2230     1.0  0.75121  0.72545  0.46258  1.0000
  S   S275      1.0  0.74271  0.50023  0.31172  1.0000
  H   H2231     1.0  0.74806  0.53581  0.33874  1.0000
  C   C1257     1.0  0.98288  0.53789  0.41128  1.0000
  S   S276      1.0  0.98904  0.62110  0.46457  1.0000
  C   C1258     1.0  0.91295  0.64351  0.48919  1.0000
  S   S277      1.0  0.98786  0.55467  0.37149  1.0000
  C   C1259     1.0  0.91154  0.56817  0.59779  1.0000
  C   C1260     1.0  0.94619  0.55414  0.60992  1.0000
  S   S278      1.0  0.92525  0.50447  0.64423  1.0000
  H   H2232     1.0  0.79545  0.63947  0.56359  1.0000
  S   S279      1.0  0.96467  0.60309  0.50717  1.0000
  H   H2233     1.0  0.81815  0.52334  0.57013  1.0000
  H   H2234     1.0  0.85872  0.51582  0.68176  1.0000
  H   H2235     1.0  0.86850  0.56558  0.60018  1.0000
  H   H2236     1.0  0.91998  0.54426  0.50927  1.0000
  Fe  Fe141     1.0  0.77746  0.51112  0.62491  1.0000
  H   H2237     1.0  0.96282  0.55126  0.60483  1.0000
  S   S280      1.0  0.78215  0.54479  0.61389  1.0000
  Fe  Fe142     1.0  0.77374  0.60184  0.50495  1.0000
  S   S281      1.0  0.78627  0.63035  0.51877  1.0000
  H   H2238     1.0  0.86727  0.54119  0.61503  1.0000
  C   C1261     1.0  0.77575  0.55258  0.58808  1.0000
  C   C1262     1.0  0.75943  0.54343  0.57802  1.0000
  C   C1263     1.0  0.78613  0.65168  0.57207  1.0000
  C   C1264     1.0  0.76442  0.56725  0.54775  1.0000
  C   C1265     1.0  0.78098  0.57619  0.55762  1.0000
  C   C1266     1.0  0.78643  0.56904  0.57786  1.0000
  H   H2239     1.0  0.78943  0.58873  0.54979  1.0000
  H   H2240     1.0  0.79901  0.57624  0.58561  1.0000
  H   H2241     1.0  0.90995  0.57931  0.61081  1.0000
  H   H2242     1.0  0.93186  0.62736  0.57502  1.0000
  C   C1267     1.0  0.88951  0.62418  0.51293  1.0000
  H   H2243     1.0  0.94035  0.62539  0.54801  1.0000
  H   H2244     1.0  0.92302  0.62463  0.51563  1.0000
  H   H2245     1.0  0.88734  0.61403  0.52666  1.0000
  H   H2246     1.0  0.76163  0.81771  0.50993  1.0000
  C   C1268     1.0  0.79609  0.50505  0.55399  1.0000
  H   H2247     1.0  0.81602  0.53926  0.68437  1.0000
  C   C1269     1.0  0.75364  0.55095  0.55804  1.0000
  H   H2248     1.0  0.94661  0.50466  0.49309  1.0000
  H   H2249     1.0  0.94030  0.53847  0.61454  1.0000
  H   H2250     1.0  0.92671  0.56602  0.52481  1.0000
  H   H2251     1.0  0.84635  0.52623  0.70493  1.0000
  C   C1270     1.0  0.76342  0.65230  0.56534  1.0000
  H   H2252     1.0  0.95232  0.58253  0.62744  1.0000
  C   C1271     1.0  0.98890  0.53975  0.54077  1.0000
  H   H2253     1.0  0.87758  0.56378  0.62680  1.0000
  H   H2254     1.0  0.78400  0.50917  0.56602  1.0000
  H   H2255     1.0  0.95897  0.62137  0.56830  1.0000
  S   S282      1.0  0.75622  0.57637  0.52290  1.0000
  C   C1272     1.0  0.75344  0.63062  0.56932  1.0000
  C   C1273     1.0  0.94260  0.61878  0.56408  1.0000
  H   H2256     1.0  0.74942  0.49972  0.50625  1.0000
  C   C1274     1.0  0.93665  0.55052  0.57293  1.0000
  C   C1275     1.0  0.91679  0.57509  0.49362  1.0000
  H   H2257     1.0  0.90033  0.57730  0.49925  1.0000
  H   H2258     1.0  0.88275  0.52041  0.64564  1.0000
  H   H2259     1.0  0.75117  0.84305  0.50156  1.0000
  N   N72       1.0  0.93427  0.56406  0.59192  1.0000
  C   C1276     1.0  0.93523  0.51486  0.55645  1.0000
  C   C1277     1.0  0.87201  0.63130  0.50166  1.0000
  H   H2260     1.0  0.93921  0.59658  0.59866  1.0000
  C   C1278     1.0  0.75459  0.82674  0.49661  1.0000
  H   H2261     1.0  0.92574  0.52066  0.58825  1.0000
  H   H2262     1.0  0.82595  0.51779  0.54343  1.0000
  C   C1279     1.0  0.89852  0.54880  0.60379  1.0000
  H   H2263     1.0  0.83496  0.50399  0.73135  1.0000
  H   H2264     1.0  0.94765  0.58792  0.55222  1.0000
  H   H2265     1.0  0.77953  0.51955  0.52792  1.0000
  H   H2266     1.0  0.95316  0.52155  0.58317  1.0000
  C   C1280     1.0  0.78650  0.50376  0.53210  1.0000
  H   H2267     1.0  0.75089  0.53098  0.58593  1.0000
  Fe  Fe143     1.0  0.77048  0.64877  0.49251  1.0000
  C   C1281     1.0  0.94374  0.58505  0.58650  1.0000
  H   H2268     1.0  0.92394  0.55447  0.56186  1.0000
  H   H2269     1.0  0.78702  0.64832  0.58919  1.0000
  H   H2270     1.0  0.94440  0.55733  0.50426  1.0000
  H   H2271     1.0  0.97603  0.55408  0.64104  1.0000
  C   C1282     1.0  0.87666  0.55534  0.61194  1.0000
  H   H2272     1.0  0.92144  0.59379  0.56130  1.0000
  S   S283      1.0  0.75121  0.67785  0.50390  1.0000
  H   H2273     1.0  0.93757  0.49771  0.55944  1.0000
  H   H2274     1.0  0.91933  0.51791  0.55039  1.0000
  H   H2275     1.0  0.95906  0.56481  0.66129  1.0000
  H   H2276     1.0  0.79315  0.66710  0.56837  1.0000
  H   H2277     1.0  0.76335  0.65725  0.54857  1.0000
  H   H2278     1.0  0.84765  0.50263  0.76903  1.0000
  C   C1283     1.0  0.94601  0.56670  0.63031  1.0000
  H   H2279     1.0  0.96114  0.58369  0.58656  1.0000
  C   C1284     1.0  0.93809  0.59539  0.56491  1.0000
  H   H2280     1.0  0.92992  0.56827  0.63711  1.0000
  H   H2281     1.0  0.89644  0.53940  0.58975  1.0000
  H   H2282     1.0  0.90597  0.53887  0.61617  1.0000
  H   H2283     1.0  0.80559  0.53737  0.54885  1.0000
  H   H2284     1.0  0.95152  0.55391  0.56417  1.0000
  C   C1285     1.0  0.83124  0.53506  0.67655  1.0000
  S   S284      1.0  0.84692  0.62294  0.51046  1.0000
  H   H2285     1.0  0.90335  0.57631  0.58464  1.0000
  C   C1286     1.0  0.93772  0.52633  0.57681  1.0000
  H   H2286     1.0  0.84035  0.54950  0.67430  1.0000
  C   C1287     1.0  0.84345  0.51884  0.68988  1.0000
  C   C1288     1.0  0.95954  0.55560  0.64683  1.0000
  C   C1289     1.0  0.90982  0.63012  0.50668  1.0000
  S   S285      1.0  0.79078  0.50043  0.65583  1.0000
  C   C1290     1.0  0.92763  0.55963  0.50885  1.0000
  C   C1291     1.0  0.81246  0.52193  0.55399  1.0000
  H   H2287     1.0  0.82830  0.52896  0.66087  1.0000
  H   H2288     1.0  0.95367  0.53975  0.65090  1.0000
  H   H2289     1.0  0.84861  0.50347  0.64235  1.0000
  H   H2290     1.0  0.79987  0.50150  0.52091  1.0000
  H   H2291     1.0  0.76295  0.61872  0.56048  1.0000
  C   C1292     1.0  0.88237  0.50384  0.64279  1.0000
  Fe  Fe144     1.0  0.81423  0.62579  0.49685  1.0000
  H   H2292     1.0  0.75601  0.62652  0.58604  1.0000
  H   H2293     1.0  0.75499  0.66461  0.57444  1.0000
  C   C1293     1.0  0.83122  0.49825  0.69313  1.0000
  H   H2294     1.0  0.94702  0.51998  0.54441  1.0000
  S   S286      1.0  0.98341  0.50834  0.62292  1.0000
  H   H2295     1.0  0.81521  0.50267  0.69920  1.0000
  H   H2296     1.0  0.74744  0.50944  0.54245  1.0000
  H   H2297     1.0  0.74782  0.59117  0.58686  1.0000
  H   H2298     1.0  0.98376  0.53187  0.52722  1.0000
  C   C1294     1.0  0.86300  0.49427  0.64107  1.0000
  S   S287      1.0  0.98931  0.50133  0.56042  1.0000
  H   H2299     1.0  0.92445  0.59028  0.49434  1.0000
  H   H2300     1.0  0.74824  0.78531  0.49471  1.0000
  S   S288      1.0  0.74761  0.49380  0.63049  1.0000
  H   H2301     1.0  0.86195  0.49874  0.72550  1.0000
  H   H2302     1.0  0.98720  0.57008  0.52567  1.0000
  C   C1295     1.0  0.75224  0.49264  0.54472  1.0000
  H   H2303     1.0  0.82929  0.49231  0.67716  1.0000
  C   C1296     1.0  0.90124  0.49206  0.64103  1.0000
  H   H2304     1.0  0.74048  0.54442  0.55067  1.0000
