data_image0
_chemical_formula_structural       H2FeS2FeS2FeSFeHS2FeS2FeSCFeHFeS3H4S2FeHSHCSC7H3C4HCH2CHC6H4C6H6CH2CH5C3H5SC5HCH6C2H2C4NC5H10CH3CHCHCH5C3HCHCH2CH7FeH2C3H3CH3CHC2HNSH8CHCHC2H2CH3CH3C3HC2H2NHCH7NHC3HSCH4CH8SHCH4CHC4H2CH9CH2CHCH2CHC3HC2H2CHCH2CH4NH3CH2C3HCH6C2NH4SC3H5CNHCH3CH2CHCH2CH2CH5CH5C5HFeHCH6CSH5CHCH3SCNHC3SFeHNHFeH4SH3CFeH3C2H2FeSHFeS2FeSFeS3FeS2FeS2FeSFeS3H2CH5C9H4C3SCHC5H3C7HCHC6FeH3NH4C6H2CHC2HC4H4CNH2C2HSCH2NC9HC2H9CH17CH3FeH5SCHSHCHCHC2HSC4SHCH2C6SH3SHFeCHFeNHSHFeH2SCH5C2HCHC3H3SH4CHCH3SCHCH4S2H2CHC2H3CH3NC12H28NHC4HC3HSHCH7CHC2H8CH4FeH2NC12H28NH4C2H2SCH3C2H2SH2CH2C3HCH5CHFe2H13SH3FeHSH2N2HC2H3C2H2C2H4CHCH4C3HCH4SCHCHFeH3C2H2CHCHSCSCH4SHFeHC3H4SHC2HCNCHC2H4CHSC3H2C2FeHCHCH3CH6SHC3HCSHCNH6C2SCH9CH3C2HFeS2FeSHFeSFeS3FeS2FeS2FeSFeS3FeS2FeSFeSH2S2FeSHFeS2FeSFeHS2FeS2HFeS2NSHFeSHFeS2FeS2FeSFeS3C6H4C6H5C6H5C6H4C6H4CH3C6H4C2HC3H4C6H5CH9C2HCH3FeH2CHC3H3C2HC4H8CH4C3H2CH5CHCHSHCH4C2HCH4SH3NC11H25CHSH2CH2NC12H27NC10HCH14CH3CH3C2H5CHCHC2H2CH3CH2C2HCHNC4H2C5H7C3H9CH8C2H3C3H4CFeH2CH2C2HC2HCH6C2H2CNH3C2H5CHCHNCH2C2H2NH2C2H6CH3C3H10CH5FeC3H3CHCHC2HNH2C2H3CHC3H5CHCH5CNH2SHFeC2H4SH2CH6CH6SHC3H4CHCH7S2CHCH2CH2CH2FeCHCSHSH5CH2FeS2H5SCSHSHSCH2FeS2H2FeSHSFeS2FeS2FeSFeS3C7H3CH2C8HCH2C6H2C6H4CHC3H8SHCHCH2CH2CHFeCHFeC6SH3C6H4CSCHCSCH3CH4CHCH4SH7CHSCH6C2HC2HNC12H28SFeCH3C3H2CH3SH2NH2CHC2HNH2CH2NC9H23FeCHC2HCH5CNC10HCH22C3NH3FeHSH2CH5SH2CH4Fe2HC2FeCH2CH7CH5C2H4CH6SNC2HNCFeHC3HCHCHC2SH2CHCH4SH6C2HC2H3CHC2H4CH6C2H8C2FeS2CFeH3CHFeHS2CH2S2HFeS2FeS2FeSFeS3CFeS2FeS2H2FeCSCH2SHFeCSFeCH2CSCH3C3H4C2HC2H3C6H4C6H4C3HCHC2H2CHC4NCH3FeHC6H4C6H4C3H2CH2C2H2C2HC2HCH2SH3C2H2FeCH6CHCHCNH2C5H5C2HSH5FeHCH3FeHNC9H2CHCH15C2H5CH3CH2CH3CH2CHNC3HCH3CH2NH6CHC2H4C3SCHCHCSH5C2HSCHCNC7H2SH3C2HSH5FeHCNSHNC8HC3H16CHCH15CHCSHCHCH8CSFeCH2FeH2CH10CHNH2CSC2HCH2CHC2HCHCH4SH5NH10CSCH3C2H2SHCH2CHSFeSH4CH6CH4C2H2CHCH2CHCH7NCFeH4CSH4FeCH3SHCH2CSHCSCFeS2HFeS2HFeSHFeSCFeSFeSHFeS2FeS2FeSFeS3HNHSH2S2C2HC3HCH2C6H4C3HC2H2CHC6H4C4HCHFeHCSH2C6H2CHCS2CH3SC7H3C2H5C3HFeHCH2C2HCHC2H3CH4CHCSHSCH2CSH4CH2CH2CH6C3H7CHFeC2HC2H4SCHCHFeC2NHSCH2SCH4CHFeCH2C2HCSH3C2HCH2SH4CH2SH2SHCH4CH2NCH4CH2CNC12H30CH4CHCHCHSH3Fe2HCHFeH3CH3CHCFeH5N2C12H16FeH5CH5NC10HCH22C2H2CH2CHCNH2S2HC2HCH4CH3NH4C2HSNCH2FeH8CH2CH3SH5CH3CHSFeS2FeSFeS3FeS2FeSFeSFeS3C2SFeS2FeSC2SHCSH3C2FeHSHC2HCHSH2CH3C3H2C2H4C6SH3C2HC6H5CH2C6H4C3H5CHC6H4C6H8CH2CNC8HC3H17C2H9C2H3CH2CH5CH2CHCHNC12H30CH3C3H2SCHSCH2NCHC2H3NCH5CH7SH5CSH2FeC3H5CH4NC11H11CH6FeH6C2HNC5HC4SCH11FeH2CHCH2CSFeC2H3CSHC2FeC2HCH2CH2C2HFeNCH5FeCH4C2HC3SCH2C2HSCH2C2SH3CH6SCHCFeH2CHFeH2CH5SH6CH6C2HCH2CHCH8CH3C2HCHCH3C2H6C2NH8CSH5CH5C2SHNH7SHC2HC2H3Fe2S2NFeS2FeSFeSFeS2FeSFeS2FeSFeS3C3H3CHCHC2HCHSH4C6HCH3C6HNH2C2NHC9H4C6H4CH2CH5C6H6SHCHSHSCHC2S2H3CH3CH9CH3CHSC2HCH2C2HCH3CHS3H2CH3CHCH5SH8CH4CH4CH2NCHCHCH5CH3CH5FeHCNC6HC4H13C2H6CH5FeH9NC12H28SHC2HCHCH2CHCHSCHCHSHCH2NH2C3NHCFeC4H7SCH3C2HCH4FeHCH2FeSCH2FeH2CHCH2FeCH4CHCH2CHCH3CNFeC4HCHCH3C3H2CH2FeH8SCH2CSCHNHC2H2CNH2SH3C2H2CHFeCH2S2CHCHC3H3C2H4CHC2HCHCH4CHCH2CHCH2CSCH6CHC2H3CHSH2CH2CH6CH4CH9SC4HC2H5C3HFeS2FeS2FeSFeCS2FeS2FeS2FeSFeS3FeSHFeS2FeHFeS3FeS2FeHFeCFeS3FeS2FeS2FeSFeS3H2CHS2HFeHSFeS2C6H4C6H4C6H5C6H4C6H4SH2CHC6H5C3HC3H3C6H6C3HCH3CHCHCHSC2H3C2HCH4NC11H18CH5C5H11CH5C3H7CHNC10H26NCH2C5H3CFeH3C3HCNHC2HNC8H10CH8CHCSHCHCH3CSHC2HNH3CH9NCH12C4H6NC12H30CH10CHCH2CHCHCH7CH2SCH5C2H4C2H7CH2CHCH3NHCH4C2H4SH3CH4FeH2C3H5CHCH4C2H2SHCHCH2C2HCHCHCHCHC2H3NH4C4H3CHCSCHSCH3CHCH4CHCHCHCHCH2SNH4CH5CNCH5CH3C3SC2HCSHCH2SH2CH3FeS2FeCHCSCSH2SH2FeC2HS2HFeS2CH3SCHFeHCHSCHFeSCFeS2FeSH2SHFeS2FeS2FeSFeS3HC6H7C2H3C3NCH3C4H2C6H4SC6H4CH4CHNHCH2CH2C7H4C6H5SFeHSH2FeC2H6FeC2H4NC5H13NC12H29SC2H2SCS2HC3HCHCH2CH2C2H5CH4CH4C4H8C2HFeHCHFeH3C2H3SCH4CH3CH6CHSCH3C2HCHCHFeH4FeH4CHNH3C3H2C3H3C2H5C2H2CHC2HC2HC4H4CHCHCHCH5CH5SH2SH4NHC2HC2H2CNH6FeSHNC2H5C2HC2H2C3H2CH2C2H4CH2SCH4C2HC2SHCFeSCFeS2FeSFeS3FeS2FeSHFeSFeHSCH5S2HSC7HSH4CHSH3CHC3H2CH4C6H4C3H2C2H3CHCH6CH3CHCH2C6H6C2H7CHNHCHC2H7CH3CH5CHCH2CHC3HCH2CHFeHSHCHCH2C2H3CHCH2CHC2H10C5H10CHCH5CH3CH2CHNH2C4H4CHCHCH3NH7SCHCH4C3HC5H2NH2CH3CH4CH5CH4C2HCFeS2FeS2FeSFeS3FeS2FeS2FeSFeS4H3C2HC2HCH4C2SH2CH2C6H4C3H3C4H7C2HC2HSCHNC3HC4SH6SHCH3FeSCH3C2H6C5HCH2FeHCH5CHCFeCHFeH6C2SH2C3H5C2NHCH12NC12H16CH12CHCH2CH2CHCH6CHFeH3CH2CH2CH2CH2CH2CHCHC2H5CHCHCH2FeHCH2CHCHC2H9C2H2C2H5CH3NCH2C3HC4HCHNC2H6S2H3NH4NCH2CH2CH9CHCH8C2HNH4CHCHC2SCH2CH2C2HC2H3C2HC3H2C2H8CHCH2SCH2C2H2NH2CH2CH2CHCHCHCH2CH8CHCH2CHCH3CH4CH3C3HCH2CH7CH2CHCSCH6C2H2CFeHFeS2Fe2S3FeS2FeS2FeSFeS4FeSFeS3FeSFeSH4C3SHSHFeS2FeS2C6H7C4H2C6H4C6H4C2HC3HCH2C6H4C4H3C2HCHCHCH2NCH2C5FeH3CH8CHC3H9CSH2CH2SCSH6CH8FeHC2H2CHCH5CHCHC2HC4HCH3C3H8NC9SHCH19CFeHC2H6CHC3H8NFeHCH2C2SC4H7CH2C2H8CH5FeH3CHC2HC3H4CH3CHC5SH2C2HC4H2CH6NH4NC2HCHCHC3HCH2SH2C3H12FeH2NH2CH2CHCH3CH2CHCH3SH8CHC2HCHCH4NFeH10C2H4C2H5NHCHSHCHCH5CNCHC6HC3H3SH3CHCH7CH3CH8CH5C2HCHC2HCH3CH8S2C2H7CHCHCHC2SHCH2NHCH2C3HCH2NCH3SHCH5SFeS2H3CHFeSCFeS3FeSFeS2FeS2FeS2Fe2S3H2CHCHFeS2HCHFeSCHSC3H2C4H4CH2CH3CH4C6H4C6H4C6H4C4H5SH3C6H4C6H2CHCHSHFeH2CHCH2CH2C3HCH2SHSH2FeCHCHCH5CH3CNC2FeH4CH4C2H3CNCFeH2CH3CHNC2H3CH6SC2NHCH4NC12H32CH5CHC2HCH7C3H12C2HCHCSHCSHCHFeCHCHC2H2CH2CH5CH4CHC3H2SH6CFeHCH2SFeHC2H3SC3HCH3CH3CH3CH2CH2CH3CH4C3H4NH3C3HC2H10CH3CHCNCH10CH3NCHCH4CHCHCH4CH3C2HC2HCH2SH5CHCHCH2C3SC2H4CHSHS2H2CH3CHFeH3NFeH5C4HS2HC2HCH4CHCHCNH2SH2C5HCH2C2FeS2FeS2FeSFeS3HC2S2CFeHSHC2FeS2H3C2H6CHC6HCH2C6H4C2HFeC2H4C4H3C4H5CH3C3H4CFeHCH2SHCHNCH4NH4CSCH4CH2FeCH3C2H5CHCH5NC12H13SH7CH6CH3C4H2C4H2CH2SH7CHC2SH5CSCNC12H20FeCH15CNCHCH2CH2SCH4C2SCH4CHC2H4FeH10C4S2CSH3CH9CHSHC3H4SH2CSCH2CH2CH6CSHSHFeS2FeS2FeSFeS3HC2FeC4H2C7H9CHCH2C6H6CH5C6H4C6H6FeH3CHCH2CHCH2CH4NC12H28C5H4C2H10C3HSC2H2CHCH5FeH4CH5CH2FeHCSC3H3CSH4NH4C2HC2H2CHCHCH2CHSH2CH7C2H2CH2C3H5CH4S2H2SHFeH2CH3SHCNH3CHC2HCSHSCH3NSC4H12CHS2H7NHC6HC2HC2H2C2HCSH2FeHCH3CHFeCH2CFeS2CHFeCSCFeCHS2FeS2FeS2FeSFeS3CHSCFeSCH3SFeSH4CH2CH2SFeHFeH2CHCHC3SCH2SC6H4C6H4C6H4SH2C7H4C6H4C2H2C2H5CH4C3HCHSHCH2SH3C2FeCHCH4SH5CH8CH3C3H2CH2CHNH3C2HFe2CH4CH2CH2CH4C3NCHC2HNH10CHCH2CHSH2CHCH2SFeCHC2SNC7FeHC3H23CH10CHCHC2HCH2CHC2H3CH3CNCH8CH2CH4CHCSHC2S2CHCHNC12H21SH2CHFeH2C3H8SH2SH2C2H12CHCSCH3CHFeH2CHSC3H2SHFeH9CH5CH2CH2CHC3H4NCH3C2H2CHFeSH4CH2FeSHS2FeSCFeS2HCH2SHFeSHCHFeHSH2S2FeS2FeS2FeSFeS3H2C6H4C6H4SC6H6C6H4NC2H3C3SCH2C3NHC3HCH3CFeHC2H2CHC6H4CHFeH7CHCHNC12H20CH12CH2SCH4CSC2HCSH6SFeNH4CHCH3NC12H29CHCH2C3H3CH2SH2CNC2H2FeH3SH2SFeHCH2CHCH3CHC3H2CH3CH7CHC3SHCH5CHCH8NHCH3CHCH3FeHSC3HC2H2CH2C2HC2H4CHCHCHC4SH3CSCH2CNC2HC2SHFeSHSH4FeCSHCH5CH2C2NCHCHCHFeH5CH2CH9CNH6NCHC4HCSH3CHCHCHSH3CHCH3CH3CH5CFeH7CHCHSNCHCH3FeSHCH2CNHCHCFeH8C3H2CH2SHC2FeS2FeSCS2FeSFeS2FeSFeS5FeSFeSH2FeS2C2HC2H2CFeSHSFeS2FeS2C6H4C4H2C6H4C6H8C2HCH2C6H4CHC2HSC10SNHC4HCSCH2CHCHCH4C2H5CHCH2SH3NH6CH5CH4C2HCH2CH5CH2C5NC3H3NHSC3S2CHCH6C2H5NC12H32FeC2HCH2CH2CFeH3NC2HFeH3NHC9NC3H8C2H4CH5CH4CH2CH7C2FeH7C2NCHNC9HC2H32CH3CH3C2H2CH9C4H5C2HSHSCH4C2HC2H3CFeSHCHCH3C2H8CH2C2H3SC3H3FeHCHCHCHSH6FeH10CHS2HCH4CH2C2H2CH5CHCNSH3CH2FeHSH4C2H2CH2SHCH3CSH2C4H5CHCH7CH2CH4CHCH3NCNSHCSCFeS3FeCH3SHFeS2FeS2FeS3FeS2FeS2FeSFeS2H3FeS2FeSH2SH2CFeHCHC6H2CH2C2HCH2CH2CSH2C6H4C4HCH4C6H4C6H4CHSHC6H4C6H8SCH2SH8C2FeC3H2CHC2HCH2CH2CNC10HCH10SH11SC2H4SC2HCHFeCHC2H2CH2CHCH2CH5CH6C2H2NHCHCH3FeCHNC12H29SHFeCHCHCH3C4H6CHCH3FeSNC12H31SH4CH2C3H4SCH2C2H3CH2CH2CH5CNCHSCFeH2FeH7SC3H3CH2CHCH2CH4CH7CHCH4CH6CH2CH2CHCH2SCH3CSFeS2FeS2FeSFeCS2FeSHFeS2FeSFeS4HNHCSHCSHCFeSHSC8H2FeCHCSC6H4FeHC8H4C5H3C6HC2FeH5SCHFeC4H3C6H6CHC3H5FeNC2H3C2H2FeH5SH3CHSHC3HCH4C3SHNC12H35FeCH4FeHCHCH2SHSH4FeH3CSH2CHC3H4SHCSCH3CH3CHC2H3CH4CH3FeC2H2CH5NC2SHCH6CSH3S2C2HCH4CH8CHSH2CHC2SHC2HCH2CHSNC12H23C2HCH2FeH4CH3CH6CHFeH4SHCHC2H6C3H2NCHNC12H28NC4HC6H9SH7CH3C3H3CHCHS2H2C2FeS2FeS2FeSFeS3FeSCFeS2FeSFeS3FeS2FeHSFeHSFeS2C6H4C6H4C2FeHC2H4C2HC3H4C6H4C6HC5H6CHCH7CHCHCH2CHFeH2SCH2SCH2C3HNH5SC2H3CHNH2C3H11CH2CH4C2SCSC2H3CH4CHCH3CH2C3HNCH2C3HCHC2H25CNC12H30CH6C2HC2H3CH4C3H2CSCHCH3C3HNCH3CHCH6CNH2CH10CH4C6HCHC2HFeCHCH4SH2CH10FeCHSH5C4H7SCH2NH2CHN2H2CHCH4C2H2C2H2C3HCHNHCHC3H2CH3CH3CHCH2CH3CHCH2CHCH3CH5CH2CH3CH3CSH2SHC2H3CH2SFeHS2FeS2H2FeHSH3SHSFeS2FeS2FeCFeS3C3H2SCH2CH2FeS2H3FeSHFeSHC2HSH3S2C2H3C6H4C6H4C6H4CH2CH3FeH2CHCH4C6H4C6H6CH5CH2C2HCH5CHFeH3FeC5H2FeH3CHN2C12H29CHC3H3CH4CH2NH2C4H2CHNHCH5CH9CH3CH7FeCHC2H2SH4CH3CH2CHCHC2HC2H2SH6CHC2H2CHCH2SCHC2H2CHNC12H27CFeCHC2HC3HCSHC2NH7CH4C2HCH2CH2C2H3CH2CH3C2H2CFeHCN2H4CHCH3C2HC4H12SC3H6CH3SCH4FeSNFeS2Fe2S3FeSCFeS2FeSFeS2CFeS2FeS2FeSFeHS2FeS2FeSHFeSFeS3CH4NFeS2FeS2FeS2FeS2FeSFeS3HC7H4C6H4C2NH2CNHC3SH3C4H6CH2C8H4C6H4C6H4C6H4C6H2CH2CHCHCH3C2H2CHNC11H27NCH6CHCNC12H28C3H8CH2CH2CH3CHCHCHCH6CH8C2H2C3H2FeH5SCH3CH5NC7H16CNC10H24SHCHCH3CH2C2HSHCH2NC3HC2HC4H3CH4CH10CH16C3H3CHSCHCSH3C2FeH4CH2SCHCH2CHC2HNH6CH2SC2H2CH3CH2CH6CHC2H5CH2C2H3CHNHC3H2CHC5H3CHC4H2CHCH2CHCHSCH5C3H3CH3C2SH2CH2CHCFeS3HFeSHSHSH2C2H3CH2FeS3FeSFeS2FeS2FeS2Fe2S3H2CHC6H4C6H8C5H5C6H4C2HCHC2HCH2C8H8CHSH2CH4CHNH2SCHSHSH4FeSH3SH3CH3NC8HC3H15C2H9CH3CHNH3CH2CH4CHCH3SHCH7CNH6C2H3C2H3CHCH4C2H2C8H2S2H2NCH2CFeCHC3HCHC2NC4HSC3SC2H6NC3HCH6C3H7CH3CSNC6HC4H18FeH8CHNCHC4H2C3H13NHCH2FeC3HFeCH2CH2SHCH2SHC2H2C3H8CH3SC2H5CH2CH2C3H3Fe3H4CHSH2CH2SH4CH2FeHSH2CHC2H3CHCH3CH2FeH4CH7C3SH2FeSH4CHC3HNH2C2H7FeH8SHSH2CSCH3FeS2FeSFeSFeS2FeS2FeS2FeSFeS2HCSFeCSHCNCHCSHFeS3H2SCH5CHC6H4C4HCH2C8H5C4HC2SC4H2CHC7H6SHCHCHC2H3CH4C3HNC11H27C2HNH2NC9HCH21SH7FeH2CHFeH2CHCH2CH5CH3CHCH2C5H2CH3CH2CH4CH9SH2CH2CH5CH2CFeCHCH5C2H2CH3CH2CHNC10HCH22CH2FeHSNC5HCFeC2H2FeHC3HNCSH14CH3C5HCH2CH4C2HC2HCS2H2SH3CHCH10FeC2H5CHSH3SHC3HC3H2SHFeHCH4CH2CHC2H6CH2CH6SH4CH2C3HSH2CHCH6CHCH4C2HCNH2CHCNHNH3C5H2C5NHCFeHSCSCHSCFeNSFeS2FeHFeS3H2SH5CHC2HCH3C4H2CH3C6H4C2H2C2HCH2SCHCHC2HCH2CH7CSHCHC3H3S2H7CH6SCH2CH3CH2SHC2H4CH5C2HCHNC9SC2H8CH10CHFeH7SCH6C2H6CHC2H2CH3FeSH2CH2CHCHFeCH2NHNH5CH2CHCHC3SC2FeH2CH4CH2SH2NCHFeC3H2C2H2CH2C2SCHCHCH2SCH4SH3CHC2H2FeHC2SCHCH2SHCH2CHCHCH2C5H6C2SCHCHSH3C2H3FeCHSFeS2FeS2FeSFeS3HNCH2CH6C3H2CHCHC5H4C2H4CHCHFeHFeH2C2HC6H4C2H2CHC6H4C2H2C3S2H3CHSC2HNCH3CH2CHS2C3H2C2H6SH6CH2CH2CH4C4H7SHCH2C2HCH7C2H6CHFeH2SH3CH2NH7CSC4SH3CH3CHCH4C2FeCHC2H2CHC3HCSCH2CH5CH2C2H4SH3C3HCH3CH2NH4C3FeHFeSHSH2NC6H2C2H14FeH7C2HCH2S2CH4NC6H4CH3CH3CSH3CHC3H2CH4C2H7FeCNHC4H2CH5NH2CHFeSFeH3C2SFeHS2FeS2HC2HSH2CHCH4FeHSH3CH2FeS2FeS2FeSFeS3HSCFeS2FeSFeHSHCH2C6H4CFeHC3H4C7H4C6H2CHCHCH2CFeHC2HCSCH4NHC6H4C6H4C3H4C2H2FeC2H2NC12H19CHCH2FeH3SH6SHSHC2H7CH2SCH8NHC3HCH6CH5CH3C3H7NHNH4NC6H9C2H13CHCH6C2H2CHC2SCH4CH3C2SHCH2CH2CHCHNCHC3H4SHCH4NH3C4HCH5CH2CHCH10CHCHFeH3CHCHC2HCH5C3H2C3H3C2H6CHCH3SH2CH5C2H8SHC2H5C2SH2CH3C2H2C2HC2H2C5HCHCHSHCHSCHCSH4CH10SFeHC2HCS2HCH3C2FeSCFeS2FeCFeS3FeHFeHSFeSH2SHFeS2FeS2FeHFeS3FeS2FeSHFeSFeS3FeS2FeS2FeSFeS3CSHFeS2HC2HSH3C6H4C6H4CHC2HCHCNC4HC2H6CH2C6H4C6H9CH3NC6H4C7H4C6H5C2H2CH4CHCHCHCHC3HCFeCH3CH6C2H7SH4SHCH3NHCH5CSCH2CH4C2H3C3HC2HCNH7CH4NC12H28NC12H32C3HSCH4C3H6C3H3CH4CHC2H4CHC2H2CHCNCH3C3H9C3H7CH2SH9CHC3H4CH8C2H7C2HCSCFeH3C4H8CH3C3H2CSHSH4CH3CH2CH2CNCHCHCHNFeC3NHCH3C2H2CH5SH3CH2CHCH3CSH2SHCHCH6CSCHCH3CH2CHCH3CH7CH3FeHCHC4HCH11CH2FeS2FeS2FeSFeS3FeS2FeS2FeHFeS3HC2H2SC3HC3HC2HCHCH5CSHCNH3CH3C4H2C2HC6H7CHC3H5SCHFeH3CSH3SH3CH4CH6CH2C4SFeHNC12H31C3H4CHCHCH2CH5CH10SCHCH5CH3CH4SH4CSH3C2H2FeH2NH2C2NC9HCH20C2H2FeH3CNC5HFeC2HCSH6CHCH2C2H7C3HCHCHNC7H2CHSHCHCHFeHC3NH4C2HSHFeCHCH2CH2CH2C2SHCH2C2HCH2CHCHCH3CHC2H4C2H3SH2CHFeH2CH2CHC4H2CHC2H2CH2CH5CH2CH6C3H5C2H4C2SCH2CH4NCSHSHCH5CHSNH3CH3CH2CSH6C2HSHFeS2FeS2FeSFeS3FeSHFeS2FeSFeS3CH2NHCH4C6H4CH4CH3C7H2C8H5CH4CH7CH2C3H3CH2C2HC2H2NCHC3HC3HCH7CH6NCSH2CH3C2HCH2CH7CH4CH7CH3CHC3H8NC12H30CHSC3SH2C2H6C2HCHCH3C2H3C2SH5CHC2HCNC4H4CH2CH9C2HNC2HCH7C2H2C
_chemical_formula_sum              "H9216 Fe576 S1152 C5184 N288"
_cell_length_a       85.8632
_cell_length_b       85.8586
_cell_length_c       86.1144
_cell_angle_alpha    73.9732
_cell_angle_beta     73.9323
_cell_angle_gamma    73.9326

_space_group_name_H-M_alt    "P 1"
_space_group_IT_number       1

loop_
  _space_group_symop_operation_xyz
  'x, y, z'

loop_
  _atom_site_type_symbol
  _atom_site_label
  _atom_site_symmetry_multiplicity
  _atom_site_fract_x
  _atom_site_fract_y
  _atom_site_fract_z
  _atom_site_occupancy
  H   H1        1.0  0.22544  0.19825  0.44067  1.0000
  H   H2        1.0  0.19370  0.02680  0.17751  1.0000
  Fe  Fe1       1.0  0.07231  0.13906  0.26553  1.0000
  S   S1        1.0  0.04967  0.14995  0.28293  1.0000
  S   S2        1.0  0.08204  0.11144  0.27210  1.0000
  Fe  Fe2       1.0  0.07491  0.17239  0.24246  1.0000
  S   S3        1.0  0.05272  0.18572  0.25826  1.0000
  S   S4        1.0  0.08843  0.18688  0.21905  1.0000
  Fe  Fe3       1.0  0.06382  0.16965  0.27958  1.0000
  S   S5        1.0  0.06414  0.18154  0.29995  1.0000
  Fe  Fe4       1.0  0.04101  0.16472  0.25970  1.0000
  H   H3        1.0  0.09595  0.09206  0.20977  1.0000
  S   S6        1.0  0.08698  0.15772  0.26368  1.0000
  S   S7        1.0  0.06269  0.15240  0.24259  1.0000
  Fe  Fe5       1.0  0.18052  0.05030  0.27337  1.0000
  S   S8        1.0  0.18504  0.07110  0.25160  1.0000
  S   S9        1.0  0.17668  0.05796  0.29753  1.0000
  Fe  Fe6       1.0  0.18366  0.02593  0.25157  1.0000
  S   S10       1.0  0.18860  0.04535  0.22830  1.0000
  C   C1        1.0  0.23159  0.98306  0.21313  1.0000
  Fe  Fe7       1.0  0.20505  0.05194  0.24050  1.0000
  H   H4        1.0  0.22929  0.19634  0.46993  1.0000
  Fe  Fe8       1.0  0.16800  0.06274  0.24163  1.0000
  S   S11       1.0  0.15050  0.08297  0.22788  1.0000
  S   S12       1.0  0.20181  0.03142  0.26292  1.0000
  S   S13       1.0  0.16168  0.04306  0.26432  1.0000
  H   H5        1.0  0.02497  0.10937  0.20551  1.0000
  H   H6        1.0  0.98990  0.17458  0.23684  1.0000
  H   H7        1.0  0.21016  0.18237  0.99021  1.0000
  H   H8        1.0  0.21390  0.17275  0.30069  1.0000
  S   S14       1.0  0.21026  0.15445  0.27880  1.0000
  S   S15       1.0  0.21681  0.12128  0.31972  1.0000
  Fe  Fe9       1.0  0.13432  0.20976  0.31737  1.0000
  H   H9        1.0  0.21842  0.19341  0.36364  1.0000
  S   S16       1.0  0.12965  0.18454  0.31895  1.0000
  H   H10       1.0  0.21089  0.17524  0.34932  1.0000
  C   C2        1.0  0.21432  0.00878  0.19974  1.0000
  S   S17       1.0  0.15732  0.21196  0.32356  1.0000
  C   C3        1.0  0.20396  0.17550  0.27954  1.0000
  C   C4        1.0  0.20738  0.18128  0.29164  1.0000
  C   C5        1.0  0.20196  0.19810  0.29226  1.0000
  C   C6        1.0  0.19317  0.20915  0.28073  1.0000
  C   C7        1.0  0.18977  0.20340  0.26859  1.0000
  C   C8        1.0  0.19519  0.18657  0.26798  1.0000
  C   C9        1.0  0.22752  0.20151  0.35889  1.0000
  H   H11       1.0  0.20438  0.20252  0.30177  1.0000
  H   H12       1.0  0.18274  0.21192  0.25984  1.0000
  H   H13       1.0  0.19243  0.18211  0.25868  1.0000
  C   C10       1.0  0.19401  0.06364  0.29998  1.0000
  C   C11       1.0  0.19172  0.07516  0.30970  1.0000
  C   C12       1.0  0.20544  0.08003  0.31145  1.0000
  C   C13       1.0  0.22158  0.07273  0.30417  1.0000
  H   H14       1.0  0.21420  0.20578  0.07608  1.0000
  C   C14       1.0  0.21012  0.05670  0.29240  1.0000
  H   H15       1.0  0.17930  0.08048  0.31571  1.0000
  H   H16       1.0  0.23223  0.19944  0.97621  1.0000
  C   C15       1.0  0.19469  0.03359  0.18635  1.0000
  H   H17       1.0  0.21206  0.04768  0.28506  1.0000
  C   C16       1.0  0.08261  0.18215  0.30494  1.0000
  C   C17       1.0  0.08172  0.19254  0.31532  1.0000
  C   C18       1.0  0.09615  0.19375  0.31923  1.0000
  C   C19       1.0  0.11158  0.18423  0.31309  1.0000
  C   C20       1.0  0.11247  0.17358  0.30293  1.0000
  C   C21       1.0  0.09805  0.17264  0.29876  1.0000
  H   H18       1.0  0.06979  0.19971  0.32037  1.0000
  H   H19       1.0  0.09528  0.20180  0.32727  1.0000
  H   H20       1.0  0.12437  0.16620  0.29815  1.0000
  H   H21       1.0  0.09879  0.16454  0.29086  1.0000
  C   C22       1.0  0.10080  0.10371  0.25939  1.0000
  C   C23       1.0  0.10836  0.08687  0.26345  1.0000
  C   C24       1.0  0.12387  0.08054  0.25411  1.0000
  C   C25       1.0  0.13150  0.09087  0.24020  1.0000
  C   C26       1.0  0.12362  0.10759  0.23574  1.0000
  C   C27       1.0  0.10842  0.11410  0.24551  1.0000
  H   H22       1.0  0.10236  0.07875  0.27403  1.0000
  H   H23       1.0  0.12975  0.06757  0.25742  1.0000
  H   H24       1.0  0.12945  0.11557  0.22488  1.0000
  H   H25       1.0  0.10261  0.12712  0.24227  1.0000
  H   H26       1.0  0.05599  0.11670  0.25495  1.0000
  H   H27       1.0  0.04179  0.22415  0.13869  1.0000
  C   C28       1.0  0.22354  0.06190  0.19872  1.0000
  H   H28       1.0  0.04354  0.11875  0.21644  1.0000
  H   H29       1.0  0.14597  0.10472  0.30335  1.0000
  C   C29       1.0  0.00296  0.22012  0.18660  1.0000
  H   H30       1.0  0.21820  0.06468  0.17495  1.0000
  H   H31       1.0  0.21068  0.06577  0.20463  1.0000
  H   H32       1.0  0.00801  0.11438  0.25885  1.0000
  H   H33       1.0  0.16637  0.98650  0.28359  1.0000
  H   H34       1.0  0.23885  0.20048  0.27108  1.0000
  C   C30       1.0  0.07965  0.21538  0.19614  1.0000
  C   C31       1.0  0.07415  0.20294  0.20936  1.0000
  C   C32       1.0  0.05713  0.20376  0.21531  1.0000
  H   H35       1.0  0.08852  0.21949  0.23566  1.0000
  H   H36       1.0  0.12035  0.06735  0.22783  1.0000
  H   H37       1.0  0.09281  0.21466  0.19129  1.0000
  H   H38       1.0  0.05273  0.19389  0.22491  1.0000
  H   H39       1.0  0.22251  0.19542  0.09421  1.0000
  S   S18       1.0  0.18846  0.99960  0.24736  1.0000
  C   C33       1.0  0.13048  0.12602  0.31322  1.0000
  C   C34       1.0  0.22336  0.20569  0.04003  1.0000
  C   C35       1.0  0.21709  0.19211  0.04055  1.0000
  C   C36       1.0  0.20038  0.19442  0.04005  1.0000
  C   C37       1.0  0.20681  0.23070  0.33919  1.0000
  H   H40       1.0  0.19558  0.18400  0.04012  1.0000
  C   C38       1.0  0.14497  0.13233  0.25257  1.0000
  H   H41       1.0  0.21777  0.10869  0.20209  1.0000
  H   H42       1.0  0.16532  0.21596  0.99988  1.0000
  H   H43       1.0  0.23390  0.18649  0.26193  1.0000
  H   H44       1.0  0.23623  0.05482  0.28961  1.0000
  H   H45       1.0  0.18651  0.16267  0.31292  1.0000
  H   H46       1.0  0.15839  0.13574  0.36568  1.0000
  C   C39       1.0  0.15670  0.99403  0.25268  1.0000
  C   C40       1.0  0.17336  0.16167  0.31708  1.0000
  H   H47       1.0  0.22511  0.17989  0.04123  1.0000
  H   H48       1.0  0.11612  0.20378  0.23805  1.0000
  C   C41       1.0  0.04363  0.09790  0.27134  1.0000
  C   C42       1.0  0.99387  0.16145  0.24170  1.0000
  C   C43       1.0  0.21199  0.22175  0.09272  1.0000
  C   C44       1.0  0.17041  0.20730  0.97717  1.0000
  N   N1        1.0  0.17235  0.15351  0.34872  1.0000
  C   C45       1.0  0.17087  0.13867  0.36299  1.0000
  C   C46       1.0  0.18877  0.15805  0.34653  1.0000
  C   C47       1.0  0.18978  0.17653  0.33923  1.0000
  C   C48       1.0  0.18408  0.12243  0.36078  1.0000
  C   C49       1.0  0.20732  0.17887  0.33716  1.0000
  H   H49       1.0  0.20827  0.98731  0.14256  1.0000
  H   H50       1.0  0.18124  0.13761  0.33097  1.0000
  H   H51       1.0  0.17183  0.14156  0.37448  1.0000
  H   H52       1.0  0.19257  0.15475  0.35861  1.0000
  H   H53       1.0  0.19880  0.15049  0.33859  1.0000
  H   H54       1.0  0.18135  0.18462  0.34755  1.0000
  H   H55       1.0  0.18640  0.18113  0.32703  1.0000
  H   H56       1.0  0.16685  0.17165  0.37229  1.0000
  H   H57       1.0  0.19676  0.12485  0.35584  1.0000
  H   H58       1.0  0.18131  0.11652  0.35218  1.0000
  C   C50       1.0  0.01562  0.22327  0.14495  1.0000
  H   H59       1.0  0.21643  0.17117  0.32881  1.0000
  H   H60       1.0  0.07028  0.22604  0.10052  1.0000
  H   H61       1.0  0.15575  0.15563  0.30682  1.0000
  C   C51       1.0  0.21031  0.20600  0.99500  1.0000
  H   H62       1.0  0.14764  0.14492  0.24751  1.0000
  C   C52       1.0  0.14575  0.98413  0.25338  1.0000
  H   H63       1.0  0.18785  0.11460  0.38606  1.0000
  C   C53       1.0  0.19016  0.21036  0.03854  1.0000
  H   H64       1.0  0.13166  0.18992  0.36705  1.0000
  H   H65       1.0  0.14984  0.19877  0.36101  1.0000
  H   H66       1.0  0.14883  0.16275  0.37956  1.0000
  H   H67       1.0  0.00555  0.19047  0.21067  1.0000
  H   H68       1.0  0.00309  0.14574  0.28759  1.0000
  C   C54       1.0  0.05130  0.10633  0.25385  1.0000
  C   C55       1.0  0.06572  0.09389  0.24529  1.0000
  C   C56       1.0  0.23296  0.00378  0.12873  1.0000
  H   H69       1.0  0.22496  0.17207  0.46256  1.0000
  C   C57       1.0  0.00408  0.12752  0.25397  1.0000
  H   H70       1.0  0.16183  0.98558  0.30547  1.0000
  C   C58       1.0  0.22382  0.06087  0.29490  1.0000
  H   H71       1.0  0.20359  0.08897  0.31886  1.0000
  H   H72       1.0  0.00583  0.19578  0.18063  1.0000
  C   C59       1.0  0.01240  0.13880  0.25570  1.0000
  H   H73       1.0  0.22828  0.15866  0.24427  1.0000
  H   H74       1.0  0.06085  0.12560  0.22600  1.0000
  H   H75       1.0  0.06154  0.08214  0.24746  1.0000
  H   H76       1.0  0.11729  0.17147  0.26489  1.0000
  H   H77       1.0  0.14515  0.10473  0.27725  1.0000
  H   H78       1.0  0.00251  0.14819  0.30783  1.0000
  H   H79       1.0  0.21210  0.03496  0.19914  1.0000
  Fe  Fe10      1.0  0.22620  0.13884  0.29656  1.0000
  H   H80       1.0  0.03939  0.08970  0.20471  1.0000
  H   H81       1.0  0.18242  0.19965  0.97995  1.0000
  C   C60       1.0  0.09373  0.07076  0.22987  1.0000
  C   C61       1.0  0.09201  0.23044  0.28557  1.0000
  C   C62       1.0  0.09310  0.11874  0.31329  1.0000
  H   H82       1.0  0.02413  0.17922  0.19931  1.0000
  H   H83       1.0  0.19416  0.18874  0.00732  1.0000
  H   H84       1.0  0.99280  0.21888  0.19790  1.0000
  C   C63       1.0  0.03832  0.10307  0.20399  1.0000
  H   H85       1.0  0.21527  0.18073  0.00971  1.0000
  H   H86       1.0  0.10952  0.20311  0.27148  1.0000
  H   H87       1.0  0.23694  0.10374  0.01746  1.0000
  C   C64       1.0  0.16899  0.15644  0.30350  1.0000
  H   H88       1.0  0.22079  0.01137  0.22647  1.0000
  C   C65       1.0  0.23883  0.13397  0.23897  1.0000
  C   C66       1.0  0.12878  0.06166  0.30237  1.0000
  H   H89       1.0  0.13980  0.13590  0.32844  1.0000
  N   N2        1.0  0.23091  0.00109  0.20444  1.0000
  S   S19       1.0  0.23062  0.05688  0.22905  1.0000
  H   H90       1.0  0.11376  0.04883  0.22899  1.0000
  H   H91       1.0  0.23002  0.15363  0.37875  1.0000
  H   H92       1.0  0.17091  0.16588  0.29178  1.0000
  H   H93       1.0  0.15936  0.14493  0.33572  1.0000
  H   H94       1.0  0.15554  0.12190  0.31693  1.0000
  H   H95       1.0  0.22533  0.98222  0.22648  1.0000
  H   H96       1.0  0.10836  0.13505  0.29578  1.0000
  H   H97       1.0  0.20031  0.20113  0.09601  1.0000
  C   C67       1.0  0.13249  0.10949  0.30807  1.0000
  H   H98       1.0  0.14269  0.13432  0.27728  1.0000
  C   C68       1.0  0.06367  0.09600  0.21642  1.0000
  H   H99       1.0  0.03251  0.21832  0.21413  1.0000
  C   C69       1.0  0.10999  0.19562  0.24907  1.0000
  C   C70       1.0  0.10087  0.20481  0.26338  1.0000
  H   H100      1.0  0.23385  0.16836  0.44202  1.0000
  H   H101      1.0  0.04131  0.11188  0.24695  1.0000
  C   C71       1.0  0.12309  0.18031  0.25433  1.0000
  H   H102      1.0  0.12338  0.14013  0.27043  1.0000
  H   H103      1.0  0.08029  0.11978  0.23149  1.0000
  H   H104      1.0  0.11501  0.06449  0.21007  1.0000
  C   C72       1.0  0.23455  0.15289  0.23346  1.0000
  H   H105      1.0  0.09875  0.11369  0.32428  1.0000
  H   H106      1.0  0.07418  0.14007  0.30511  1.0000
  H   H107      1.0  0.08676  0.14860  0.18966  1.0000
  C   C73       1.0  0.23688  0.19146  0.44523  1.0000
  C   C74       1.0  0.15491  0.17188  0.36952  1.0000
  C   C75       1.0  0.17136  0.14862  0.33353  1.0000
  H   H108      1.0  0.10080  0.19143  0.24520  1.0000
  C   C76       1.0  0.19635  0.22377  0.03863  1.0000
  C   C77       1.0  0.12858  0.22737  0.19423  1.0000
  H   H109      1.0  0.19334  0.09814  0.37507  1.0000
  H   H110      1.0  0.06351  0.08259  0.21955  1.0000
  N   N3        1.0  0.09301  0.22288  0.25800  1.0000
  H   H111      1.0  0.12923  0.10045  0.31988  1.0000
  C   C78       1.0  0.09077  0.08990  0.22336  1.0000
  H   H112      1.0  0.06973  0.13097  0.32694  1.0000
  H   H113      1.0  0.13286  0.18388  0.25795  1.0000
  H   H114      1.0  0.17678  0.19107  0.38464  1.0000
  H   H115      1.0  0.12897  0.17398  0.24384  1.0000
  H   H116      1.0  0.21928  0.98470  0.15796  1.0000
  H   H117      1.0  0.08811  0.14545  0.21082  1.0000
  H   H118      1.0  0.02251  0.13443  0.26208  1.0000
  N   N4        1.0  0.22423  0.10859  0.24912  1.0000
  H   H119      1.0  0.23610  0.19763  0.99582  1.0000
  C   C79       1.0  0.22290  0.12696  0.24724  1.0000
  C   C80       1.0  0.21088  0.10324  0.26383  1.0000
  C   C81       1.0  0.22120  0.10518  0.23405  1.0000
  H   H120      1.0  0.20413  0.00750  0.21104  1.0000
  S   S20       1.0  0.17034  0.21386  0.03472  1.0000
  C   C82       1.0  0.19293  0.11382  0.26388  1.0000
  H   H121      1.0  0.23107  0.00915  0.13964  1.0000
  H   H122      1.0  0.20930  0.21867  0.33549  1.0000
  H   H123      1.0  0.22225  0.00952  0.12267  1.0000
  H   H124      1.0  0.23594  0.01487  0.24586  1.0000
  C   C83       1.0  0.18087  0.10795  0.27979  1.0000
  H   H125      1.0  0.21891  0.13017  0.25964  1.0000
  H   H126      1.0  0.08584  0.06525  0.22563  1.0000
  H   H127      1.0  0.21296  0.13434  0.24047  1.0000
  H   H128      1.0  0.23345  0.00087  0.17075  1.0000
  H   H129      1.0  0.21399  0.10332  0.27557  1.0000
  H   H130      1.0  0.21017  0.09023  0.26490  1.0000
  H   H131      1.0  0.22084  0.09187  0.23612  1.0000
  H   H132      1.0  0.20875  0.11217  0.23185  1.0000
  S   S21       1.0  0.22802  0.13673  0.35492  1.0000
  H   H133      1.0  0.07286  0.21511  0.25359  1.0000
  C   C84       1.0  0.23238  0.01015  0.21660  1.0000
  H   H134      1.0  0.23337  0.09004  0.20657  1.0000
  H   H135      1.0  0.18835  0.11285  0.25342  1.0000
  H   H136      1.0  0.19221  0.12711  0.26310  1.0000
  H   H137      1.0  0.23171  0.20266  0.34529  1.0000
  C   C85       1.0  0.19071  0.21790  0.36546  1.0000
  H   H138      1.0  0.20646  0.21176  0.00586  1.0000
  C   C86       1.0  0.06808  0.22892  0.18938  1.0000
  C   C87       1.0  0.04565  0.21746  0.20894  1.0000
  C   C88       1.0  0.23076  0.10377  0.20373  1.0000
  C   C89       1.0  0.23174  0.12297  0.03061  1.0000
  H   H139      1.0  0.12211  0.22511  0.26629  1.0000
  H   H140      1.0  0.19306  0.20728  0.35945  1.0000
  C   C90       1.0  0.21220  0.20502  0.08957  1.0000
  H   H141      1.0  0.19895  0.23113  0.30984  1.0000
  H   H142      1.0  0.18501  0.10837  0.29077  1.0000
  H   H143      1.0  0.16845  0.11625  0.27990  1.0000
  H   H144      1.0  0.17982  0.09514  0.28055  1.0000
  H   H145      1.0  0.09881  0.09436  0.22862  1.0000
  H   H146      1.0  0.16211  0.21019  0.38795  1.0000
  H   H147      1.0  0.20634  0.21271  0.46037  1.0000
  H   H148      1.0  0.09478  0.11890  0.20183  1.0000
  H   H149      1.0  0.13266  0.98786  0.25868  1.0000
  C   C91       1.0  0.08102  0.14359  0.20270  1.0000
  H   H150      1.0  0.02481  0.20320  0.17560  1.0000
  H   H151      1.0  0.14589  0.16404  0.35249  1.0000
  C   C92       1.0  0.08153  0.12514  0.20513  1.0000
  H   H152      1.0  0.23371  0.02308  0.21039  1.0000
  C   C93       1.0  0.14370  0.18908  0.37002  1.0000
  H   H153      1.0  0.12366  0.05938  0.31594  1.0000
  H   H154      1.0  0.07545  0.09089  0.25260  1.0000
  C   C94       1.0  0.01285  0.20244  0.18464  1.0000
  H   H155      1.0  0.07486  0.12398  0.19630  1.0000
  C   C95       1.0  0.99729  0.15388  0.29660  1.0000
  C   C96       1.0  0.22781  0.06141  0.18190  1.0000
  C   C97       1.0  0.20736  0.18835  0.00087  1.0000
  H   H156      1.0  0.11942  0.06116  0.29594  1.0000
  C   C98       1.0  0.07346  0.11772  0.22321  1.0000
  C   C99       1.0  0.23566  0.17329  0.45189  1.0000
  H   H157      1.0  0.15203  0.00527  0.25741  1.0000
  H   H158      1.0  0.17704  0.14430  0.30137  1.0000
  C   C100      1.0  0.07973  0.13429  0.31613  1.0000
  H   H159      1.0  0.05325  0.09242  0.27886  1.0000
  C   C101      1.0  0.22879  0.20592  0.98664  1.0000
  H   H160      1.0  0.14091  0.11389  0.33508  1.0000
  H   H161      1.0  0.20207  0.21304  0.98637  1.0000
  C   C102      1.0  0.18417  0.10976  0.37721  1.0000
  H   H162      1.0  0.09107  0.06750  0.24361  1.0000
  H   H163      1.0  0.19302  0.04701  0.18040  1.0000
  H   H164      1.0  0.03762  0.09991  0.22958  1.0000
  H   H165      1.0  0.22125  0.02945  0.17933  1.0000
  N   N5        1.0  0.23340  0.22265  0.98091  1.0000
  H   H166      1.0  0.02479  0.19740  0.20539  1.0000
  H   H167      1.0  0.23417  0.07401  0.26074  1.0000
  H   H168      1.0  0.13268  0.13627  0.30243  1.0000
  C   C103      1.0  0.23589  0.05741  0.20779  1.0000
  H   H169      1.0  0.17173  0.10679  0.38268  1.0000
  H   H170      1.0  0.06800  0.15073  0.20547  1.0000
  C   C104      1.0  0.13258  0.11307  0.27828  1.0000
  C   C105      1.0  0.13532  0.13093  0.27054  1.0000
  C   C106      1.0  0.11862  0.09293  0.29934  1.0000
  H   H171      1.0  0.01183  0.22568  0.18946  1.0000
  C   C107      1.0  0.10636  0.12249  0.29717  1.0000
  H   H172      1.0  0.18461  0.03202  0.19761  1.0000
  H   H173      1.0  0.16545  0.17406  0.31819  1.0000
  H   H174      1.0  0.18486  0.22116  0.39116  1.0000
  H   H175      1.0  0.13931  0.07969  0.28269  1.0000
  H   H176      1.0  0.04503  0.10871  0.19159  1.0000
  H   H177      1.0  0.14340  0.07823  0.30255  1.0000
  C   C108      1.0  0.11181  0.06241  0.22379  1.0000
  C   C109      1.0  0.21167  0.02733  0.19090  1.0000
  N   N6        1.0  0.12258  0.10983  0.29586  1.0000
  H   H178      1.0  0.21865  0.21781  0.37650  1.0000
  H   H179      1.0  0.14124  0.19160  0.38255  1.0000
  H   H180      1.0  0.03781  0.08802  0.27090  1.0000
  H   H181      1.0  0.17217  0.19696  0.40424  1.0000
  S   S22       1.0  0.01542  0.17067  0.25391  1.0000
  C   C110      1.0  0.23500  0.98493  0.13382  1.0000
  C   C111      1.0  0.23354  0.10989  0.21759  1.0000
  C   C112      1.0  0.13376  0.07844  0.29614  1.0000
  H   H182      1.0  0.10978  0.09325  0.29190  1.0000
  H   H183      1.0  0.10062  0.12372  0.28666  1.0000
  H   H184      1.0  0.08688  0.10937  0.31234  1.0000
  H   H185      1.0  0.15815  0.17870  0.34277  1.0000
  H   H186      1.0  0.13756  0.13032  0.24485  1.0000
  C   C113      1.0  0.15756  0.16731  0.35260  1.0000
  N   N7        1.0  0.07301  0.09957  0.22708  1.0000
  H   H187      1.0  0.11775  0.12981  0.32052  1.0000
  C   C114      1.0  0.04526  0.10524  0.21762  1.0000
  H   H188      1.0  0.11211  0.08937  0.31247  1.0000
  H   H189      1.0  0.03392  0.10717  0.27751  1.0000
  H   H190      1.0  0.08507  0.14348  0.31867  1.0000
  C   C115      1.0  0.03141  0.22670  0.13237  1.0000
  H   H191      1.0  0.12657  0.10997  0.26995  1.0000
  H   H192      1.0  0.01817  0.21006  0.15132  1.0000
  C   C116      1.0  0.14249  0.12422  0.32407  1.0000
  H   H193      1.0  0.21205  0.00217  0.19149  1.0000
  C   C117      1.0  0.01704  0.19180  0.20102  1.0000
  H   H194      1.0  0.07027  0.09842  0.20320  1.0000
  H   H195      1.0  0.09117  0.19793  0.27129  1.0000
  C   C118      1.0  0.99042  0.13321  0.24633  1.0000
  H   H196      1.0  0.13991  0.05164  0.29980  1.0000
  H   H197      1.0  0.00055  0.16620  0.29115  1.0000
  C   C119      1.0  0.00712  0.15585  0.24981  1.0000
  H   H198      1.0  0.15695  0.12305  0.25168  1.0000
  H   H199      1.0  0.22630  0.15677  0.22452  1.0000
  H   H200      1.0  0.21929  0.12052  0.03725  1.0000
  H   H201      1.0  0.16101  0.19953  0.98219  1.0000
  H   H202      1.0  0.20783  0.19207  0.33169  1.0000
  C   C120      1.0  0.18808  0.21100  0.38443  1.0000
  H   H203      1.0  0.23685  0.12690  0.03907  1.0000
  H   H204      1.0  0.03498  0.21856  0.12336  1.0000
  H   H205      1.0  0.17364  0.23002  0.98163  1.0000
  H   H206      1.0  0.23859  0.18921  0.38021  1.0000
  H   H207      1.0  0.19938  0.20211  0.38780  1.0000
  C   C121      1.0  0.17391  0.20174  0.39064  1.0000
  C   C122      1.0  0.22003  0.21894  0.36301  1.0000
  C   C123      1.0  0.17375  0.98895  0.24655  1.0000
  C   C124      1.0  0.21285  0.22139  0.03960  1.0000
  C   C125      1.0  0.23232  0.22898  0.99596  1.0000
  H   H208      1.0  0.00602  0.22504  0.13788  1.0000
  Fe  Fe11      1.0  0.23434  0.12823  0.33078  1.0000
  H   H209      1.0  0.23164  0.12360  0.21362  1.0000
  C   C126      1.0  0.16513  0.22127  0.98660  1.0000
  H   H210      1.0  0.23029  0.13326  0.01962  1.0000
  H   H211      1.0  0.21090  0.22014  0.10619  1.0000
  H   H212      1.0  0.07321  0.22166  0.27995  1.0000
  H   H213      1.0  0.13016  0.21626  0.24856  1.0000
  H   H214      1.0  0.09979  0.21827  0.29012  1.0000
  H   H215      1.0  0.22417  0.22481  0.08638  1.0000
  C   C127      1.0  0.08140  0.22379  0.24722  1.0000
  S   S23       1.0  0.18532  0.22984  0.28231  1.0000
  H   H216      1.0  0.20592  0.22931  0.46961  1.0000
  H   H217      1.0  0.99038  0.21180  0.16416  1.0000
  H   H218      1.0  0.22973  0.22634  0.35693  1.0000
  H   H219      1.0  0.13592  0.21967  0.18510  1.0000
  H   H220      1.0  0.17851  0.22555  0.36313  1.0000
  C   C128      1.0  0.20788  0.22566  0.45770  1.0000
  H   H221      1.0  0.07091  0.22844  0.30664  1.0000
  C   C129      1.0  0.05107  0.23011  0.19608  1.0000
  H   H222      1.0  0.11594  0.22470  0.19858  1.0000
  H   H223      1.0  0.15230  0.22822  0.98578  1.0000
  H   H224      1.0  0.22607  0.22532  0.43439  1.0000
  S   S24       1.0  0.13912  0.22634  0.29227  1.0000
  C   C130      1.0  0.08258  0.22936  0.27312  1.0000
  N   N8        1.0  0.20394  0.22792  0.35776  1.0000
  H   H225      1.0  0.13470  0.22375  0.20490  1.0000
  C   C131      1.0  0.12298  0.22777  0.25283  1.0000
  C   C132      1.0  0.22523  0.22754  0.44679  1.0000
  C   C133      1.0  0.23796  0.22902  0.39668  1.0000
  S   S25       1.0  0.11780  0.23003  0.33004  1.0000
  Fe  Fe12      1.0  0.16047  0.23042  0.29955  1.0000
  H   H226      1.0  0.21921  0.23171  0.00289  1.0000
  N   N9        1.0  0.99590  0.23128  0.17207  1.0000
  H   H227      1.0  0.23898  0.21923  0.00487  1.0000
  Fe  Fe13      1.0  0.23912  0.10272  0.31020  1.0000
  H   H228      1.0  0.17974  0.12581  0.66089  1.0000
  H   H229      1.0  0.06684  0.12864  0.76920  1.0000
  H   H230      1.0  0.14310  0.16906  0.93995  1.0000
  H   H231      1.0  0.99393  0.09367  0.73988  1.0000
  S   S26       1.0  0.19835  0.16127  0.90354  1.0000
  H   H232      1.0  0.23219  0.16365  0.57342  1.0000
  H   H233      1.0  0.16577  0.09112  0.63400  1.0000
  H   H234      1.0  0.01317  0.11140  0.65990  1.0000
  C   C134      1.0  0.22886  0.03658  0.71642  1.0000
  Fe  Fe14      1.0  0.14415  0.21624  0.63833  1.0000
  H   H235      1.0  0.20770  0.22547  0.62628  1.0000
  H   H236      1.0  0.99676  0.11477  0.79974  1.0000
  H   H237      1.0  0.14028  0.09487  0.65913  1.0000
  C   C135      1.0  0.18081  0.08019  0.68658  1.0000
  C   C136      1.0  0.15030  0.20074  0.57888  1.0000
  H   H238      1.0  0.16449  0.21545  0.88711  1.0000
  H   H239      1.0  0.19352  0.08076  0.67904  1.0000
  Fe  Fe15      1.0  0.15598  0.99260  0.71950  1.0000
  S   S27       1.0  0.13418  0.01099  0.73032  1.0000
  H   H240      1.0  0.15645  0.15981  0.66238  1.0000
  Fe  Fe16      1.0  0.17804  0.01783  0.70529  1.0000
  S   S28       1.0  0.15820  0.03841  0.71426  1.0000
  S   S29       1.0  0.20379  0.02196  0.69365  1.0000
  Fe  Fe17      1.0  0.15313  0.01953  0.73773  1.0000
  S   S30       1.0  0.15054  0.02492  0.76259  1.0000
  Fe  Fe18      1.0  0.14112  0.02843  0.70595  1.0000
  S   S31       1.0  0.12391  0.04699  0.69070  1.0000
  S   S32       1.0  0.17424  0.99956  0.72933  1.0000
  S   S33       1.0  0.16164  0.00944  0.69454  1.0000
  Fe  Fe19      1.0  0.03271  0.14539  0.72152  1.0000
  S   S34       1.0  0.03240  0.15654  0.69480  1.0000
  S   S35       1.0  0.02275  0.16165  0.73999  1.0000
  Fe  Fe20      1.0  0.04766  0.11082  0.71552  1.0000
  S   S36       1.0  0.04875  0.11898  0.68823  1.0000
  S   S37       1.0  0.05603  0.08448  0.72874  1.0000
  Fe  Fe21      1.0  0.05789  0.14049  0.68991  1.0000
  S   S38       1.0  0.08071  0.14845  0.67269  1.0000
  Fe  Fe22      1.0  0.02311  0.13424  0.69566  1.0000
  S   S39       1.0  0.00257  0.13790  0.68241  1.0000
  S   S40       1.0  0.05894  0.13095  0.71665  1.0000
  S   S41       1.0  0.02127  0.12448  0.72292  1.0000
  H   H241      1.0  0.16514  0.18148  0.96446  1.0000
  H   H242      1.0  0.15175  0.16258  0.95814  1.0000
  C   C137      1.0  0.14786  0.22861  0.81804  1.0000
  H   H243      1.0  0.01047  0.08735  0.75084  1.0000
  H   H244      1.0  0.16794  0.08702  0.66005  1.0000
  H   H245      1.0  0.15595  0.09470  0.68876  1.0000
  H   H246      1.0  0.16246  0.98554  0.67516  1.0000
  H   H247      1.0  0.20202  0.19761  0.94870  1.0000
  C   C138      1.0  0.18955  0.05526  0.65415  1.0000
  C   C139      1.0  0.18354  0.04040  0.77743  1.0000
  C   C140      1.0  0.16882  0.13537  0.65763  1.0000
  C   C141      1.0  0.10498  0.05701  0.70149  1.0000
  C   C142      1.0  0.09750  0.04961  0.71743  1.0000
  C   C143      1.0  0.08223  0.05797  0.72560  1.0000
  C   C144      1.0  0.07477  0.07395  0.71810  1.0000
  C   C145      1.0  0.08235  0.08137  0.70224  1.0000
  C   C146      1.0  0.09722  0.07275  0.69383  1.0000
  H   H248      1.0  0.10332  0.03735  0.72330  1.0000
  H   H249      1.0  0.07627  0.05211  0.73778  1.0000
  H   H250      1.0  0.07677  0.09370  0.69637  1.0000
  H   H251      1.0  0.10291  0.07835  0.68143  1.0000
  C   C147      1.0  0.21598  0.05928  0.65539  1.0000
  C   C148      1.0  0.21650  0.04623  0.66942  1.0000
  C   C149      1.0  0.20338  0.03794  0.67594  1.0000
  S   S42       1.0  0.02869  0.22632  0.78742  1.0000
  C   C150      1.0  0.99785  0.13762  0.78017  1.0000
  H   H252      1.0  0.18487  0.22377  0.54320  1.0000
  C   C151      1.0  0.19080  0.22823  0.90375  1.0000
  C   C152      1.0  0.09691  0.19134  0.65792  1.0000
  C   C153      1.0  0.09625  0.17453  0.66138  1.0000
  C   C154      1.0  0.08118  0.16956  0.66886  1.0000
  C   C155      1.0  0.06681  0.18144  0.67310  1.0000
  H   H253      1.0  0.21004  0.02381  0.73174  1.0000
  H   H254      1.0  0.10742  0.16540  0.65811  1.0000
  H   H255      1.0  0.05515  0.17776  0.67887  1.0000
  C   C156      1.0  0.17317  0.18244  0.63255  1.0000
  C   C157      1.0  0.16431  0.18154  0.62155  1.0000
  C   C158      1.0  0.17192  0.17177  0.60973  1.0000
  C   C159      1.0  0.18855  0.16351  0.60851  1.0000
  C   C160      1.0  0.19703  0.16372  0.62013  1.0000
  C   C161      1.0  0.18925  0.17294  0.63228  1.0000
  C   C162      1.0  0.08243  0.20329  0.66170  1.0000
  H   H256      1.0  0.16508  0.17090  0.60129  1.0000
  C   C163      1.0  0.01080  0.20354  0.80800  1.0000
  H   H257      1.0  0.19581  0.17287  0.64134  1.0000
  C   C164      1.0  0.05748  0.15297  0.77463  1.0000
  C   C165      1.0  0.05815  0.14039  0.76688  1.0000
  C   C166      1.0  0.04754  0.14299  0.75616  1.0000
  C   C167      1.0  0.03637  0.15824  0.75307  1.0000
  C   C168      1.0  0.03567  0.17076  0.76090  1.0000
  C   C169      1.0  0.04605  0.16806  0.77181  1.0000
  Fe  Fe23      1.0  0.21853  0.09707  0.62408  1.0000
  H   H258      1.0  0.04777  0.13307  0.75060  1.0000
  H   H259      1.0  0.02697  0.18255  0.75867  1.0000
  H   H260      1.0  0.04490  0.17755  0.77833  1.0000
  N   N10       1.0  0.15496  0.11282  0.65603  1.0000
  H   H261      1.0  0.17917  0.05862  0.64818  1.0000
  H   H262      1.0  0.00827  0.09505  0.78084  1.0000
  H   H263      1.0  0.13822  0.20833  0.57612  1.0000
  H   H264      1.0  0.14455  0.20211  0.85723  1.0000
  C   C170      1.0  0.19461  0.18052  0.89000  1.0000
  C   C171      1.0  0.20622  0.18511  0.87552  1.0000
  C   C172      1.0  0.20218  0.20048  0.86463  1.0000
  C   C173      1.0  0.18684  0.21133  0.86859  1.0000
  C   C174      1.0  0.17580  0.20690  0.88345  1.0000
  C   C175      1.0  0.17941  0.19137  0.89383  1.0000
  H   H265      1.0  0.21802  0.17667  0.87250  1.0000
  H   H266      1.0  0.21074  0.20384  0.85309  1.0000
  C   C176      1.0  0.21779  0.16808  0.94113  1.0000
  H   H267      1.0  0.17037  0.18782  0.90491  1.0000
  C   C177      1.0  0.18950  0.05175  0.76337  1.0000
  C   C178      1.0  0.16833  0.09597  0.68103  1.0000
  H   H268      1.0  0.01064  0.11207  0.76321  1.0000
  C   C179      1.0  0.16544  0.03537  0.76283  1.0000
  C   C180      1.0  0.17144  0.04670  0.74878  1.0000
  C   C181      1.0  0.18321  0.05507  0.74914  1.0000
  C   C182      1.0  0.17129  0.03249  0.77726  1.0000
  H   H269      1.0  0.16679  0.04933  0.73773  1.0000
  H   H270      1.0  0.18751  0.06404  0.73834  1.0000
  H   H271      1.0  0.15219  0.19539  0.93218  1.0000
  H   H272      1.0  0.21706  0.16105  0.95416  1.0000
  C   C183      1.0  0.21176  0.19485  0.56598  1.0000
  N   N11       1.0  0.17618  0.20159  0.94777  1.0000
  H   H273      1.0  0.18105  0.10097  0.65529  1.0000
  H   H274      1.0  0.21635  0.03500  0.74233  1.0000
  C   C184      1.0  0.03053  0.08981  0.67045  1.0000
  C   C185      1.0  0.20529  0.00127  0.75784  1.0000
  H   H275      1.0  0.14323  0.21616  0.78378  1.0000
  S   S43       1.0  0.16464  0.19557  0.64648  1.0000
  C   C186      1.0  0.16619  0.14918  0.66666  1.0000
  H   H276      1.0  0.99988  0.07218  0.75020  1.0000
  H   H277      1.0  0.13018  0.22801  0.84186  1.0000
  N   N12       1.0  0.17844  0.13461  0.87780  1.0000
  C   C187      1.0  0.16164  0.14635  0.87831  1.0000
  C   C188      1.0  0.17947  0.12166  0.86856  1.0000
  C   C189      1.0  0.18032  0.12686  0.89539  1.0000
  C   C190      1.0  0.19226  0.14365  0.86903  1.0000
  C   C191      1.0  0.19225  0.15245  0.85068  1.0000
  C   C192      1.0  0.15977  0.16275  0.88368  1.0000
  C   C193      1.0  0.19584  0.11263  0.89760  1.0000
  C   C194      1.0  0.16765  0.10952  0.87699  1.0000
  C   C195      1.0  0.17050  0.09660  0.86674  1.0000
  H   H278      1.0  0.23783  0.17253  0.65686  1.0000
  C   C196      1.0  0.14178  0.17254  0.88598  1.0000
  C   C197      1.0  0.19510  0.10443  0.91588  1.0000
  H   H279      1.0  0.15182  0.14003  0.88693  1.0000
  H   H280      1.0  0.15816  0.14974  0.86609  1.0000
  H   H281      1.0  0.17670  0.12767  0.85611  1.0000
  H   H282      1.0  0.19234  0.11423  0.86601  1.0000
  H   H283      1.0  0.16911  0.12211  0.90293  1.0000
  H   H284      1.0  0.18102  0.13639  0.90153  1.0000
  H   H285      1.0  0.19248  0.15273  0.87595  1.0000
  H   H286      1.0  0.20449  0.13489  0.86887  1.0000
  H   H287      1.0  0.17971  0.15948  0.84889  1.0000
  C   C198      1.0  0.23600  0.17980  0.60601  1.0000
  H   H288      1.0  0.16366  0.16032  0.89553  1.0000
  H   H289      1.0  0.16745  0.17086  0.87413  1.0000
  H   H290      1.0  0.20732  0.11754  0.89280  1.0000
  H   H291      1.0  0.19695  0.10272  0.89117  1.0000
  H   H292      1.0  0.16972  0.10266  0.88945  1.0000
  H   H293      1.0  0.15450  0.11634  0.87823  1.0000
  H   H294      1.0  0.18345  0.08910  0.86558  1.0000
  H   H295      1.0  0.16190  0.08805  0.87289  1.0000
  H   H296      1.0  0.16822  0.10268  0.85415  1.0000
  H   H297      1.0  0.22911  0.21901  0.47924  1.0000
  H   H298      1.0  0.23206  0.22905  0.94624  1.0000
  H   H299      1.0  0.13365  0.16545  0.89623  1.0000
  H   H300      1.0  0.14097  0.18450  0.88913  1.0000
  H   H301      1.0  0.18444  0.09823  0.92103  1.0000
  H   H302      1.0  0.20671  0.09489  0.91718  1.0000
  H   H303      1.0  0.19391  0.11376  0.92311  1.0000
  H   H304      1.0  0.09809  0.11996  0.65622  1.0000
  C   C199      1.0  0.15080  0.98431  0.67286  1.0000
  H   H305      1.0  0.22310  0.08194  0.72817  1.0000
  H   H306      1.0  0.22505  0.11069  0.86424  1.0000
  H   H307      1.0  0.04114  0.21217  0.86383  1.0000
  Fe  Fe24      1.0  0.07200  0.17415  0.79192  1.0000
  H   H308      1.0  0.17239  0.11907  0.63305  1.0000
  H   H309      1.0  0.15162  0.18822  0.62221  1.0000
  H   H310      1.0  0.13441  0.18026  0.95638  1.0000
  H   H311      1.0  0.05622  0.20746  0.67251  1.0000
  H   H312      1.0  0.00723  0.14123  0.76879  1.0000
  S   S44       1.0  0.07088  0.14974  0.78788  1.0000
  C   C200      1.0  0.20389  0.10396  0.70639  1.0000
  H   H313      1.0  0.22649  0.17648  0.93814  1.0000
  S   S45       1.0  0.19892  0.15297  0.59257  1.0000
  H   H314      1.0  0.16938  0.17795  0.93395  1.0000
  C   C201      1.0  0.01366  0.06140  0.69278  1.0000
  H   H315      1.0  0.19289  0.16862  0.94099  1.0000
  C   C202      1.0  0.13882  0.10703  0.66226  1.0000
  H   H316      1.0  0.18371  0.18766  0.56405  1.0000
  C   C203      1.0  0.16429  0.20911  0.56788  1.0000
  C   C204      1.0  0.22124  0.02656  0.73350  1.0000
  H   H317      1.0  0.00694  0.20511  0.71853  1.0000
  S   S46       1.0  0.13471  0.23120  0.88201  1.0000
  C   C205      1.0  0.15823  0.18502  0.94107  1.0000
  C   C206      1.0  0.99223  0.22412  0.84231  1.0000
  C   C207      1.0  0.22009  0.23008  0.95545  1.0000
  C   C208      1.0  0.16850  0.09897  0.66234  1.0000
  S   S47       1.0  0.20192  0.04691  0.81196  1.0000
  H   H318      1.0  0.03039  0.11623  0.66453  1.0000
  C   C209      1.0  0.99836  0.22253  0.78603  1.0000
  H   H319      1.0  0.02751  0.20533  0.83710  1.0000
  H   H320      1.0  0.12194  0.21938  0.69686  1.0000
  C   C210      1.0  0.06744  0.19827  0.66951  1.0000
  C   C211      1.0  0.15886  0.10354  0.62874  1.0000
  C   C212      1.0  0.23392  0.08460  0.87269  1.0000
  C   C213      1.0  0.15956  0.11691  0.63737  1.0000
  C   C214      1.0  0.18986  0.04254  0.66838  1.0000
  C   C215      1.0  0.21912  0.22200  0.63133  1.0000
  S   S48       1.0  0.20505  0.06163  0.76308  1.0000
  H   H321      1.0  0.10477  0.10766  0.67478  1.0000
  H   H322      1.0  0.17705  0.22652  0.67203  1.0000
  H   H323      1.0  0.21905  0.22977  0.86450  1.0000
  S   S49       1.0  0.22794  0.12184  0.91647  1.0000
  H   H324      1.0  0.16673  0.02373  0.78819  1.0000
  Fe  Fe25      1.0  0.21621  0.05157  0.78570  1.0000
  C   C216      1.0  0.12661  0.22887  0.80311  1.0000
  H   H325      1.0  0.13720  0.17527  0.87444  1.0000
  Fe  Fe26      1.0  0.07810  0.19343  0.81390  1.0000
  N   N13       1.0  0.02099  0.23052  0.84042  1.0000
  H   H326      1.0  0.22699  0.04262  0.67524  1.0000
  S   S50       1.0  0.12593  0.21619  0.62405  1.0000
  H   H327      1.0  0.22607  0.06570  0.65036  1.0000
  Fe  Fe27      1.0  0.22040  0.02232  0.81447  1.0000
  H   H328      1.0  0.22965  0.22325  0.62042  1.0000
  H   H329      1.0  0.21803  0.00287  0.72021  1.0000
  S   S51       1.0  0.20149  0.07965  0.63005  1.0000
  C   C217      1.0  0.18167  0.19826  0.56995  1.0000
  H   H330      1.0  0.16217  0.22126  0.57104  1.0000
  H   H331      1.0  0.12492  0.21538  0.71750  1.0000
  H   H332      1.0  0.20969  0.15696  0.61967  1.0000
  H   H333      1.0  0.18091  0.07873  0.69978  1.0000
  H   H334      1.0  0.05242  0.19485  0.72841  1.0000
  C   C218      1.0  0.08292  0.22271  0.83523  1.0000
  C   C219      1.0  0.17223  0.21430  0.95823  1.0000
  H   H335      1.0  0.18836  0.03767  0.78846  1.0000
  C   C220      1.0  0.00103  0.19594  0.70005  1.0000
  H   H336      1.0  0.15047  0.20001  0.95893  1.0000
  C   C221      1.0  0.20253  0.06369  0.64771  1.0000
  C   C222      1.0  0.16641  0.10771  0.61020  1.0000
  C   C223      1.0  0.23025  0.06685  0.85659  1.0000
  H   H337      1.0  0.11176  0.09990  0.65586  1.0000
  H   H338      1.0  0.23218  0.11805  0.75905  1.0000
  H   H339      1.0  0.17162  0.10642  0.68370  1.0000
  S   S52       1.0  0.20563  0.12167  0.63012  1.0000
  H   H340      1.0  0.15206  0.18815  0.57669  1.0000
  H   H341      1.0  0.14584  0.10271  0.63021  1.0000
  H   H342      1.0  0.19143  0.11182  0.70521  1.0000
  H   H343      1.0  0.21300  0.10791  0.69493  1.0000
  C   C224      1.0  0.00411  0.11888  0.78715  1.0000
  H   H344      1.0  0.20835  0.09785  0.78509  1.0000
  C   C225      1.0  0.19275  0.19024  0.94992  1.0000
  H   H345      1.0  0.17731  0.06913  0.68538  1.0000
  H   H346      1.0  0.18119  0.19253  0.58318  1.0000
  H   H347      1.0  0.15961  0.11993  0.60425  1.0000
  S   S53       1.0  0.18114  0.23020  0.85494  1.0000
  C   C226      1.0  0.21019  0.22963  0.51722  1.0000
  H   H348      1.0  0.01575  0.20748  0.85703  1.0000
  C   C227      1.0  0.21468  0.21687  0.77715  1.0000
  H   H349      1.0  0.21867  0.11165  0.78878  1.0000
  H   H350      1.0  0.99500  0.08097  0.68103  1.0000
  H   H351      1.0  0.03365  0.10748  0.64690  1.0000
  H   H352      1.0  0.16316  0.21136  0.55487  1.0000
  S   S54       1.0  0.07467  0.21752  0.79518  1.0000
  S   S55       1.0  0.05526  0.18643  0.81223  1.0000
  H   H353      1.0  0.02084  0.19893  0.81440  1.0000
  H   H354      1.0  0.20499  0.22578  0.56812  1.0000
  C   C228      1.0  0.10869  0.11112  0.66110  1.0000
  H   H355      1.0  0.21020  0.18814  0.57917  1.0000
  C   C229      1.0  0.12356  0.11929  0.65614  1.0000
  C   C230      1.0  0.01061  0.14525  0.79820  1.0000
  H   H356      1.0  0.19719  0.01383  0.75752  1.0000
  H   H357      1.0  0.02292  0.13941  0.82727  1.0000
  H   H358      1.0  0.23733  0.20705  0.87197  1.0000
  C   C231      1.0  0.16246  0.19198  0.95390  1.0000
  H   H359      1.0  0.19671  0.14306  0.84286  1.0000
  H   H360      1.0  0.11851  0.19738  0.81025  1.0000
  H   H361      1.0  0.13532  0.10452  0.67599  1.0000
  N   N14       1.0  0.10845  0.06870  0.75770  1.0000
  C   C232      1.0  0.09300  0.07743  0.76804  1.0000
  C   C233      1.0  0.12317  0.06794  0.76444  1.0000
  C   C234      1.0  0.11012  0.07818  0.73996  1.0000
  C   C235      1.0  0.10757  0.05119  0.75842  1.0000
  C   C236      1.0  0.10353  0.04015  0.77596  1.0000
  C   C237      1.0  0.07630  0.07814  0.76388  1.0000
  C   C238      1.0  0.12561  0.07106  0.72760  1.0000
  C   C239      1.0  0.12841  0.08463  0.76147  1.0000
  C   C240      1.0  0.14200  0.08258  0.77064  1.0000
  C   C241      1.0  0.10345  0.02267  0.77494  1.0000
  C   C242      1.0  0.06153  0.08602  0.77599  1.0000
  C   C243      1.0  0.12746  0.08294  0.71069  1.0000
  H   H362      1.0  0.09350  0.09055  0.76667  1.0000
  H   H363      1.0  0.09228  0.07179  0.78145  1.0000
  H   H364      1.0  0.12078  0.06280  0.77804  1.0000
  H   H365      1.0  0.13427  0.05909  0.75929  1.0000
  H   H366      1.0  0.10973  0.09146  0.73904  1.0000
  H   H367      1.0  0.09935  0.07834  0.73509  1.0000
  H   H368      1.0  0.09843  0.05120  0.75148  1.0000
  H   H369      1.0  0.11964  0.04451  0.75197  1.0000
  H   H370      1.0  0.09112  0.04533  0.78299  1.0000
  H   H371      1.0  0.11297  0.03893  0.78304  1.0000
  H   H372      1.0  0.07557  0.08589  0.75135  1.0000
  H   H373      1.0  0.07471  0.06562  0.76439  1.0000
  H   H374      1.0  0.12431  0.05920  0.72582  1.0000
  H   H375      1.0  0.13723  0.06870  0.73193  1.0000
  H   H376      1.0  0.13341  0.08914  0.74810  1.0000
  H   H377      1.0  0.11782  0.09433  0.76586  1.0000
  H   H378      1.0  0.15305  0.07309  0.76658  1.0000
  H   H379      1.0  0.14586  0.09454  0.76801  1.0000
  H   H380      1.0  0.13743  0.07875  0.78422  1.0000
  H   H381      1.0  0.09403  0.02310  0.76812  1.0000
  H   H382      1.0  0.11588  0.01661  0.76857  1.0000
  H   H383      1.0  0.10044  0.01499  0.78761  1.0000
  H   H384      1.0  0.06227  0.09884  0.77563  1.0000
  H   H385      1.0  0.04982  0.08667  0.77247  1.0000
  H   H386      1.0  0.06117  0.07847  0.78880  1.0000
  H   H387      1.0  0.13121  0.09407  0.71136  1.0000
  H   H388      1.0  0.13711  0.07654  0.70155  1.0000
  H   H389      1.0  0.11565  0.08688  0.70636  1.0000
  N   N15       1.0  0.02091  0.07170  0.69945  1.0000
  H   H390      1.0  0.13154  0.19156  0.79146  1.0000
  C   C244      1.0  0.03833  0.06291  0.70166  1.0000
  C   C245      1.0  0.01006  0.07354  0.71629  1.0000
  C   C246      1.0  0.02071  0.08887  0.68859  1.0000
  C   C247      1.0  0.22074  0.09659  0.84914  1.0000
  H   H391      1.0  0.17909  0.20222  0.92178  1.0000
  C   C248      1.0  0.01731  0.08001  0.72733  1.0000
  C   C249      1.0  0.04945  0.05260  0.68878  1.0000
  C   C250      1.0  0.06754  0.04778  0.69041  1.0000
  H   H392      1.0  0.16020  0.19863  0.83886  1.0000
  S   S56       1.0  0.08275  0.22454  0.65664  1.0000
  H   H393      1.0  0.23877  0.15993  0.55280  1.0000
  C   C251      1.0  0.02665  0.10730  0.65987  1.0000
  H   H394      1.0  0.22561  0.98248  0.73139  1.0000
  H   H395      1.0  0.04514  0.07198  0.70235  1.0000
  H   H396      1.0  0.03790  0.05372  0.71370  1.0000
  H   H397      1.0  0.00710  0.06141  0.72364  1.0000
  H   H398      1.0  0.16055  0.22349  0.95619  1.0000
  H   H399      1.0  0.01380  0.04894  0.70125  1.0000
  H   H400      1.0  0.02587  0.09630  0.69382  1.0000
  C   C252      1.0  0.10111  0.21778  0.85932  1.0000
  H   H401      1.0  0.04406  0.08661  0.67009  1.0000
  C   C253      1.0  0.02542  0.15052  0.81751  1.0000
  C   C254      1.0  0.00453  0.08350  0.74300  1.0000
  H   H402      1.0  0.02160  0.09155  0.72060  1.0000
  H   H403      1.0  0.02799  0.07061  0.73145  1.0000
  H   H404      1.0  0.04514  0.04095  0.69092  1.0000
  H   H405      1.0  0.04916  0.05926  0.67587  1.0000
  H   H406      1.0  0.06861  0.04108  0.70324  1.0000
  H   H407      1.0  0.07508  0.03957  0.68181  1.0000
  H   H408      1.0  0.07276  0.05904  0.68717  1.0000
  H   H409      1.0  0.01966  0.20954  0.69796  1.0000
  C   C255      1.0  0.01145  0.15752  0.80805  1.0000
  H   H410      1.0  0.99586  0.18705  0.82514  1.0000
  H   H411      1.0  0.22433  0.17923  0.60324  1.0000
  H   H412      1.0  0.01246  0.13267  0.80642  1.0000
  H   H413      1.0  0.17972  0.03619  0.67336  1.0000
  Fe  Fe28      1.0  0.22067  0.05723  0.81784  1.0000
  H   H414      1.0  0.04592  0.18011  0.85199  1.0000
  H   H415      1.0  0.21650  0.18321  0.67482  1.0000
  N   N16       1.0  0.10231  0.16776  0.72108  1.0000
  C   C256      1.0  0.11014  0.17843  0.70533  1.0000
  C   C257      1.0  0.08393  0.17516  0.72602  1.0000
  C   C258      1.0  0.11047  0.16774  0.73456  1.0000
  C   C259      1.0  0.10520  0.14996  0.71968  1.0000
  C   C260      1.0  0.10078  0.14700  0.70466  1.0000
  C   C261      1.0  0.12917  0.17287  0.69938  1.0000
  C   C262      1.0  0.10264  0.15947  0.75242  1.0000
  C   C263      1.0  0.07473  0.18434  0.71176  1.0000
  C   C264      1.0  0.05596  0.18825  0.71810  1.0000
  C   C265      1.0  0.10642  0.12861  0.70396  1.0000
  C   C266      1.0  0.13525  0.18331  0.68241  1.0000
  C   C267      1.0  0.11400  0.15691  0.76419  1.0000
  H   H416      1.0  0.10755  0.19144  0.70690  1.0000
  H   H417      1.0  0.10453  0.17933  0.69486  1.0000
  H   H418      1.0  0.07720  0.16551  0.73440  1.0000
  H   H419      1.0  0.08184  0.18467  0.73341  1.0000
  H   H420      1.0  0.11043  0.18071  0.73476  1.0000
  H   H421      1.0  0.12375  0.16124  0.73208  1.0000
  H   H422      1.0  0.11838  0.14354  0.71971  1.0000
  H   H423      1.0  0.09783  0.14288  0.73073  1.0000
  H   H424      1.0  0.10688  0.15405  0.69275  1.0000
  H   H425      1.0  0.08715  0.15043  0.70582  1.0000
  H   H426      1.0  0.13578  0.17454  0.70800  1.0000
  H   H427      1.0  0.13281  0.15969  0.69836  1.0000
  H   H428      1.0  0.10043  0.14715  0.75320  1.0000
  H   H429      1.0  0.09057  0.16745  0.75702  1.0000
  H   H430      1.0  0.07855  0.19632  0.70560  1.0000
  H   H431      1.0  0.07751  0.17699  0.70227  1.0000
  H   H432      1.0  0.04998  0.19625  0.70788  1.0000
  H   H433      1.0  0.05137  0.17659  0.72239  1.0000
  H   H434      1.0  0.23426  0.09512  0.71161  1.0000
  H   H435      1.0  0.10053  0.12082  0.71552  1.0000
  H   H436      1.0  0.10269  0.12657  0.69346  1.0000
  H   H437      1.0  0.12013  0.12464  0.70205  1.0000
  H   H438      1.0  0.14903  0.18033  0.67928  1.0000
  H   H439      1.0  0.13062  0.18072  0.67274  1.0000
  H   H440      1.0  0.13104  0.19673  0.68238  1.0000
  H   H441      1.0  0.11645  0.16895  0.76421  1.0000
  H   H442      1.0  0.10799  0.15135  0.77694  1.0000
  H   H443      1.0  0.12600  0.14832  0.76051  1.0000
  N   N17       1.0  0.22130  0.20430  0.64125  1.0000
  H   H444      1.0  0.19839  0.17549  0.85021  1.0000
  H   H445      1.0  0.22126  0.18676  0.54218  1.0000
  H   H446      1.0  0.23818  0.07303  0.75168  1.0000
  H   H447      1.0  0.23837  0.21670  0.79610  1.0000
  C   C268      1.0  0.20849  0.10602  0.72155  1.0000
  C   C269      1.0  0.23325  0.19491  0.61334  1.0000
  H   H448      1.0  0.20345  0.11986  0.77607  1.0000
  H   H449      1.0  0.99777  0.05544  0.67128  1.0000
  S   S57       1.0  0.11199  0.20728  0.75595  1.0000
  C   C270      1.0  0.22241  0.08076  0.84637  1.0000
  H   H450      1.0  0.18793  0.22335  0.77967  1.0000
  H   H451      1.0  0.03412  0.18427  0.87199  1.0000
  H   H452      1.0  0.16389  0.21875  0.92899  1.0000
  C   C271      1.0  0.01165  0.21659  0.79410  1.0000
  C   C272      1.0  0.22649  0.09850  0.86218  1.0000
  H   H453      1.0  0.23150  0.12875  0.70916  1.0000
  H   H454      1.0  0.00188  0.17131  0.71438  1.0000
  S   S58       1.0  0.22731  0.13412  0.65696  1.0000
  H   H455      1.0  0.22228  0.18034  0.63676  1.0000
  H   H456      1.0  0.22309  0.21461  0.53624  1.0000
  C   C273      1.0  0.23806  0.98829  0.70584  1.0000
  H   H457      1.0  0.99237  0.20763  0.69598  1.0000
  H   H458      1.0  0.20804  0.19688  0.62749  1.0000
  C   C274      1.0  0.99233  0.16670  0.78222  1.0000
  C   C275      1.0  0.19345  0.22099  0.57164  1.0000
  C   C276      1.0  0.15299  0.12825  0.66214  1.0000
  H   H459      1.0  0.10856  0.19506  0.65211  1.0000
  C   C277      1.0  0.21698  0.98256  0.81391  1.0000
  H   H460      1.0  0.14344  0.13850  0.65687  1.0000
  H   H461      1.0  0.15167  0.12886  0.63221  1.0000
  H   H462      1.0  0.12614  0.12361  0.64251  1.0000
  H   H463      1.0  0.22194  0.20142  0.56384  1.0000
  H   H464      1.0  0.19484  0.20795  0.65145  1.0000
  C   C278      1.0  0.21656  0.05254  0.71095  1.0000
  H   H465      1.0  0.14818  0.12608  0.67579  1.0000
  Fe  Fe29      1.0  0.10742  0.23039  0.64220  1.0000
  Fe  Fe30      1.0  0.05315  0.20937  0.79190  1.0000
  H   H466      1.0  0.02136  0.05881  0.68074  1.0000
  H   H467      1.0  0.17791  0.15353  0.66388  1.0000
  H   H468      1.0  0.11976  0.13034  0.66173  1.0000
  H   H469      1.0  0.01403  0.16922  0.79936  1.0000
  H   H470      1.0  0.21625  0.15867  0.84700  1.0000
  H   H471      1.0  0.17971  0.10802  0.60806  1.0000
  H   H472      1.0  0.10411  0.19164  0.86074  1.0000
  H   H473      1.0  0.20630  0.21208  0.66371  1.0000
  H   H474      1.0  0.22305  0.13255  0.72982  1.0000
  H   H475      1.0  0.20355  0.09084  0.70760  1.0000
  H   H476      1.0  0.15837  0.21605  0.84774  1.0000
  H   H477      1.0  0.00774  0.09592  0.68849  1.0000
  H   H478      1.0  0.07599  0.22471  0.82590  1.0000
  S   S59       1.0  0.22862  0.10757  0.59744  1.0000
  H   H479      1.0  0.17183  0.14075  0.64413  1.0000
  H   H480      1.0  0.19666  0.20451  0.53851  1.0000
  H   H481      1.0  0.16566  0.09803  0.60430  1.0000
  Fe  Fe31      1.0  0.22418  0.14602  0.89834  1.0000
  H   H482      1.0  0.13218  0.21073  0.83278  1.0000
  S   S60       1.0  0.08692  0.18933  0.83743  1.0000
  H   H483      1.0  0.16259  0.14470  0.68026  1.0000
  H   H484      1.0  0.00372  0.16854  0.77264  1.0000
  N   N18       1.0  0.99492  0.14892  0.79184  1.0000
  N   N19       1.0  0.19584  0.20708  0.56306  1.0000
  H   H485      1.0  0.99792  0.08213  0.71500  1.0000
  C   C279      1.0  0.22340  0.00200  0.75693  1.0000
  C   C280      1.0  0.17646  0.21089  0.93006  1.0000
  H   H486      1.0  0.22235  0.00801  0.76725  1.0000
  H   H487      1.0  0.10818  0.21584  0.86859  1.0000
  H   H488      1.0  0.14563  0.99607  0.66480  1.0000
  C   C281      1.0  0.19642  0.21425  0.54491  1.0000
  C   C282      1.0  0.23588  0.06877  0.86974  1.0000
  H   H489      1.0  0.14864  0.19916  0.70255  1.0000
  H   H490      1.0  0.20145  0.21605  0.92490  1.0000
  C   C283      1.0  0.20671  0.20358  0.65587  1.0000
  C   C284      1.0  0.11859  0.22510  0.75520  1.0000
  H   H491      1.0  0.99962  0.16042  0.81710  1.0000
  H   H492      1.0  0.20923  0.17350  0.55801  1.0000
  H   H493      1.0  0.19870  0.10253  0.73258  1.0000
  H   H494      1.0  0.23747  0.09633  0.76834  1.0000
  C   C285      1.0  0.20631  0.18659  0.66809  1.0000
  H   H495      1.0  0.02171  0.14497  0.78776  1.0000
  C   C286      1.0  0.22062  0.19359  0.63029  1.0000
  H   H496      1.0  0.15144  0.21634  0.68531  1.0000
  H   H497      1.0  0.05620  0.18304  0.86622  1.0000
  H   H498      1.0  0.14532  0.20504  0.80443  1.0000
  H   H499      1.0  0.01733  0.11640  0.78787  1.0000
  C   C287      1.0  0.20059  0.17786  0.93833  1.0000
  C   C288      1.0  0.19919  0.22635  0.77043  1.0000
  C   C289      1.0  0.14613  0.17353  0.94948  1.0000
  H   H500      1.0  0.23050  0.98903  0.76036  1.0000
  C   C290      1.0  0.22937  0.99347  0.72228  1.0000
  H   H501      1.0  0.20813  0.11930  0.71994  1.0000
  H   H502      1.0  0.19168  0.18250  0.96272  1.0000
  H   H503      1.0  0.17929  0.19050  0.67528  1.0000
  H   H504      1.0  0.19013  0.17507  0.68984  1.0000
  S   S61       1.0  0.21376  0.07912  0.83055  1.0000
  C   C291      1.0  0.98970  0.05739  0.68343  1.0000
  H   H505      1.0  0.18519  0.99033  0.77452  1.0000
  C   C292      1.0  0.21838  0.18126  0.55563  1.0000
  H   H506      1.0  0.19692  0.20485  0.59601  1.0000
  Fe  Fe32      1.0  0.21725  0.13224  0.60418  1.0000
  H   H507      1.0  0.02635  0.16006  0.82348  1.0000
  H   H508      1.0  0.22845  0.20611  0.60438  1.0000
  H   H509      1.0  0.19958  0.22288  0.75879  1.0000
  C   C293      1.0  0.21356  0.10914  0.77940  1.0000
  C   C294      1.0  0.19007  0.18735  0.68118  1.0000
  H   H510      1.0  0.20415  0.99666  0.74755  1.0000
  H   H511      1.0  0.02300  0.18884  0.71046  1.0000
  C   C295      1.0  0.18878  0.21653  0.59084  1.0000
  H   H512      1.0  0.15818  0.21969  0.81194  1.0000
  C   C296      1.0  0.13430  0.22720  0.74580  1.0000
  H   H513      1.0  0.05282  0.20784  0.84402  1.0000
  S   S62       1.0  0.09501  0.17871  0.79560  1.0000
  C   C297      1.0  0.08981  0.20658  0.84271  1.0000
  S   S63       1.0  0.21139  0.99818  0.82551  1.0000
  C   C298      1.0  0.22559  0.09469  0.72397  1.0000
  H   H514      1.0  0.17572  0.21501  0.59519  1.0000
  H   H515      1.0  0.21372  0.06082  0.71970  1.0000
  H   H516      1.0  0.21106  0.11349  0.74736  1.0000
  H   H517      1.0  0.20488  0.04971  0.71038  1.0000
  S   S64       1.0  0.23342  0.06387  0.79106  1.0000
  H   H518      1.0  0.03749  0.14707  0.80897  1.0000
  Fe  Fe33      1.0  0.09026  0.20224  0.77673  1.0000
  H   H519      1.0  0.23452  0.13138  0.84001  1.0000
  C   C299      1.0  0.09883  0.20412  0.85484  1.0000
  C   C300      1.0  0.19835  0.99006  0.77398  1.0000
  C   C301      1.0  0.04458  0.18716  0.86151  1.0000
  H   H520      1.0  0.02754  0.08143  0.66450  1.0000
  H   H521      1.0  0.20214  0.18425  0.92510  1.0000
  H   H522      1.0  0.14979  0.19989  0.59210  1.0000
  H   H523      1.0  0.21396  0.09236  0.75713  1.0000
  S   S65       1.0  0.06861  0.19662  0.77148  1.0000
  H   H524      1.0  0.19876  0.99447  0.78481  1.0000
  C   C302      1.0  0.13900  0.21906  0.83467  1.0000
  C   C303      1.0  0.18899  0.22240  0.92249  1.0000
  H   H525      1.0  0.21452  0.20347  0.78018  1.0000
  C   C304      1.0  0.99568  0.06892  0.69013  1.0000
  N   N20       1.0  0.23367  0.09783  0.73605  1.0000
  C   C305      1.0  0.20376  0.16466  0.84430  1.0000
  H   H526      1.0  0.22463  0.19877  0.90163  1.0000
  C   C306      1.0  0.14739  0.21281  0.69897  1.0000
  C   C307      1.0  0.00319  0.10834  0.77588  1.0000
  H   H527      1.0  0.21625  0.21806  0.95879  1.0000
  H   H528      1.0  0.20514  0.16922  0.83071  1.0000
  H   H529      1.0  0.21487  0.10743  0.84118  1.0000
  H   H530      1.0  0.15566  0.21613  0.70488  1.0000
  C   C308      1.0  0.23072  0.22017  0.76421  1.0000
  H   H531      1.0  0.99718  0.21126  0.84032  1.0000
  S   S66       1.0  0.23355  0.02669  0.78788  1.0000
  C   C309      1.0  0.22077  0.10251  0.75092  1.0000
  C   C310      1.0  0.02580  0.21204  0.84704  1.0000
  C   C311      1.0  0.01337  0.20011  0.70726  1.0000
  H   H532      1.0  0.11476  0.20958  0.79038  1.0000
  H   H533      1.0  0.20743  0.17658  0.66180  1.0000
  C   C312      1.0  0.12455  0.20224  0.79726  1.0000
  C   C313      1.0  0.15137  0.20829  0.84520  1.0000
  Fe  Fe34      1.0  0.22891  0.12209  0.63633  1.0000
  H   H534      1.0  0.23196  0.21411  0.75389  1.0000
  C   C314      1.0  0.99658  0.19683  0.81408  1.0000
  H   H535      1.0  0.11701  0.22545  0.81438  1.0000
  C   C315      1.0  0.23751  0.19947  0.64690  1.0000
  H   H536      1.0  0.18859  0.19679  0.68839  1.0000
  H   H537      1.0  0.99451  0.11507  0.71385  1.0000
  H   H538      1.0  0.22291  0.15898  0.93301  1.0000
  C   C316      1.0  0.13637  0.21289  0.79680  1.0000
  H   H539      1.0  0.18660  0.22680  0.61182  1.0000
  H   H540      1.0  0.21368  0.22071  0.78873  1.0000
  H   H541      1.0  0.14249  0.21755  0.73968  1.0000
  H   H542      1.0  0.18205  0.22157  0.95451  1.0000
  H   H543      1.0  0.23563  0.20353  0.65865  1.0000
  H   H544      1.0  0.23650  0.14169  0.81849  1.0000
  S   S67       1.0  0.23638  0.13461  0.87639  1.0000
  H   H545      1.0  0.19678  0.21761  0.89760  1.0000
  C   C317      1.0  0.22737  0.10650  0.76414  1.0000
  C   C318      1.0  0.12932  0.22152  0.70445  1.0000
  C   C319      1.0  0.04179  0.20579  0.85401  1.0000
  H   H546      1.0  0.14168  0.98239  0.68483  1.0000
  C   C320      1.0  0.23459  0.12844  0.72096  1.0000
  S   S68       1.0  0.23783  0.03214  0.82295  1.0000
  H   H547      1.0  0.00820  0.19103  0.68886  1.0000
  C   C321      1.0  0.99195  0.18275  0.71272  1.0000
  N   N21       1.0  0.23267  0.01109  0.74086  1.0000
  H   H548      1.0  0.99256  0.17176  0.68585  1.0000
  H   H549      1.0  0.99047  0.17540  0.79033  1.0000
  H   H550      1.0  0.23173  0.22671  0.89079  1.0000
  H   H551      1.0  0.23163  0.05458  0.85461  1.0000
  H   H552      1.0  0.21200  0.21923  0.51113  1.0000
  H   H553      1.0  0.00890  0.22253  0.87543  1.0000
  C   C322      1.0  0.23439  0.16976  0.56006  1.0000
  C   C323      1.0  0.21083  0.22307  0.53546  1.0000
  S   S69       1.0  0.12536  0.22854  0.65747  1.0000
  C   C324      1.0  0.23535  0.20144  0.90452  1.0000
  H   H554      1.0  0.23128  0.20506  0.91668  1.0000
  H   H555      1.0  0.03829  0.22705  0.81735  1.0000
  H   H556      1.0  0.22202  0.05916  0.69844  1.0000
  H   H557      1.0  0.23210  0.02917  0.70681  1.0000
  H   H558      1.0  0.23806  0.20809  0.84479  1.0000
  H   H559      1.0  0.23846  0.15365  0.71174  1.0000
  H   H560      1.0  0.22979  0.98283  0.70201  1.0000
  H   H561      1.0  0.23840  0.19308  0.78806  1.0000
  H   H562      1.0  0.99064  0.18789  0.75154  1.0000
  C   C325      1.0  0.19029  0.23023  0.59812  1.0000
  H   H563      1.0  0.99011  0.10976  0.77521  1.0000
  H   H564      1.0  0.98967  0.04522  0.69228  1.0000
  H   H565      1.0  0.21775  0.34923  0.13446  1.0000
  C   C326      1.0  0.22035  0.39681  0.32427  1.0000
  C   C327      1.0  0.23119  0.34060  0.15397  1.0000
  H   H566      1.0  0.11613  0.30508  0.10781  1.0000
  Fe  Fe35      1.0  0.18534  0.33555  0.37979  1.0000
  S   S70       1.0  0.16193  0.32843  0.39606  1.0000
  S   S71       1.0  0.18374  0.36228  0.36665  1.0000
  Fe  Fe36      1.0  0.20520  0.30017  0.38603  1.0000
  S   S72       1.0  0.18314  0.29027  0.40252  1.0000
  H   H567      1.0  0.13516  0.35568  0.38180  1.0000
  Fe  Fe37      1.0  0.16925  0.30702  0.38335  1.0000
  S   S73       1.0  0.15173  0.30332  0.36983  1.0000
  Fe  Fe38      1.0  0.17825  0.31258  0.41358  1.0000
  S   S74       1.0  0.17134  0.30905  0.44163  1.0000
  S   S75       1.0  0.19171  0.31528  0.36608  1.0000
  S   S76       1.0  0.20112  0.32145  0.39817  1.0000
  Fe  Fe39      1.0  0.19095  0.40335  0.27613  1.0000
  S   S77       1.0  0.16849  0.41990  0.28829  1.0000
  S   S78       1.0  0.20400  0.37807  0.28840  1.0000
  Fe  Fe40      1.0  0.19321  0.42887  0.24341  1.0000
  S   S79       1.0  0.17098  0.44727  0.25323  1.0000
  S   S80       1.0  0.20966  0.43570  0.21855  1.0000
  Fe  Fe41      1.0  0.18189  0.44072  0.27578  1.0000
  S   S81       1.0  0.18942  0.45488  0.29032  1.0000
  Fe  Fe42      1.0  0.16006  0.42443  0.26459  1.0000
  S   S82       1.0  0.13373  0.42280  0.26642  1.0000
  S   S83       1.0  0.20481  0.42369  0.26501  1.0000
  S   S84       1.0  0.18171  0.40660  0.25324  1.0000
  Fe  Fe43      1.0  0.17334  0.27362  0.01815  1.0000
  S   S85       1.0  0.15744  0.26015  0.04007  1.0000
  S   S86       1.0  0.19441  0.28335  0.02032  1.0000
  Fe  Fe44      1.0  0.15789  0.26658  0.99309  1.0000
  S   S87       1.0  0.14038  0.25276  0.01314  1.0000
  Fe  Fe45      1.0  0.13685  0.27299  0.02668  1.0000
  S   S88       1.0  0.11224  0.28531  0.04083  1.0000
  H   H568      1.0  0.02931  0.23982  0.12547  1.0000
  H   H569      1.0  0.18533  0.25028  0.36118  1.0000
  S   S89       1.0  0.15247  0.28805  0.00552  1.0000
  S   S90       1.0  0.18011  0.25341  0.00408  1.0000
  Fe  Fe46      1.0  0.04442  0.26458  0.16526  1.0000
  S   S91       1.0  0.02604  0.28798  0.15751  1.0000
  H   H570      1.0  0.07026  0.24743  0.07453  1.0000
  Fe  Fe47      1.0  0.06968  0.26990  0.13258  1.0000
  S   S92       1.0  0.05308  0.29333  0.12223  1.0000
  S   S93       1.0  0.09509  0.25884  0.11868  1.0000
  Fe  Fe48      1.0  0.04874  0.29910  0.14730  1.0000
  S   S94       1.0  0.05241  0.32402  0.14798  1.0000
  Fe  Fe49      1.0  0.03213  0.27979  0.13346  1.0000
  H   H571      1.0  0.17940  0.34504  0.31409  1.0000
  S   S95       1.0  0.06655  0.27625  0.15705  1.0000
  S   S96       1.0  0.04928  0.25581  0.14194  1.0000
  Fe  Fe50      1.0  0.20468  0.31958  0.08737  1.0000
  S   S97       1.0  0.20604  0.29860  0.10950  1.0000
  S   S98       1.0  0.18249  0.32264  0.07661  1.0000
  H   H572      1.0  0.22142  0.40379  0.13308  1.0000
  Fe  Fe51      1.0  0.21289  0.31568  0.12068  1.0000
  S   S99       1.0  0.20315  0.31594  0.14758  1.0000
  S   S100      1.0  0.20899  0.33759  0.09971  1.0000
  N   N22       1.0  0.05495  0.27245  0.07236  1.0000
  S   S101      1.0  0.14625  0.25244  0.31035  1.0000
  H   H573      1.0  0.10046  0.24646  0.24941  1.0000
  Fe  Fe52      1.0  0.12437  0.24683  0.30516  1.0000
  S   S102      1.0  0.10612  0.26610  0.29184  1.0000
  H   H574      1.0  0.12361  0.30928  0.08568  1.0000
  Fe  Fe53      1.0  0.10993  0.35958  0.22484  1.0000
  S   S103      1.0  0.13497  0.34975  0.21035  1.0000
  S   S104      1.0  0.10510  0.37178  0.24648  1.0000
  Fe  Fe54      1.0  0.09231  0.34255  0.20938  1.0000
  S   S105      1.0  0.11607  0.33164  0.19357  1.0000
  S   S106      1.0  0.06922  0.33348  0.21177  1.0000
  Fe  Fe55      1.0  0.12666  0.32591  0.21596  1.0000
  S   S107      1.0  0.14383  0.30160  0.22339  1.0000
  Fe  Fe56      1.0  0.12219  0.35650  0.18913  1.0000
  S   S108      1.0  0.13571  0.36724  0.16375  1.0000
  S   S109      1.0  0.10256  0.33500  0.23232  1.0000
  S   S110      1.0  0.09734  0.36825  0.20314  1.0000
  C   C328      1.0  0.11669  0.27447  0.27210  1.0000
  C   C329      1.0  0.13407  0.27090  0.26796  1.0000
  C   C330      1.0  0.14247  0.27859  0.25256  1.0000
  C   C331      1.0  0.13348  0.28990  0.24134  1.0000
  C   C332      1.0  0.11615  0.29272  0.24510  1.0000
  C   C333      1.0  0.10774  0.28513  0.26053  1.0000
  H   H575      1.0  0.14110  0.26249  0.27671  1.0000
  H   H576      1.0  0.15589  0.27624  0.24964  1.0000
  H   H577      1.0  0.10920  0.30088  0.23618  1.0000
  H   H578      1.0  0.09431  0.28771  0.26359  1.0000
  C   C334      1.0  0.18450  0.33039  0.15159  1.0000
  C   C335      1.0  0.18106  0.34560  0.14052  1.0000
  C   C336      1.0  0.16605  0.35702  0.14425  1.0000
  C   C337      1.0  0.15452  0.35316  0.15901  1.0000
  C   C338      1.0  0.15805  0.33794  0.17000  1.0000
  C   C339      1.0  0.17294  0.32655  0.16624  1.0000
  H   H579      1.0  0.18999  0.34865  0.12920  1.0000
  H   H580      1.0  0.16338  0.36880  0.13574  1.0000
  H   H581      1.0  0.14932  0.33480  0.18142  1.0000
  H   H582      1.0  0.17539  0.31459  0.17458  1.0000
  H   H583      1.0  0.20398  0.47646  0.32787  1.0000
  C   C340      1.0  0.05725  0.32620  0.16583  1.0000
  C   C341      1.0  0.05234  0.31629  0.18141  1.0000
  C   C342      1.0  0.05584  0.31878  0.19547  1.0000
  C   C343      1.0  0.06505  0.33054  0.19393  1.0000
  C   C344      1.0  0.07040  0.34008  0.17831  1.0000
  C   C345      1.0  0.06613  0.33822  0.16437  1.0000
  H   H584      1.0  0.04537  0.30709  0.18268  1.0000
  H   H585      1.0  0.05149  0.31150  0.20756  1.0000
  H   H586      1.0  0.07731  0.34925  0.17716  1.0000
  H   H587      1.0  0.06981  0.34602  0.15238  1.0000
  H   H588      1.0  0.23433  0.27368  0.04774  1.0000
  C   C346      1.0  0.18573  0.31237  0.06046  1.0000
  C   C347      1.0  0.17219  0.30868  0.05714  1.0000
  C   C348      1.0  0.17461  0.30003  0.04465  1.0000
  C   C349      1.0  0.19057  0.29523  0.03528  1.0000
  C   C350      1.0  0.20396  0.29956  0.03815  1.0000
  C   C351      1.0  0.20161  0.30788  0.05083  1.0000
  H   H589      1.0  0.15983  0.31236  0.06435  1.0000
  H   H590      1.0  0.16415  0.29697  0.04236  1.0000
  H   H591      1.0  0.21625  0.29632  0.03062  1.0000
  H   H592      1.0  0.21206  0.31102  0.05297  1.0000
  C   C352      1.0  0.10856  0.27832  0.06253  1.0000
  C   C353      1.0  0.11641  0.26248  0.06986  1.0000
  C   C354      1.0  0.11253  0.25680  0.08714  1.0000
  C   C355      1.0  0.10062  0.26681  0.09718  1.0000
  C   C356      1.0  0.09307  0.28280  0.08989  1.0000
  C   C357      1.0  0.09700  0.28852  0.07261  1.0000
  H   H593      1.0  0.12519  0.25443  0.06221  1.0000
  H   H594      1.0  0.11847  0.24443  0.09270  1.0000
  H   H595      1.0  0.08418  0.29076  0.09754  1.0000
  H   H596      1.0  0.09099  0.30083  0.06703  1.0000
  C   C358      1.0  0.21458  0.42084  0.20653  1.0000
  H   H597      1.0  0.05974  0.24394  0.25227  1.0000
  H   H598      1.0  0.07974  0.26208  0.07677  1.0000
  H   H599      1.0  0.20775  0.26409  0.39591  1.0000
  C   C359      1.0  0.12713  0.40834  0.25977  1.0000
  C   C360      1.0  0.11044  0.40741  0.26556  1.0000
  C   C361      1.0  0.10411  0.39640  0.26095  1.0000
  C   C362      1.0  0.11421  0.38622  0.25021  1.0000
  C   C363      1.0  0.13104  0.38703  0.24420  1.0000
  C   C364      1.0  0.13753  0.39805  0.24906  1.0000
  H   H600      1.0  0.10228  0.41531  0.27370  1.0000
  H   H601      1.0  0.09115  0.39591  0.26565  1.0000
  H   H602      1.0  0.13900  0.37912  0.23599  1.0000
  H   H603      1.0  0.15043  0.39875  0.24441  1.0000
  C   C365      1.0  0.15196  0.28395  0.36624  1.0000
  C   C366      1.0  0.15430  0.26926  0.37828  1.0000
  H   H604      1.0  0.20456  0.31949  0.19388  1.0000
  C   C367      1.0  0.03970  0.30285  0.07421  1.0000
  C   C368      1.0  0.14678  0.26864  0.34879  1.0000
  C   C369      1.0  0.14829  0.28354  0.35147  1.0000
  H   H605      1.0  0.18370  0.30862  0.33318  1.0000
  H   H606      1.0  0.08154  0.29279  0.20288  1.0000
  H   H607      1.0  0.14396  0.26848  0.33740  1.0000
  H   H608      1.0  0.14644  0.29482  0.34211  1.0000
  C   C370      1.0  0.18915  0.36572  0.34499  1.0000
  C   C371      1.0  0.18053  0.37994  0.33587  1.0000
  C   C372      1.0  0.18512  0.38373  0.31859  1.0000
  C   C373      1.0  0.19817  0.37320  0.31019  1.0000
  C   C374      1.0  0.20659  0.35866  0.31928  1.0000
  C   C375      1.0  0.20210  0.35492  0.33670  1.0000
  H   H609      1.0  0.17023  0.38805  0.34221  1.0000
  H   H610      1.0  0.17841  0.39474  0.31184  1.0000
  H   H611      1.0  0.21670  0.35039  0.31290  1.0000
  H   H612      1.0  0.20886  0.34390  0.34370  1.0000
  H   H613      1.0  0.16441  0.39522  0.14079  1.0000
  C   C376      1.0  0.23375  0.26357  0.38643  1.0000
  H   H614      1.0  0.20768  0.29593  0.46797  1.0000
  H   H615      1.0  0.19453  0.32062  0.22597  1.0000
  H   H616      1.0  0.22060  0.25277  0.36074  1.0000
  H   H617      1.0  0.23065  0.36811  0.10788  1.0000
  H   H618      1.0  0.18286  0.32155  0.19523  1.0000
  H   H619      1.0  0.16155  0.41523  0.12690  1.0000
  H   H620      1.0  0.10806  0.23364  0.23483  1.0000
  H   H621      1.0  0.21825  0.23557  0.33297  1.0000
  H   H622      1.0  0.17058  0.41231  0.14429  1.0000
  C   C377      1.0  0.20659  0.26037  0.06819  1.0000
  C   C378      1.0  0.22429  0.39875  0.12172  1.0000
  H   H623      1.0  0.18470  0.31584  0.31113  1.0000
  C   C379      1.0  0.22585  0.37031  0.13752  1.0000
  H   H624      1.0  0.20788  0.28669  0.44577  1.0000
  H   H625      1.0  0.12587  0.37754  0.37793  1.0000
  H   H626      1.0  0.16503  0.40932  0.38831  1.0000
  Fe  Fe57      1.0  0.14130  0.23377  0.33415  1.0000
  H   H627      1.0  0.10042  0.33668  0.33626  1.0000
  H   H628      1.0  0.21729  0.33051  0.22639  1.0000
  C   C380      1.0  0.15727  0.42855  0.33667  1.0000
  H   H629      1.0  0.03250  0.27552  0.06398  1.0000
  C   C381      1.0  0.19029  0.32938  0.44442  1.0000
  C   C382      1.0  0.17933  0.31878  0.45247  1.0000
  C   C383      1.0  0.18022  0.26349  0.08819  1.0000
  H   H630      1.0  0.99926  0.24984  0.19468  1.0000
  H   H631      1.0  0.19785  0.39177  0.14575  1.0000
  H   H632      1.0  0.19392  0.33214  0.43106  1.0000
  C   C384      1.0  0.11813  0.31510  0.09658  1.0000
  C   C385      1.0  0.23835  0.38071  0.24767  1.0000
  H   H633      1.0  0.19245  0.41119  0.21765  1.0000
  C   C386      1.0  0.14888  0.36608  0.31922  1.0000
  C   C387      1.0  0.13303  0.36681  0.35625  1.0000
  C   C388      1.0  0.14970  0.36554  0.30113  1.0000
  C   C389      1.0  0.15463  0.38105  0.28910  1.0000
  H   H634      1.0  0.16078  0.36853  0.31963  1.0000
  H   H635      1.0  0.13938  0.37738  0.32177  1.0000
  H   H636      1.0  0.11878  0.36159  0.33401  1.0000
  H   H637      1.0  0.13328  0.37918  0.34788  1.0000
  H   H638      1.0  0.12045  0.36439  0.35868  1.0000
  H   H639      1.0  0.13742  0.36510  0.29960  1.0000
  H   H640      1.0  0.15900  0.35466  0.29733  1.0000
  H   H641      1.0  0.23392  0.39296  0.32367  1.0000
  C   C390      1.0  0.21869  0.37725  0.11023  1.0000
  H   H642      1.0  0.15473  0.38070  0.27629  1.0000
  H   H643      1.0  0.14563  0.39243  0.29218  1.0000
  H   H644      1.0  0.16724  0.38172  0.28950  1.0000
  H   H645      1.0  0.23744  0.42807  0.19266  1.0000
  C   C391      1.0  0.18716  0.40147  0.12392  1.0000
  C   C392      1.0  0.16991  0.40627  0.13470  1.0000
  C   C393      1.0  0.21334  0.41305  0.33029  1.0000
  H   H646      1.0  0.18659  0.26216  0.11876  1.0000
  H   H647      1.0  0.20831  0.40152  0.09492  1.0000
  C   C394      1.0  0.19403  0.29898  0.20985  1.0000
  H   H648      1.0  0.18552  0.39660  0.11392  1.0000
  H   H649      1.0  0.02067  0.23575  0.16130  1.0000
  H   H650      1.0  0.06292  0.28962  0.08125  1.0000
  H   H651      1.0  0.21905  0.23815  0.12601  1.0000
  H   H652      1.0  0.20903  0.37003  0.11240  1.0000
  C   C395      1.0  0.18662  0.31865  0.32222  1.0000
  H   H653      1.0  0.12262  0.33577  0.35920  1.0000
  C   C396      1.0  0.20859  0.24899  0.12773  1.0000
  H   H654      1.0  0.17326  0.25909  0.10091  1.0000
  S   S111      1.0  0.01522  0.27663  0.11872  1.0000
  H   H655      1.0  0.20415  0.29403  0.21677  1.0000
  C   C397      1.0  0.06322  0.24202  0.22726  1.0000
  H   H656      1.0  0.13356  0.25545  0.97551  1.0000
  H   H657      1.0  0.06909  0.28524  0.02005  1.0000
  H   H658      1.0  0.99228  0.28010  0.18991  1.0000
  H   H659      1.0  0.22221  0.26773  0.42633  1.0000
  C   C398      1.0  0.17730  0.40184  0.38333  1.0000
  C   C399      1.0  0.20430  0.40983  0.20902  1.0000
  H   H660      1.0  0.15693  0.26949  0.38979  1.0000
  C   C400      1.0  0.23873  0.31003  0.47038  1.0000
  H   H661      1.0  0.17665  0.38852  0.38731  1.0000
  H   H662      1.0  0.20776  0.26845  0.09482  1.0000
  H   H663      1.0  0.21411  0.36805  0.22893  1.0000
  H   H664      1.0  0.04522  0.28257  0.09442  1.0000
  S   S112      1.0  0.03617  0.24746  0.18929  1.0000
  H   H665      1.0  0.09529  0.34865  0.35201  1.0000
  H   H666      1.0  0.13404  0.42945  0.33065  1.0000
  H   H667      1.0  0.22738  0.38890  0.25401  1.0000
  N   N23       1.0  0.13345  0.34159  0.11780  1.0000
  C   C401      1.0  0.14594  0.34809  0.10290  1.0000
  C   C402      1.0  0.12217  0.33411  0.11258  1.0000
  C   C403      1.0  0.12296  0.35628  0.12511  1.0000
  C   C404      1.0  0.14173  0.32930  0.13097  1.0000
  C   C405      1.0  0.15320  0.31324  0.12604  1.0000
  C   C406      1.0  0.15854  0.35597  0.10632  1.0000
  C   C407      1.0  0.10713  0.35336  0.13863  1.0000
  C   C408      1.0  0.12985  0.32495  0.09801  1.0000
  C   C409      1.0  0.16271  0.30302  0.13944  1.0000
  C   C410      1.0  0.16879  0.36433  0.09024  1.0000
  C   C411      1.0  0.09746  0.36958  0.14398  1.0000
  H   H668      1.0  0.13931  0.35739  0.09365  1.0000
  H   H669      1.0  0.15357  0.33818  0.09634  1.0000
  H   H670      1.0  0.11625  0.32547  0.12339  1.0000
  H   H671      1.0  0.11173  0.34399  0.10836  1.0000
  H   H672      1.0  0.11890  0.36683  0.11510  1.0000
  H   H673      1.0  0.13028  0.36087  0.13104  1.0000
  H   H674      1.0  0.14895  0.33532  0.13562  1.0000
  H   H675      1.0  0.13226  0.32520  0.14200  1.0000
  H   H676      1.0  0.16249  0.31596  0.11438  1.0000
  H   H677      1.0  0.14561  0.30535  0.12463  1.0000
  H   H678      1.0  0.15233  0.36568  0.11354  1.0000
  H   H679      1.0  0.16727  0.34622  0.11315  1.0000
  H   H680      1.0  0.11038  0.34418  0.14979  1.0000
  H   H681      1.0  0.09862  0.34892  0.13408  1.0000
  H   H682      1.0  0.13209  0.33418  0.08615  1.0000
  H   H683      1.0  0.14186  0.31625  0.09920  1.0000
  H   H684      1.0  0.17150  0.30983  0.14050  1.0000
  H   H685      1.0  0.15407  0.30029  0.15161  1.0000
  H   H686      1.0  0.17004  0.29111  0.13606  1.0000
  H   H687      1.0  0.17766  0.36976  0.09318  1.0000
  H   H688      1.0  0.17599  0.35520  0.08252  1.0000
  H   H689      1.0  0.16063  0.37443  0.08304  1.0000
  H   H690      1.0  0.09409  0.37935  0.13320  1.0000
  H   H691      1.0  0.08580  0.36764  0.15304  1.0000
  H   H692      1.0  0.10493  0.37397  0.14990  1.0000
  C   C412      1.0  0.10273  0.33694  0.34823  1.0000
  H   H693      1.0  0.08080  0.26475  0.01768  1.0000
  S   S113      1.0  0.23151  0.31260  0.07505  1.0000
  H   H694      1.0  0.08872  0.27694  0.02640  1.0000
  H   H695      1.0  0.15868  0.35614  0.34741  1.0000
  C   C413      1.0  0.12777  0.34956  0.33300  1.0000
  H   H696      1.0  0.99004  0.29080  0.14471  1.0000
  H   H697      1.0  0.09855  0.32634  0.35775  1.0000
  N   N24       1.0  0.10956  0.32527  0.28813  1.0000
  C   C414      1.0  0.10295  0.33794  0.29887  1.0000
  C   C415      1.0  0.11373  0.30792  0.29869  1.0000
  C   C416      1.0  0.12538  0.32923  0.27644  1.0000
  C   C417      1.0  0.09764  0.32609  0.27780  1.0000
  C   C418      1.0  0.08020  0.32327  0.28731  1.0000
  C   C419      1.0  0.09886  0.35641  0.28987  1.0000
  C   C420      1.0  0.13499  0.31681  0.26511  1.0000
  C   C421      1.0  0.10343  0.30453  0.31678  1.0000
  C   C422      1.0  0.10763  0.28625  0.32535  1.0000
  C   C423      1.0  0.06914  0.32564  0.27526  1.0000
  C   C424      1.0  0.09132  0.36764  0.30233  1.0000
  C   C425      1.0  0.15181  0.32073  0.25563  1.0000
  H   H698      1.0  0.11213  0.33678  0.30628  1.0000
  H   H699      1.0  0.09142  0.33556  0.30796  1.0000
  H   H700      1.0  0.11291  0.29844  0.29250  1.0000
  H   H701      1.0  0.12687  0.30476  0.29999  1.0000
  H   H702      1.0  0.13399  0.33022  0.28355  1.0000
  H   H703      1.0  0.12278  0.34149  0.26781  1.0000
  H   H704      1.0  0.09621  0.33813  0.26862  1.0000
  H   H705      1.0  0.10275  0.31647  0.27025  1.0000
  H   H706      1.0  0.07393  0.33211  0.29554  1.0000
  H   H707      1.0  0.08113  0.31034  0.29469  1.0000
  H   H708      1.0  0.11025  0.36050  0.28200  1.0000
  H   H709      1.0  0.08978  0.35853  0.28211  1.0000
  H   H710      1.0  0.12794  0.31771  0.25577  1.0000
  H   H711      1.0  0.13726  0.30380  0.27222  1.0000
  H   H712      1.0  0.10634  0.31167  0.32418  1.0000
  H   H713      1.0  0.08990  0.30809  0.31734  1.0000
  H   H714      1.0  0.10144  0.28457  0.33867  1.0000
  H   H715      1.0  0.10318  0.27855  0.31979  1.0000
  H   H716      1.0  0.12121  0.28181  0.32435  1.0000
  H   H717      1.0  0.06747  0.33853  0.26769  1.0000
  H   H718      1.0  0.07469  0.31682  0.26686  1.0000
  H   H719      1.0  0.05674  0.32331  0.28227  1.0000
  H   H720      1.0  0.10014  0.36637  0.31014  1.0000
  H   H721      1.0  0.08858  0.38079  0.29560  1.0000
  H   H722      1.0  0.15963  0.31972  0.26434  1.0000
  H   H723      1.0  0.15830  0.31169  0.24761  1.0000
  H   H724      1.0  0.15010  0.33343  0.24765  1.0000
  N   N25       1.0  0.11650  0.27519  0.19261  1.0000
  C   C426      1.0  0.11703  0.25682  0.19844  1.0000
  C   C427      1.0  0.10697  0.28355  0.20679  1.0000
  C   C428      1.0  0.10821  0.28173  0.17807  1.0000
  C   C429      1.0  0.13373  0.27867  0.18727  1.0000
  C   C430      1.0  0.14530  0.27011  0.19962  1.0000
  C   C431      1.0  0.12769  0.24576  0.18609  1.0000
  C   C432      1.0  0.10565  0.30071  0.17091  1.0000
  C   C433      1.0  0.08810  0.28380  0.21220  1.0000
  C   C434      1.0  0.21539  0.38306  0.08051  1.0000
  C   C435      1.0  0.16192  0.27546  0.19322  1.0000
  H   H725      1.0  0.20740  0.24919  0.30664  1.0000
  C   C436      1.0  0.09843  0.30538  0.15547  1.0000
  H   H726      1.0  0.10438  0.25437  0.20134  1.0000
  H   H727      1.0  0.12131  0.25197  0.21026  1.0000
  H   H728      1.0  0.11235  0.27746  0.21791  1.0000
  H   H729      1.0  0.10826  0.29666  0.20388  1.0000
  H   H730      1.0  0.09592  0.27830  0.18121  1.0000
  H   H731      1.0  0.11567  0.27575  0.16762  1.0000
  H   H732      1.0  0.14020  0.27534  0.17512  1.0000
  H   H733      1.0  0.13299  0.29222  0.18517  1.0000
  H   H734      1.0  0.14800  0.25641  0.20147  1.0000
  H   H735      1.0  0.13963  0.27340  0.21183  1.0000
  H   H736      1.0  0.12208  0.24844  0.17521  1.0000
  H   H737      1.0  0.14057  0.24767  0.18161  1.0000
  H   H738      1.0  0.11754  0.30485  0.16714  1.0000
  H   H739      1.0  0.09703  0.30776  0.18007  1.0000
  C   C437      1.0  0.22012  0.28828  0.43767  1.0000
  H   H740      1.0  0.08538  0.27159  0.21354  1.0000
  H   H741      1.0  0.07752  0.25107  0.23832  1.0000
  H   H742      1.0  0.18695  0.40361  0.38862  1.0000
  C   C438      1.0  0.07722  0.27382  0.02575  1.0000
  H   H743      1.0  0.16001  0.28914  0.19137  1.0000
  H   H744      1.0  0.16984  0.26951  0.20243  1.0000
  H   H745      1.0  0.16855  0.27172  0.18133  1.0000
  C   C439      1.0  0.22959  0.41942  0.19489  1.0000
  C   C440      1.0  0.21819  0.39027  0.09362  1.0000
  H   H746      1.0  0.20051  0.47020  0.24682  1.0000
  H   H747      1.0  0.08636  0.30166  0.15846  1.0000
  H   H748      1.0  0.09634  0.31900  0.15067  1.0000
  H   H749      1.0  0.10706  0.29923  0.14560  1.0000
  H   H750      1.0  0.07952  0.36455  0.31034  1.0000
  C   C441      1.0  0.19799  0.24415  0.36335  1.0000
  H   H751      1.0  0.04508  0.31765  0.08822  1.0000
  C   C442      1.0  0.20931  0.25686  0.35548  1.0000
  H   H752      1.0  0.02994  0.26997  0.08570  1.0000
  C   C443      1.0  0.20027  0.27397  0.35897  1.0000
  C   C444      1.0  0.20946  0.39698  0.20031  1.0000
  H   H753      1.0  0.19661  0.24200  0.37695  1.0000
  H   H754      1.0  0.19360  0.39834  0.36019  1.0000
  C   C445      1.0  0.23744  0.30246  0.45650  1.0000
  H   H755      1.0  0.19606  0.23364  0.07506  1.0000
  H   H756      1.0  0.23387  0.33567  0.45654  1.0000
  H   H757      1.0  0.21330  0.25846  0.34187  1.0000
  C   C446      1.0  0.06266  0.27878  0.05446  1.0000
  H   H758      1.0  0.12717  0.34708  0.32121  1.0000
  H   H759      1.0  0.20906  0.28243  0.35454  1.0000
  C   C447      1.0  0.21924  0.35409  0.14452  1.0000
  C   C448      1.0  0.22087  0.33269  0.21276  1.0000
  H   H760      1.0  0.02840  0.30045  0.07227  1.0000
  C   C449      1.0  0.19226  0.24223  0.33133  1.0000
  H   H761      1.0  0.18078  0.23733  0.33651  1.0000
  N   N26       1.0  0.18992  0.34534  0.21031  1.0000
  C   C450      1.0  0.18764  0.32768  0.21613  1.0000
  C   C451      1.0  0.18125  0.35460  0.22406  1.0000
  C   C452      1.0  0.18126  0.35355  0.19609  1.0000
  C   C453      1.0  0.07997  0.23649  0.30055  1.0000
  H   H762      1.0  0.07331  0.24029  0.21618  1.0000
  H   H763      1.0  0.18005  0.45813  0.35605  1.0000
  C   C454      1.0  0.18041  0.37242  0.18944  1.0000
  C   C455      1.0  0.18541  0.34664  0.24130  1.0000
  C   C456      1.0  0.17489  0.35703  0.25395  1.0000
  C   C457      1.0  0.23797  0.33703  0.20731  1.0000
  C   C458      1.0  0.17093  0.37917  0.17554  1.0000
  H   H764      1.0  0.17433  0.32757  0.22197  1.0000
  H   H765      1.0  0.20712  0.35623  0.15340  1.0000
  H   H766      1.0  0.18404  0.36717  0.22069  1.0000
  H   H767      1.0  0.16751  0.35660  0.22582  1.0000
  H   H768      1.0  0.16836  0.35160  0.19962  1.0000
  H   H769      1.0  0.18747  0.34773  0.18523  1.0000
  H   H770      1.0  0.19373  0.42594  0.36293  1.0000
  C   C459      1.0  0.19264  0.31754  0.20249  1.0000
  C   C460      1.0  0.08062  0.28888  0.22883  1.0000
  C   C461      1.0  0.00966  0.23514  0.15719  1.0000
  H   H771      1.0  0.18959  0.25499  0.33342  1.0000
  H   H772      1.0  0.07544  0.24223  0.26953  1.0000
  H   H773      1.0  0.19310  0.37490  0.18455  1.0000
  H   H774      1.0  0.17368  0.37959  0.19913  1.0000
  H   H775      1.0  0.18292  0.33400  0.24609  1.0000
  H   H776      1.0  0.19852  0.34611  0.24080  1.0000
  H   H777      1.0  0.17833  0.35137  0.26613  1.0000
  H   H778      1.0  0.17706  0.36987  0.24997  1.0000
  H   H779      1.0  0.16147  0.35762  0.25550  1.0000
  C   C462      1.0  0.18310  0.42517  0.35834  1.0000
  H   H780      1.0  0.20160  0.24670  0.14079  1.0000
  H   H781      1.0  0.23173  0.25556  0.98478  1.0000
  H   H782      1.0  0.17080  0.39258  0.17072  1.0000
  H   H783      1.0  0.17684  0.37250  0.16533  1.0000
  H   H784      1.0  0.15786  0.37773  0.18023  1.0000
  H   H785      1.0  0.18212  0.29663  0.21828  1.0000
  H   H786      1.0  0.16370  0.41857  0.32982  1.0000
  H   H787      1.0  0.19431  0.42516  0.31629  1.0000
  C   C463      1.0  0.13572  0.36769  0.37277  1.0000
  C   C464      1.0  0.12117  0.33551  0.34689  1.0000
  H   H788      1.0  0.23764  0.23605  0.46688  1.0000
  H   H789      1.0  0.18890  0.40908  0.33296  1.0000
  H   H790      1.0  0.17205  0.40415  0.35983  1.0000
  C   C465      1.0  0.19642  0.33665  0.45370  1.0000
  C   C466      1.0  0.20796  0.34652  0.20431  1.0000
  C   C467      1.0  0.15229  0.25445  0.37579  1.0000
  H   H791      1.0  0.04967  0.25250  0.10356  1.0000
  H   H792      1.0  0.00589  0.24778  0.14957  1.0000
  H   H793      1.0  0.04639  0.30935  0.06226  1.0000
  H   H794      1.0  0.21113  0.26439  0.46863  1.0000
  C   C468      1.0  0.15148  0.27280  0.08176  1.0000
  Fe  Fe58      1.0  0.16234  0.24119  0.02494  1.0000
  H   H795      1.0  0.07367  0.28371  0.05369  1.0000
  H   H796      1.0  0.15354  0.24326  0.38538  1.0000
  C   C469      1.0  0.22001  0.25642  0.39411  1.0000
  H   H797      1.0  0.15488  0.33221  0.31756  1.0000
  H   H798      1.0  0.22577  0.37519  0.14829  1.0000
  C   C470      1.0  0.23886  0.24502  0.99256  1.0000
  C   C471      1.0  0.14210  0.43806  0.32937  1.0000
  H   H799      1.0  0.02630  0.32651  0.08052  1.0000
  C   C472      1.0  0.13326  0.24101  0.24469  1.0000
  C   C473      1.0  0.14842  0.25411  0.36107  1.0000
  H   H800      1.0  0.10595  0.32338  0.09491  1.0000
  C   C474      1.0  0.23455  0.27943  0.44673  1.0000
  H   H801      1.0  0.07687  0.25486  0.04783  1.0000
  H   H802      1.0  0.14532  0.26636  0.09405  1.0000
  H   H803      1.0  0.23913  0.36644  0.13158  1.0000
  H   H804      1.0  0.05383  0.28935  0.04856  1.0000
  H   H805      1.0  0.19989  0.31896  0.32022  1.0000
  H   H806      1.0  0.19333  0.37689  0.13769  1.0000
  C   C475      1.0  0.23706  0.25016  0.00866  1.0000
  C   C476      1.0  0.16862  0.44031  0.33527  1.0000
  H   H807      1.0  0.14600  0.44354  0.31598  1.0000
  H   H808      1.0  0.17608  0.46928  0.33596  1.0000
  C   C477      1.0  0.19190  0.33313  0.47108  1.0000
  N   N27       1.0  0.14506  0.35102  0.33231  1.0000
  H   H809      1.0  0.16887  0.25044  0.07679  1.0000
  H   H810      1.0  0.23341  0.34506  0.16395  1.0000
  H   H811      1.0  0.17860  0.33777  0.33594  1.0000
  C   C478      1.0  0.22498  0.25188  0.06249  1.0000
  C   C479      1.0  0.21717  0.28588  0.47352  1.0000
  H   H812      1.0  0.05720  0.26297  0.04146  1.0000
  H   H813      1.0  0.23919  0.47118  0.26600  1.0000
  H   H814      1.0  0.23016  0.39430  0.08866  1.0000
  H   H815      1.0  0.07232  0.23862  0.17933  1.0000
  H   H816      1.0  0.17409  0.26931  0.06365  1.0000
  C   C480      1.0  0.03415  0.31475  0.08600  1.0000
  H   H817      1.0  0.23406  0.28302  0.41368  1.0000
  C   C481      1.0  0.17574  0.33542  0.32514  1.0000
  H   H818      1.0  0.14685  0.34116  0.35806  1.0000
  N   N28       1.0  0.19779  0.25322  0.08539  1.0000
  C   C482      1.0  0.19887  0.38797  0.13406  1.0000
  H   H819      1.0  0.21226  0.34650  0.19085  1.0000
  H   H820      1.0  0.20471  0.34500  0.44737  1.0000
  C   C483      1.0  0.20617  0.25541  0.09770  1.0000
  C   C484      1.0  0.21831  0.36910  0.23960  1.0000
  H   H821      1.0  0.20597  0.27378  0.06698  1.0000
  H   H822      1.0  0.20159  0.38844  0.20237  1.0000
  N   N29       1.0  0.21689  0.38372  0.12545  1.0000
  H   H823      1.0  0.14792  0.37070  0.37109  1.0000
  H   H824      1.0  0.15486  0.32465  0.33874  1.0000
  C   C485      1.0  0.23292  0.37769  0.23321  1.0000
  C   C486      1.0  0.15707  0.33537  0.32836  1.0000
  H   H825      1.0  0.15259  0.42308  0.34985  1.0000
  H   H826      1.0  0.12796  0.32318  0.34418  1.0000
  H   H827      1.0  0.20756  0.46575  0.34828  1.0000
  H   H828      1.0  0.19189  0.41299  0.11846  1.0000
  H   H829      1.0  0.21186  0.28755  0.41638  1.0000
  H   H830      1.0  0.21444  0.38681  0.33298  1.0000
  C   C487      1.0  0.14657  0.35308  0.34867  1.0000
  H   H831      1.0  0.21862  0.40906  0.11262  1.0000
  H   H832      1.0  0.02397  0.23334  0.07422  1.0000
  H   H833      1.0  0.19482  0.25010  0.44641  1.0000
  C   C488      1.0  0.19790  0.47252  0.34104  1.0000
  C   C489      1.0  0.16931  0.26330  0.07658  1.0000
  C   C490      1.0  0.06301  0.25277  0.09902  1.0000
  H   H834      1.0  0.14425  0.27359  0.07258  1.0000
  H   H835      1.0  0.23259  0.25073  0.07140  1.0000
  H   H836      1.0  0.18035  0.27672  0.08717  1.0000
  H   H837      1.0  0.02670  0.30923  0.09802  1.0000
  H   H838      1.0  0.22206  0.35646  0.24711  1.0000
  H   H839      1.0  0.06557  0.26162  0.10478  1.0000
  H   H840      1.0  0.15126  0.28565  0.08225  1.0000
  H   H841      1.0  0.12624  0.25319  0.24757  1.0000
  H   H842      1.0  0.04316  0.24090  0.08582  1.0000
  H   H843      1.0  0.20943  0.35870  0.20519  1.0000
  C   C491      1.0  0.06821  0.26626  0.04301  1.0000
  H   H844      1.0  0.20311  0.37965  0.08442  1.0000
  H   H845      1.0  0.16110  0.44932  0.34308  1.0000
  H   H846      1.0  0.21813  0.39833  0.31176  1.0000
  H   H847      1.0  0.17052  0.44771  0.32232  1.0000
  H   H848      1.0  0.20033  0.25981  0.05872  1.0000
  Fe  Fe59      1.0  0.23301  0.29260  0.09791  1.0000
  C   C492      1.0  0.18165  0.40671  0.36443  1.0000
  C   C493      1.0  0.02306  0.24663  0.07366  1.0000
  C   C494      1.0  0.05123  0.28647  0.08119  1.0000
  H   H849      1.0  0.21899  0.24782  0.09666  1.0000
  H   H850      1.0  0.13476  0.44813  0.33593  1.0000
  H   H851      1.0  0.21976  0.30177  0.43323  1.0000
  C   C495      1.0  0.03885  0.26753  0.07401  1.0000
  H   H852      1.0  0.08332  0.30092  0.22843  1.0000
  C   C496      1.0  0.19485  0.44598  0.33545  1.0000
  H   H853      1.0  0.05593  0.23229  0.23035  1.0000
  C   C497      1.0  0.22228  0.28114  0.42264  1.0000
  C   C498      1.0  0.19477  0.41982  0.32956  1.0000
  H   H854      1.0  0.18854  0.23608  0.03762  1.0000
  N   N30       1.0  0.18525  0.43243  0.33992  1.0000
  H   H855      1.0  0.19824  0.45030  0.32175  1.0000
  H   H856      1.0  0.07054  0.23235  0.11874  1.0000
  C   C499      1.0  0.06757  0.25846  0.07992  1.0000
  C   C500      1.0  0.10562  0.23329  0.24830  1.0000
  H   H857      1.0  0.22951  0.47189  0.24333  1.0000
  H   H858      1.0  0.21578  0.39239  0.06863  1.0000
  H   H859      1.0  0.19523  0.27320  0.37242  1.0000
  C   C501      1.0  0.07330  0.23557  0.10501  1.0000
  H   H860      1.0  0.20912  0.23822  0.97873  1.0000
  C   C502      1.0  0.23493  0.40637  0.18661  1.0000
  C   C503      1.0  0.19725  0.23537  0.08703  1.0000
  C   C504      1.0  0.03982  0.24912  0.07425  1.0000
  H   H861      1.0  0.22741  0.31131  0.45067  1.0000
  H   H862      1.0  0.17200  0.43271  0.36527  1.0000
  H   H863      1.0  0.18985  0.27931  0.35246  1.0000
  H   H864      1.0  0.23749  0.34861  0.21097  1.0000
  H   H865      1.0  0.19190  0.24028  0.11912  1.0000
  C   C505      1.0  0.18588  0.46160  0.34274  1.0000
  H   H866      1.0  0.20658  0.47344  0.29998  1.0000
  C   C506      1.0  0.22502  0.39499  0.18940  1.0000
  H   H867      1.0  0.20685  0.44109  0.33951  1.0000
  H   H868      1.0  0.22372  0.25311  0.01482  1.0000
  H   H869      1.0  0.21134  0.23374  0.40481  1.0000
  H   H870      1.0  0.13179  0.33236  0.47407  1.0000
  H   H871      1.0  0.19686  0.29227  0.19972  1.0000
  C   C507      1.0  0.19417  0.23685  0.44896  1.0000
  N   N31       1.0  0.23399  0.28524  0.46193  1.0000
  H   H872      1.0  0.22067  0.42225  0.32215  1.0000
  H   H873      1.0  0.23679  0.41252  0.23834  1.0000
  S   S114      1.0  0.23119  0.28515  0.37937  1.0000
  H   H874      1.0  0.01335  0.25032  0.08438  1.0000
  Fe  Fe60      1.0  0.23618  0.32836  0.08968  1.0000
  C   C508      1.0  0.17459  0.31555  0.46980  1.0000
  C   C509      1.0  0.19704  0.25154  0.11613  1.0000
  H   H875      1.0  0.21517  0.41080  0.34305  1.0000
  H   H876      1.0  0.06693  0.29031  0.23175  1.0000
  H   H877      1.0  0.08573  0.27932  0.23888  1.0000
  H   H878      1.0  0.22896  0.38967  0.22492  1.0000
  S   S115      1.0  0.14556  0.23540  0.35850  1.0000
  H   H879      1.0  0.14482  0.23742  0.24945  1.0000
  H   H880      1.0  0.07315  0.24946  0.29674  1.0000
  C   C510      1.0  0.99363  0.27731  0.12593  1.0000
  H   H881      1.0  0.22495  0.26476  0.03688  1.0000
  H   H882      1.0  0.08677  0.23542  0.10055  1.0000
  H   H883      1.0  0.22521  0.37189  0.07838  1.0000
  H   H884      1.0  0.09995  0.23963  0.27972  1.0000
  H   H885      1.0  0.18183  0.23539  0.45693  1.0000
  H   H886      1.0  0.21371  0.26020  0.12527  1.0000
  C   C511      1.0  0.22208  0.23919  0.39912  1.0000
  H   H887      1.0  0.05484  0.25433  0.22419  1.0000
  H   H888      1.0  0.22536  0.24088  0.44448  1.0000
  H   H889      1.0  0.08704  0.23625  0.30968  1.0000
  H   H890      1.0  0.23364  0.39526  0.27463  1.0000
  H   H891      1.0  0.04920  0.24478  0.06375  1.0000
  H   H892      1.0  0.20777  0.37638  0.24729  1.0000
  S   S116      1.0  0.23262  0.37795  0.17982  1.0000
  H   H893      1.0  0.18570  0.25154  0.30734  1.0000
  C   C512      1.0  0.23283  0.26186  0.04600  1.0000
  C   C513      1.0  0.99565  0.25685  0.18284  1.0000
  C   C514      1.0  0.07040  0.24119  0.24189  1.0000
  H   H894      1.0  0.22582  0.32943  0.15963  1.0000
  H   H895      1.0  0.13678  0.24221  0.23110  1.0000
  H   H896      1.0  0.00697  0.25909  0.17330  1.0000
  H   H897      1.0  0.23504  0.26588  0.44975  1.0000
  C   C515      1.0  0.18692  0.47655  0.28764  1.0000
  H   H898      1.0  0.01930  0.25411  0.06199  1.0000
  C   C516      1.0  0.19641  0.24358  0.31265  1.0000
  H   H899      1.0  0.22575  0.23939  0.06060  1.0000
  H   H900      1.0  0.22224  0.32078  0.20928  1.0000
  H   H901      1.0  0.99295  0.26428  0.10810  1.0000
  H   H902      1.0  0.19533  0.23343  0.43708  1.0000
  H   H903      1.0  0.18589  0.23224  0.09612  1.0000
  H   H904      1.0  0.21759  0.23187  0.03940  1.0000
  H   H905      1.0  0.12965  0.34448  0.52521  1.0000
  S   S117      1.0  0.19577  0.33915  0.53219  1.0000
  S   S118      1.0  0.16198  0.31651  0.56339  1.0000
  C   C517      1.0  0.13104  0.24951  0.95358  1.0000
  H   H906      1.0  0.19230  0.27675  0.50045  1.0000
  C   C518      1.0  0.20480  0.39193  0.73294  1.0000
  H   H907      1.0  0.19313  0.39613  0.72837  1.0000
  H   H908      1.0  0.14139  0.34176  0.50474  1.0000
  C   C519      1.0  0.22163  0.37058  0.56382  1.0000
  H   H909      1.0  0.13127  0.25832  0.82012  1.0000
  H   H910      1.0  0.11776  0.33944  0.50155  1.0000
  C   C520      1.0  0.23272  0.23924  0.56014  1.0000
  H   H911      1.0  0.10583  0.31079  0.53405  1.0000
  H   H912      1.0  0.22286  0.34711  0.70245  1.0000
  Fe  Fe61      1.0  0.23817  0.40435  0.63063  1.0000
  C   C521      1.0  0.20048  0.43849  0.59793  1.0000
  H   H913      1.0  0.20388  0.46711  0.60861  1.0000
  C   C522      1.0  0.07194  0.24229  0.74065  1.0000
  S   S119      1.0  0.09687  0.25154  0.85663  1.0000
  H   H914      1.0  0.04432  0.26995  0.79550  1.0000
  S   S120      1.0  0.13906  0.24866  0.58217  1.0000
  H   H915      1.0  0.17017  0.30578  0.94908  1.0000
  H   H916      1.0  0.00810  0.26289  0.75907  1.0000
  H   H917      1.0  0.15622  0.34254  0.53304  1.0000
  H   H918      1.0  0.03016  0.26234  0.82429  1.0000
  H   H919      1.0  0.20160  0.25481  0.85050  1.0000
  C   C523      1.0  0.11719  0.32751  0.49939  1.0000
  H   H920      1.0  0.21415  0.45979  0.64790  1.0000
  H   H921      1.0  0.11953  0.28012  0.68183  1.0000
  Fe  Fe62      1.0  0.13505  0.27804  0.86780  1.0000
  S   S121      1.0  0.12993  0.30580  0.86060  1.0000
  S   S122      1.0  0.11322  0.26838  0.88474  1.0000
  H   H922      1.0  0.14260  0.31363  0.49769  1.0000
  H   H923      1.0  0.11684  0.30257  0.55966  1.0000
  H   H924      1.0  0.12410  0.32159  0.55448  1.0000
  H   H925      1.0  0.22662  0.42775  0.77897  1.0000
  H   H926      1.0  0.19760  0.32955  0.57191  1.0000
  S   S123      1.0  0.22505  0.42707  0.64118  1.0000
  C   C524      1.0  0.21100  0.46045  0.56638  1.0000
  S   S124      1.0  0.12761  0.24204  0.92581  1.0000
  H   H927      1.0  0.14843  0.29833  0.94101  1.0000
  S   S125      1.0  0.13587  0.27234  0.64847  1.0000
  H   H928      1.0  0.22725  0.37269  0.73169  1.0000
  S   S126      1.0  0.11065  0.25560  0.62655  1.0000
  C   C525      1.0  0.15368  0.28329  0.52194  1.0000
  H   H929      1.0  0.17702  0.32008  0.49229  1.0000
  H   H930      1.0  0.10454  0.32524  0.50541  1.0000
  Fe  Fe63      1.0  0.20854  0.33988  0.81611  1.0000
  S   S127      1.0  0.21376  0.31768  0.80524  1.0000
  S   S128      1.0  0.18539  0.34758  0.83448  1.0000
  H   H931      1.0  0.06126  0.25020  0.74757  1.0000
  H   H932      1.0  0.08779  0.31877  0.56106  1.0000
  Fe  Fe64      1.0  0.22123  0.33492  0.78102  1.0000
  S   S129      1.0  0.21333  0.33725  0.75757  1.0000
  H   H933      1.0  0.09795  0.28066  0.91875  1.0000
  S   S130      1.0  0.21372  0.35753  0.79168  1.0000
  Fe  Fe65      1.0  0.17856  0.29633  0.70429  1.0000
  S   S131      1.0  0.20239  0.27711  0.70200  1.0000
  S   S132      1.0  0.17586  0.32110  0.68643  1.0000
  Fe  Fe66      1.0  0.16006  0.27346  0.73275  1.0000
  S   S133      1.0  0.18231  0.25225  0.73268  1.0000
  S   S134      1.0  0.13497  0.27284  0.74969  1.0000
  Fe  Fe67      1.0  0.19626  0.27181  0.72977  1.0000
  S   S135      1.0  0.21434  0.26770  0.74576  1.0000
  Fe  Fe68      1.0  0.18613  0.25965  0.70501  1.0000
  S   S136      1.0  0.19219  0.24162  0.68842  1.0000
  S   S137      1.0  0.17368  0.29256  0.73188  1.0000
  S   S138      1.0  0.16256  0.27926  0.70546  1.0000
  C   C526      1.0  0.23068  0.36901  0.57572  1.0000
  C   C527      1.0  0.21503  0.31788  0.75350  1.0000
  C   C528      1.0  0.20951  0.31703  0.73998  1.0000
  C   C529      1.0  0.20967  0.30158  0.73737  1.0000
  C   C530      1.0  0.21544  0.28696  0.74818  1.0000
  C   C531      1.0  0.22144  0.28782  0.76138  1.0000
  C   C532      1.0  0.22106  0.30328  0.76414  1.0000
  H   H934      1.0  0.20482  0.32828  0.73167  1.0000
  H   H935      1.0  0.20532  0.30098  0.72698  1.0000
  H   H936      1.0  0.22597  0.27658  0.76973  1.0000
  C   C533      1.0  0.22548  0.45953  0.63843  1.0000
  H   H937      1.0  0.21031  0.25983  0.86479  1.0000
  H   H938      1.0  0.23318  0.26095  0.79577  1.0000
  C   C534      1.0  0.22851  0.39588  0.70097  1.0000
  C   C535      1.0  0.10512  0.25322  0.68846  1.0000
  C   C536      1.0  0.23364  0.44481  0.63293  1.0000
  C   C537      1.0  0.15519  0.34559  0.51991  1.0000
  C   C538      1.0  0.15313  0.26377  0.65753  1.0000
  C   C539      1.0  0.15989  0.27404  0.66260  1.0000
  C   C540      1.0  0.17312  0.26728  0.67063  1.0000
  C   C541      1.0  0.17881  0.25011  0.67470  1.0000
  H   H939      1.0  0.11536  0.24770  0.82428  1.0000
  C   C542      1.0  0.15991  0.24667  0.66019  1.0000
  H   H940      1.0  0.15456  0.28715  0.66085  1.0000
  H   H941      1.0  0.17858  0.27535  0.67414  1.0000
  C   C543      1.0  0.08338  0.25305  0.72820  1.0000
  C   C544      1.0  0.23473  0.34231  0.56058  1.0000
  C   C545      1.0  0.13747  0.24983  0.93663  1.0000
  C   C546      1.0  0.15185  0.25590  0.92878  1.0000
  C   C547      1.0  0.15974  0.26155  0.93779  1.0000
  C   C548      1.0  0.15322  0.26144  0.95466  1.0000
  H   H942      1.0  0.15704  0.25600  0.91583  1.0000
  H   H943      1.0  0.17099  0.26603  0.93165  1.0000
  C   C549      1.0  0.14593  0.31666  0.85233  1.0000
  C   C550      1.0  0.16249  0.30884  0.84700  1.0000
  C   C551      1.0  0.17485  0.31826  0.84098  1.0000
  C   C552      1.0  0.17055  0.33535  0.84060  1.0000
  C   C553      1.0  0.15398  0.34302  0.84576  1.0000
  C   C554      1.0  0.14171  0.33376  0.85134  1.0000
  H   H944      1.0  0.16575  0.29560  0.84766  1.0000
  H   H945      1.0  0.18770  0.31226  0.83719  1.0000
  H   H946      1.0  0.15063  0.35621  0.84543  1.0000
  H   H947      1.0  0.12890  0.33987  0.85520  1.0000
  C   C555      1.0  0.08478  0.23631  0.84004  1.0000
  H   H948      1.0  0.19856  0.44347  0.54027  1.0000
  C   C556      1.0  0.13935  0.24190  0.74400  1.0000
  C   C557      1.0  0.12875  0.25449  0.75168  1.0000
  C   C558      1.0  0.11303  0.25240  0.76109  1.0000
  H   H949      1.0  0.20975  0.23388  0.54061  1.0000
  H   H950      1.0  0.11464  0.26506  0.71952  1.0000
  H   H951      1.0  0.15138  0.24353  0.73648  1.0000
  H   H952      1.0  0.10472  0.26223  0.76687  1.0000
  H   H953      1.0  0.18565  0.45114  0.55815  1.0000
  H   H954      1.0  0.15222  0.35931  0.51572  1.0000
  H   H955      1.0  0.21743  0.30682  0.65511  1.0000
  H   H956      1.0  0.15203  0.25999  0.54021  1.0000
  S   S139      1.0  0.22577  0.27078  0.51685  1.0000
  H   H957      1.0  0.14605  0.26134  0.52131  1.0000
  C   C559      1.0  0.21899  0.43978  0.59158  1.0000
  H   H958      1.0  0.16964  0.24834  0.79656  1.0000
  C   C560      1.0  0.21333  0.25560  0.85301  1.0000
  H   H959      1.0  0.09609  0.28954  0.80334  1.0000
  H   H960      1.0  0.20720  0.31992  0.62966  1.0000
  C   C561      1.0  0.11948  0.32949  0.48074  1.0000
  H   H961      1.0  0.10467  0.28150  0.82166  1.0000
  H   H962      1.0  0.02071  0.25668  0.81098  1.0000
  C   C562      1.0  0.09889  0.24222  0.71891  1.0000
  H   H963      1.0  0.09086  0.27124  0.81794  1.0000
  Fe  Fe69      1.0  0.11818  0.25142  0.86743  1.0000
  C   C563      1.0  0.18800  0.32265  0.60637  1.0000
  H   H964      1.0  0.07912  0.24874  0.83442  1.0000
  Fe  Fe70      1.0  0.18575  0.31610  0.54420  1.0000
  C   C564      1.0  0.22487  0.33821  0.66815  1.0000
  C   C565      1.0  0.22286  0.32504  0.68183  1.0000
  C   C566      1.0  0.20773  0.31996  0.68760  1.0000
  C   C567      1.0  0.19457  0.32793  0.67967  1.0000
  C   C568      1.0  0.19654  0.34116  0.66602  1.0000
  C   C569      1.0  0.21173  0.34621  0.66017  1.0000
  S   S140      1.0  0.16350  0.26911  0.96515  1.0000
  H   H965      1.0  0.20623  0.30992  0.69826  1.0000
  H   H966      1.0  0.18639  0.34737  0.65983  1.0000
  H   H967      1.0  0.21323  0.35625  0.64950  1.0000
  C   C570      1.0  0.15614  0.29738  0.56904  1.0000
  C   C571      1.0  0.16568  0.28429  0.56147  1.0000
  C   C572      1.0  0.16046  0.26928  0.56558  1.0000
  C   C573      1.0  0.14583  0.26725  0.57741  1.0000
  C   C574      1.0  0.13654  0.28019  0.58527  1.0000
  C   C575      1.0  0.14159  0.29531  0.58094  1.0000
  H   H968      1.0  0.17703  0.28575  0.55241  1.0000
  H   H969      1.0  0.16782  0.25924  0.55965  1.0000
  H   H970      1.0  0.12527  0.27866  0.59447  1.0000
  H   H971      1.0  0.13423  0.30538  0.58687  1.0000
  C   C576      1.0  0.18093  0.32255  0.47904  1.0000
  S   S141      1.0  0.22810  0.38620  0.58454  1.0000
  C   C577      1.0  0.23310  0.25405  0.53169  1.0000
  H   H972      1.0  0.21666  0.35873  0.54708  1.0000
  C   C578      1.0  0.19852  0.42321  0.61186  1.0000
  S   S142      1.0  0.19023  0.30775  0.52062  1.0000
  C   C579      1.0  0.13878  0.25546  0.96254  1.0000
  H   H973      1.0  0.20946  0.36687  0.73043  1.0000
  H   H974      1.0  0.20599  0.23727  0.64977  1.0000
  H   H975      1.0  0.23142  0.46548  0.59324  1.0000
  C   C580      1.0  0.21852  0.25240  0.62872  1.0000
  H   H976      1.0  0.15538  0.28721  0.50831  1.0000
  H   H977      1.0  0.22015  0.23659  0.51090  1.0000
  H   H978      1.0  0.17088  0.25839  0.76533  1.0000
  H   H979      1.0  0.17588  0.27181  0.77502  1.0000
  C   C581      1.0  0.14498  0.31930  0.52421  1.0000
  H   H980      1.0  0.15690  0.31442  0.51623  1.0000
  C   C582      1.0  0.10098  0.27804  0.81190  1.0000
  H   H981      1.0  0.11855  0.31795  0.47790  1.0000
  H   H982      1.0  0.11478  0.25749  0.67770  1.0000
  H   H983      1.0  0.15496  0.23860  0.65613  1.0000
  H   H984      1.0  0.20308  0.42377  0.62251  1.0000
  S   S143      1.0  0.20934  0.30008  0.55084  1.0000
  H   H985      1.0  0.16939  0.34467  0.59799  1.0000
  H   H986      1.0  0.04805  0.24909  0.79282  1.0000
  H   H987      1.0  0.00884  0.23338  0.82048  1.0000
  H   H988      1.0  0.21961  0.27756  0.58821  1.0000
  H   H989      1.0  0.05821  0.25358  0.80646  1.0000
  H   H990      1.0  0.15563  0.28409  0.60880  1.0000
  H   H991      1.0  0.13576  0.27036  0.69320  1.0000
  C   C583      1.0  0.12157  0.29390  0.69817  1.0000
  H   H992      1.0  0.19734  0.39185  0.70341  1.0000
  S   S144      1.0  0.15339  0.26059  0.88222  1.0000
  C   C584      1.0  0.14757  0.24579  0.79018  1.0000
  H   H993      1.0  0.23454  0.39738  0.71024  1.0000
  H   H994      1.0  0.14767  0.31608  0.53675  1.0000
  H   H995      1.0  0.12736  0.30149  0.50489  1.0000
  H   H996      1.0  0.15291  0.32322  0.94706  1.0000
  H   H997      1.0  0.22389  0.43918  0.60250  1.0000
  H   H998      1.0  0.21712  0.26191  0.63581  1.0000
  C   C585      1.0  0.18900  0.34002  0.57720  1.0000
  C   C586      1.0  0.09774  0.32433  0.56181  1.0000
  H   H999      1.0  0.15579  0.27677  0.76999  1.0000
  C   C587      1.0  0.11469  0.31578  0.55303  1.0000
  C   C588      1.0  0.20016  0.38706  0.75184  1.0000
  H   H1000     1.0  0.08656  0.25575  0.66577  1.0000
  N   N32       1.0  0.16418  0.32106  0.78901  1.0000
  C   C589      1.0  0.16962  0.32330  0.77046  1.0000
  C   C590      1.0  0.17835  0.30984  0.79658  1.0000
  C   C591      1.0  0.14899  0.31373  0.79474  1.0000
  C   C592      1.0  0.15988  0.33739  0.79430  1.0000
  C   C593      1.0  0.17300  0.34828  0.78696  1.0000
  C   C594      1.0  0.15710  0.33546  0.76031  1.0000
  C   C595      1.0  0.14265  0.30902  0.81377  1.0000
  C   C596      1.0  0.18273  0.29145  0.79508  1.0000
  C   C597      1.0  0.19631  0.28114  0.80438  1.0000
  C   C598      1.0  0.16741  0.36417  0.79361  1.0000
  C   C599      1.0  0.16511  0.33889  0.74184  1.0000
  C   C600      1.0  0.12806  0.30061  0.81807  1.0000
  H   H1001     1.0  0.17232  0.31122  0.76676  1.0000
  H   H1002     1.0  0.18157  0.32739  0.76602  1.0000
  H   H1003     1.0  0.18987  0.31455  0.79056  1.0000
  H   H1004     1.0  0.17610  0.31009  0.80988  1.0000
  H   H1005     1.0  0.15103  0.30267  0.78946  1.0000
  H   H1006     1.0  0.13842  0.32269  0.78984  1.0000
  H   H1007     1.0  0.14782  0.34502  0.79144  1.0000
  H   H1008     1.0  0.15790  0.33520  0.80801  1.0000
  H   H1009     1.0  0.17501  0.35205  0.77328  1.0000
  H   H1010     1.0  0.18504  0.34152  0.79028  1.0000
  H   H1011     1.0  0.14626  0.33002  0.76198  1.0000
  H   H1012     1.0  0.15254  0.34756  0.76405  1.0000
  H   H1013     1.0  0.13830  0.32027  0.81910  1.0000
  H   H1014     1.0  0.15243  0.30034  0.81999  1.0000
  H   H1015     1.0  0.17189  0.28557  0.80037  1.0000
  H   H1016     1.0  0.18741  0.29057  0.78193  1.0000
  H   H1017     1.0  0.19932  0.26810  0.80294  1.0000
  H   H1018     1.0  0.20778  0.28608  0.79934  1.0000
  H   H1019     1.0  0.19208  0.28120  0.81779  1.0000
  H   H1020     1.0  0.17699  0.37175  0.78822  1.0000
  H   H1021     1.0  0.15555  0.37166  0.79024  1.0000
  H   H1022     1.0  0.16576  0.36116  0.80729  1.0000
  H   H1023     1.0  0.15575  0.34697  0.73471  1.0000
  H   H1024     1.0  0.17542  0.34530  0.73942  1.0000
  H   H1025     1.0  0.17005  0.32713  0.73736  1.0000
  H   H1026     1.0  0.11778  0.30880  0.81222  1.0000
  H   H1027     1.0  0.13214  0.28874  0.81387  1.0000
  H   H1028     1.0  0.12329  0.29789  0.83169  1.0000
  S   S145      1.0  0.23813  0.32547  0.55103  1.0000
  Fe  Fe71      1.0  0.13096  0.24117  0.60981  1.0000
  C   C601      1.0  0.16575  0.26647  0.77439  1.0000
  H   H1029     1.0  0.20204  0.37004  0.70590  1.0000
  H   H1030     1.0  0.13066  0.30050  0.68868  1.0000
  H   H1031     1.0  0.09508  0.33784  0.55623  1.0000
  C   C602      1.0  0.13697  0.29259  0.53125  1.0000
  C   C603      1.0  0.21041  0.38373  0.68110  1.0000
  C   C604      1.0  0.12493  0.25280  0.81404  1.0000
  H   H1032     1.0  0.21882  0.25995  0.48715  1.0000
  H   H1033     1.0  0.08718  0.27730  0.68873  1.0000
  C   C605      1.0  0.04656  0.25666  0.80193  1.0000
  H   H1034     1.0  0.22516  0.30392  0.77464  1.0000
  H   H1035     1.0  0.20549  0.41175  0.60734  1.0000
  H   H1036     1.0  0.17182  0.32251  0.93105  1.0000
  S   S146      1.0  0.22403  0.38586  0.63076  1.0000
  H   H1037     1.0  0.16767  0.25804  0.52154  1.0000
  H   H1038     1.0  0.19810  0.23826  0.51595  1.0000
  N   N33       1.0  0.13179  0.31090  0.52400  1.0000
  H   H1039     1.0  0.09562  0.27381  0.65966  1.0000
  H   H1040     1.0  0.19373  0.37654  0.75593  1.0000
  C   C606      1.0  0.16322  0.31501  0.94010  1.0000
  H   H1041     1.0  0.08732  0.25978  0.73528  1.0000
  C   C607      1.0  0.15491  0.26452  0.52657  1.0000
  C   C608      1.0  0.22692  0.25337  0.54866  1.0000
  H   H1042     1.0  0.21885  0.26494  0.84273  1.0000
  N   N34       1.0  0.22274  0.45469  0.57805  1.0000
  H   H1043     1.0  0.10441  0.24108  0.68679  1.0000
  H   H1044     1.0  0.21311  0.38218  0.56032  1.0000
  C   C609      1.0  0.19316  0.27200  0.48939  1.0000
  H   H1045     1.0  0.21756  0.26356  0.55288  1.0000
  H   H1046     1.0  0.19866  0.23757  0.89887  1.0000
  N   N35       1.0  0.17826  0.31438  0.62250  1.0000
  C   C610      1.0  0.16637  0.32767  0.63095  1.0000
  C   C611      1.0  0.16845  0.30369  0.61963  1.0000
  C   C612      1.0  0.19029  0.30342  0.63302  1.0000
  C   C613      1.0  0.19942  0.31248  0.63987  1.0000
  C   C614      1.0  0.15635  0.32147  0.64854  1.0000
  C   C615      1.0  0.17824  0.29152  0.60806  1.0000
  C   C616      1.0  0.21076  0.30005  0.65071  1.0000
  C   C617      1.0  0.14658  0.33596  0.65676  1.0000
  C   C618      1.0  0.16872  0.27832  0.60963  1.0000
  H   H1047     1.0  0.15692  0.33492  0.62357  1.0000
  H   H1048     1.0  0.17299  0.33692  0.63150  1.0000
  H   H1049     1.0  0.15750  0.31144  0.61451  1.0000
  H   H1050     1.0  0.16296  0.29619  0.63161  1.0000
  H   H1051     1.0  0.18399  0.29497  0.64371  1.0000
  H   H1052     1.0  0.20014  0.29499  0.62593  1.0000
  H   H1053     1.0  0.19052  0.32083  0.64765  1.0000
  H   H1054     1.0  0.14729  0.31481  0.64777  1.0000
  H   H1055     1.0  0.16447  0.31305  0.65683  1.0000
  H   H1056     1.0  0.19048  0.28492  0.61092  1.0000
  H   H1057     1.0  0.18036  0.29837  0.59494  1.0000
  H   H1058     1.0  0.22010  0.29126  0.64363  1.0000
  H   H1059     1.0  0.10970  0.33985  0.47610  1.0000
  H   H1060     1.0  0.20334  0.29300  0.66173  1.0000
  H   H1061     1.0  0.13779  0.34467  0.64929  1.0000
  H   H1062     1.0  0.13940  0.33115  0.66924  1.0000
  H   H1063     1.0  0.15518  0.34273  0.65832  1.0000
  H   H1064     1.0  0.16885  0.26934  0.62169  1.0000
  H   H1065     1.0  0.18199  0.24216  0.59363  1.0000
  H   H1066     1.0  0.17460  0.27145  0.59954  1.0000
  H   H1067     1.0  0.16993  0.32676  0.59077  1.0000
  H   H1068     1.0  0.19630  0.34784  0.57922  1.0000
  H   H1069     1.0  0.19172  0.39777  0.75685  1.0000
  Fe  Fe72      1.0  0.21499  0.29430  0.52583  1.0000
  C   C619      1.0  0.00635  0.23598  0.86980  1.0000
  H   H1070     1.0  0.07607  0.26236  0.71971  1.0000
  C   C620      1.0  0.11566  0.26726  0.80223  1.0000
  C   C621      1.0  0.22174  0.23508  0.97082  1.0000
  H   H1071     1.0  0.21717  0.28935  0.48504  1.0000
  C   C622      1.0  0.22227  0.46905  0.58524  1.0000
  H   H1072     1.0  0.19782  0.31326  0.60041  1.0000
  H   H1073     1.0  0.21264  0.39635  0.67496  1.0000
  H   H1074     1.0  0.15412  0.23661  0.82137  1.0000
  H   H1075     1.0  0.16732  0.34075  0.51215  1.0000
  H   H1076     1.0  0.07799  0.25927  0.69485  1.0000
  C   C623      1.0  0.22526  0.23858  0.85425  1.0000
  N   N36       1.0  0.13978  0.31084  0.90882  1.0000
  C   C624      1.0  0.14641  0.31840  0.91884  1.0000
  C   C625      1.0  0.13228  0.32463  0.89606  1.0000
  C   C626      1.0  0.12704  0.30147  0.92040  1.0000
  C   C627      1.0  0.15335  0.29890  0.89991  1.0000
  C   C628      1.0  0.16876  0.30571  0.88907  1.0000
  C   C629      1.0  0.15646  0.30595  0.93131  1.0000
  C   C630      1.0  0.11781  0.29395  0.91209  1.0000
  C   C631      1.0  0.11633  0.33678  0.90280  1.0000
  C   C632      1.0  0.10983  0.34988  0.88864  1.0000
  C   C633      1.0  0.18199  0.29211  0.88164  1.0000
  H   H1077     1.0  0.22566  0.42801  0.58742  1.0000
  C   C634      1.0  0.10377  0.28679  0.92477  1.0000
  H   H1078     1.0  0.13602  0.32612  0.92629  1.0000
  H   H1079     1.0  0.15420  0.32717  0.91060  1.0000
  H   H1080     1.0  0.14145  0.33231  0.88861  1.0000
  H   H1081     1.0  0.12944  0.31950  0.88692  1.0000
  H   H1082     1.0  0.11772  0.30939  0.92848  1.0000
  H   H1083     1.0  0.13298  0.29081  0.92913  1.0000
  H   H1084     1.0  0.15764  0.28743  0.90881  1.0000
  H   H1085     1.0  0.14842  0.29466  0.89147  1.0000
  H   H1086     1.0  0.17459  0.31039  0.89634  1.0000
  H   H1087     1.0  0.16528  0.31597  0.87870  1.0000
  H   H1088     1.0  0.00440  0.25871  0.87764  1.0000
  H   H1089     1.0  0.16719  0.29754  0.92511  1.0000
  H   H1090     1.0  0.12651  0.28369  0.90655  1.0000
  H   H1091     1.0  0.11224  0.30329  0.90224  1.0000
  H   H1092     1.0  0.10625  0.33017  0.90985  1.0000
  H   H1093     1.0  0.11881  0.34336  0.91097  1.0000
  H   H1094     1.0  0.09864  0.35866  0.89373  1.0000
  H   H1095     1.0  0.11940  0.35702  0.88109  1.0000
  H   H1096     1.0  0.10634  0.34390  0.88055  1.0000
  H   H1097     1.0  0.17686  0.28681  0.87426  1.0000
  H   H1098     1.0  0.19256  0.29745  0.87333  1.0000
  H   H1099     1.0  0.18668  0.28202  0.89158  1.0000
  C   C635      1.0  0.17260  0.23981  0.66900  1.0000
  C   C636      1.0  0.21642  0.37701  0.72570  1.0000
  C   C637      1.0  0.08590  0.26774  0.66877  1.0000
  N   N37       1.0  0.22217  0.37997  0.70704  1.0000
  H   H1100     1.0  0.10858  0.27736  0.93506  1.0000
  H   H1101     1.0  0.09410  0.29679  0.92989  1.0000
  H   H1102     1.0  0.19792  0.46359  0.57310  1.0000
  Fe  Fe73      1.0  0.15545  0.24356  0.86577  1.0000
  H   H1103     1.0  0.09839  0.27573  0.70908  1.0000
  S   S147      1.0  0.15080  0.23982  0.62254  1.0000
  H   H1104     1.0  0.13359  0.24131  0.71256  1.0000
  H   H1105     1.0  0.21086  0.40261  0.72968  1.0000
  C   C638      1.0  0.15891  0.25653  0.79139  1.0000
  H   H1106     1.0  0.22099  0.37430  0.67621  1.0000
  H   H1107     1.0  0.13985  0.25300  0.78105  1.0000
  H   H1108     1.0  0.11074  0.26269  0.79412  1.0000
  H   H1109     1.0  0.12450  0.29185  0.71047  1.0000
  H   H1110     1.0  0.18139  0.34770  0.56811  1.0000
  S   S148      1.0  0.22766  0.31530  0.51304  1.0000
  H   H1111     1.0  0.22584  0.24704  0.96602  1.0000
  H   H1112     1.0  0.23057  0.25184  0.61958  1.0000
  C   C639      1.0  0.03185  0.25358  0.81631  1.0000
  H   H1113     1.0  0.07356  0.27589  0.66758  1.0000
  H   H1114     1.0  0.19227  0.36990  0.68181  1.0000
  H   H1115     1.0  0.18414  0.39200  0.68030  1.0000
  H   H1116     1.0  0.01437  0.25379  0.84831  1.0000
  Fe  Fe74      1.0  0.21992  0.32265  0.53770  1.0000
  Fe  Fe75      1.0  0.13192  0.24936  0.89775  1.0000
  H   H1117     1.0  0.13852  0.29046  0.54411  1.0000
  C   C640      1.0  0.17768  0.33364  0.59348  1.0000
  C   C641      1.0  0.20745  0.38123  0.70009  1.0000
  Fe  Fe76      1.0  0.20235  0.32929  0.50878  1.0000
  C   C642      1.0  0.22640  0.28660  0.58884  1.0000
  H   H1118     1.0  0.18522  0.42262  0.61618  1.0000
  H   H1119     1.0  0.10893  0.30187  0.69821  1.0000
  C   C643      1.0  0.11518  0.31736  0.53449  1.0000
  H   H1120     1.0  0.11992  0.24482  0.95977  1.0000
  H   H1121     1.0  0.13578  0.24497  0.69092  1.0000
  H   H1122     1.0  0.19738  0.38433  0.66256  1.0000
  H   H1123     1.0  0.99594  0.28364  0.75941  1.0000
  H   H1124     1.0  0.19542  0.46508  0.54051  1.0000
  H   H1125     1.0  0.21035  0.25562  0.94353  1.0000
  H   H1126     1.0  0.23297  0.31875  0.68802  1.0000
  C   C644      1.0  0.00722  0.24505  0.88243  1.0000
  H   H1127     1.0  0.22664  0.31192  0.47931  1.0000
  H   H1128     1.0  0.21324  0.47229  0.55763  1.0000
  H   H1129     1.0  0.99916  0.23239  0.77512  1.0000
  H   H1130     1.0  0.07871  0.23298  0.74971  1.0000
  H   H1131     1.0  0.19467  0.24402  0.95531  1.0000
  C   C645      1.0  0.19508  0.38240  0.67622  1.0000
  C   C646      1.0  0.14155  0.33840  0.51809  1.0000
  H   H1132     1.0  0.19479  0.33087  0.60860  1.0000
  H   H1133     1.0  0.21146  0.38335  0.75706  1.0000
  H   H1134     1.0  0.21794  0.40681  0.69970  1.0000
  H   H1135     1.0  0.15229  0.26543  0.79947  1.0000
  C   C647      1.0  0.12769  0.24036  0.70296  1.0000
  H   H1136     1.0  0.19538  0.43718  0.58797  1.0000
  H   H1137     1.0  0.12697  0.28618  0.53218  1.0000
  H   H1138     1.0  0.12424  0.27529  0.79417  1.0000
  H   H1139     1.0  0.09769  0.32272  0.57508  1.0000
  H   H1140     1.0  0.16418  0.28578  0.52538  1.0000
  H   H1141     1.0  0.11034  0.33067  0.52948  1.0000
  S   S149      1.0  0.13916  0.26221  0.84973  1.0000
  N   N38       1.0  0.13681  0.23898  0.80632  1.0000
  C   C648      1.0  0.21225  0.44803  0.55570  1.0000
  C   C649      1.0  0.22360  0.35730  0.55631  1.0000
  H   H1142     1.0  0.19260  0.44950  0.60263  1.0000
  N   N39       1.0  0.11026  0.25104  0.70446  1.0000
  C   C650      1.0  0.11084  0.26732  0.70755  1.0000
  Fe  Fe77      1.0  0.13038  0.25227  0.64031  1.0000
  H   H1143     1.0  0.22735  0.24189  0.80798  1.0000
  C   C651      1.0  0.13040  0.31276  0.50636  1.0000
  C   C652      1.0  0.08823  0.26496  0.68639  1.0000
  C   C653      1.0  0.12269  0.27734  0.69408  1.0000
  H   H1144     1.0  0.21886  0.44832  0.76783  1.0000
  C   C654      1.0  0.23181  0.47399  0.63161  1.0000
  H   H1145     1.0  0.20682  0.23996  0.93550  1.0000
  C   C655      1.0  0.20718  0.24323  0.94697  1.0000
  H   H1146     1.0  0.18909  0.26004  0.49355  1.0000
  C   C656      1.0  0.99731  0.27223  0.75501  1.0000
  C   C657      1.0  0.23695  0.24721  0.79791  1.0000
  S   S150      1.0  0.19975  0.34242  0.48250  1.0000
  H   H1147     1.0  0.22338  0.28818  0.60178  1.0000
  H   H1148     1.0  0.22822  0.23868  0.57327  1.0000
  C   C658      1.0  0.10795  0.23773  0.76284  1.0000
  H   H1149     1.0  0.18457  0.23363  0.92780  1.0000
  C   C659      1.0  0.23176  0.34812  0.70916  1.0000
  H   H1150     1.0  0.22629  0.24530  0.77904  1.0000
  H   H1151     1.0  0.22330  0.44853  0.54530  1.0000
  H   H1152     1.0  0.22221  0.29882  0.58082  1.0000
  H   H1153     1.0  0.22637  0.34550  0.72256  1.0000
  S   S151      1.0  0.23404  0.33545  0.82063  1.0000
  H   H1154     1.0  0.23311  0.42404  0.67542  1.0000
  H   H1155     1.0  0.21360  0.43506  0.56303  1.0000
  H   H1156     1.0  0.99990  0.27513  0.74127  1.0000
  H   H1157     1.0  0.20329  0.23182  0.59467  1.0000
  H   H1158     1.0  0.17847  0.23400  0.90061  1.0000
  H   H1159     1.0  0.20821  0.25623  0.62208  1.0000
  C   C660      1.0  0.19700  0.45226  0.54822  1.0000
  C   C661      1.0  0.23607  0.36548  0.70303  1.0000
  H   H1160     1.0  0.06707  0.23572  0.73421  1.0000
  C   C662      1.0  0.00548  0.23475  0.83358  1.0000
  C   C663      1.0  0.21095  0.26943  0.47922  1.0000
  H   H1161     1.0  0.18466  0.28088  0.48173  1.0000
  H   H1162     1.0  0.19830  0.23993  0.76794  1.0000
  H   H1163     1.0  0.99921  0.24804  0.83317  1.0000
  C   C664      1.0  0.21794  0.23556  0.64064  1.0000
  H   H1164     1.0  0.16600  0.30752  0.47606  1.0000
  C   C665      1.0  0.22908  0.44044  0.77394  1.0000
  C   C666      1.0  0.20568  0.47593  0.59642  1.0000
  H   H1165     1.0  0.22608  0.47948  0.57508  1.0000
  H   H1166     1.0  0.99350  0.24007  0.86779  1.0000
  H   H1167     1.0  0.11935  0.23643  0.79369  1.0000
  H   H1168     1.0  0.99796  0.24201  0.89408  1.0000
  C   C667      1.0  0.01878  0.24033  0.85326  1.0000
  H   H1169     1.0  0.19487  0.47809  0.59090  1.0000
  H   H1170     1.0  0.03097  0.23935  0.85608  1.0000
  H   H1171     1.0  0.01975  0.24113  0.88533  1.0000
  H   H1172     1.0  0.09565  0.23638  0.76974  1.0000
  H   H1173     1.0  0.22923  0.44554  0.78443  1.0000
  H   H1174     1.0  0.15597  0.23553  0.78439  1.0000
  C   C668      1.0  0.03501  0.23531  0.82627  1.0000
  C   C669      1.0  0.09409  0.23393  0.85188  1.0000
  H   H1175     1.0  0.10576  0.23508  0.72869  1.0000
  H   H1176     1.0  0.22725  0.23483  0.84239  1.0000
  H   H1177     1.0  0.04643  0.23351  0.83083  1.0000
  H   H1178     1.0  0.22855  0.23367  0.75864  1.0000
  H   H1179     1.0  0.18387  0.23186  0.56738  1.0000
  H   H1180     1.0  0.22822  0.23227  0.64723  1.0000
  H   H1181     1.0  0.09480  0.23287  0.71508  1.0000
  H   H1182     1.0  0.23863  0.39413  0.67463  1.0000
  C   C670      1.0  0.23876  0.24158  0.78198  1.0000
  C   C671      1.0  0.09644  0.68993  0.09215  1.0000
  Fe  Fe78      1.0  0.21632  0.57364  0.26686  1.0000
  S   S152      1.0  0.19312  0.57134  0.28609  1.0000
  S   S153      1.0  0.21438  0.59608  0.24581  1.0000
  C   C672      1.0  0.18808  0.65923  0.14567  1.0000
  Fe  Fe79      1.0  0.20899  0.56591  0.30457  1.0000
  H   H1183     1.0  0.15703  0.70637  0.13366  1.0000
  H   H1184     1.0  0.18865  0.57884  0.12126  1.0000
  H   H1185     1.0  0.11954  0.62776  0.30016  1.0000
  C   C673      1.0  0.19139  0.61901  0.42757  1.0000
  H   H1186     1.0  0.19155  0.59266  0.19454  1.0000
  Fe  Fe80      1.0  0.21134  0.65851  0.37627  1.0000
  H   H1187     1.0  0.19081  0.60487  0.46035  1.0000
  S   S154      1.0  0.18624  0.67471  0.37384  1.0000
  S   S155      1.0  0.20494  0.64470  0.07740  1.0000
  C   C674      1.0  0.21336  0.69213  0.30761  1.0000
  H   H1188     1.0  0.20462  0.61992  0.42247  1.0000
  H   H1189     1.0  0.06655  0.71859  0.21471  1.0000
  S   S156      1.0  0.21648  0.63110  0.38709  1.0000
  S   S157      1.0  0.22613  0.66429  0.39088  1.0000
  H   H1190     1.0  0.13763  0.60397  0.29713  1.0000
  Fe  Fe81      1.0  0.13641  0.62824  0.20826  1.0000
  S   S158      1.0  0.13934  0.65226  0.21110  1.0000
  S   S159      1.0  0.15336  0.60318  0.21470  1.0000
  Fe  Fe82      1.0  0.10402  0.64409  0.19665  1.0000
  S   S160      1.0  0.10379  0.66961  0.19864  1.0000
  S   S161      1.0  0.08609  0.63686  0.18677  1.0000
  Fe  Fe83      1.0  0.13084  0.66339  0.18734  1.0000
  S   S162      1.0  0.14291  0.68183  0.16730  1.0000
  Fe  Fe84      1.0  0.11211  0.65666  0.22232  1.0000
  S   S163      1.0  0.10461  0.66753  0.24475  1.0000
  S   S164      1.0  0.13051  0.63892  0.18312  1.0000
  S   S165      1.0  0.10966  0.63156  0.22166  1.0000
  C   C675      1.0  0.10218  0.64128  0.07898  1.0000
  Fe  Fe85      1.0  0.16632  0.69785  0.29050  1.0000
  S   S166      1.0  0.18390  0.70008  0.26573  1.0000
  S   S167      1.0  0.17010  0.67250  0.30726  1.0000
  Fe  Fe86      1.0  0.16141  0.71462  0.25583  1.0000
  S   S168      1.0  0.15701  0.71126  0.23250  1.0000
  S   S169      1.0  0.14353  0.71068  0.28034  1.0000
  H   H1191     1.0  0.21320  0.70146  0.09107  1.0000
  H   H1192     1.0  0.19343  0.71460  0.09823  1.0000
  Fe  Fe87      1.0  0.04218  0.71078  0.13321  1.0000
  C   C676      1.0  0.20282  0.69444  0.11750  1.0000
  S   S170      1.0  0.05916  0.68751  0.12635  1.0000
  C   C677      1.0  0.19718  0.48227  0.29401  1.0000
  H   H1193     1.0  0.12905  0.64875  0.46953  1.0000
  H   H1194     1.0  0.23142  0.72187  0.45077  1.0000
  S   S171      1.0  0.02599  0.71165  0.15844  1.0000
  H   H1195     1.0  0.22182  0.51490  0.25011  1.0000
  Fe  Fe88      1.0  0.13869  0.72010  0.05718  1.0000
  C   C678      1.0  0.22774  0.48559  0.23880  1.0000
  S   S172      1.0  0.14156  0.70365  0.08221  1.0000
  Fe  Fe89      1.0  0.14443  0.72264  0.02011  1.0000
  C   C679      1.0  0.09956  0.64706  0.29233  1.0000
  H   H1196     1.0  0.13135  0.63620  0.45501  1.0000
  H   H1197     1.0  0.23707  0.58792  0.17286  1.0000
  C   C680      1.0  0.14430  0.70992  0.98486  1.0000
  S   S173      1.0  0.12313  0.71727  0.04132  1.0000
  C   C681      1.0  0.22002  0.72910  0.13474  1.0000
  H   H1198     1.0  0.09961  0.65463  0.30088  1.0000
  H   H1199     1.0  0.10664  0.60576  0.26134  1.0000
  H   H1200     1.0  0.15936  0.64391  0.46556  1.0000
  C   C682      1.0  0.10037  0.65789  0.08389  1.0000
  C   C683      1.0  0.16176  0.64470  0.25105  1.0000
  C   C684      1.0  0.11728  0.62528  0.27606  1.0000
  H   H1201     1.0  0.19432  0.70422  0.02966  1.0000
  H   H1202     1.0  0.11858  0.65605  0.14539  1.0000
  H   H1203     1.0  0.11863  0.69121  0.07330  1.0000
  H   H1204     1.0  0.18154  0.55960  0.12737  1.0000
  C   C685      1.0  0.19571  0.49937  0.29230  1.0000
  C   C686      1.0  0.22459  0.65491  0.43847  1.0000
  H   H1205     1.0  0.08315  0.70948  0.15136  1.0000
  C   C687      1.0  0.13713  0.63806  0.46425  1.0000
  C   C688      1.0  0.12693  0.71408  0.98849  1.0000
  H   H1206     1.0  0.12580  0.64392  0.28302  1.0000
  H   H1207     1.0  0.23668  0.68204  0.13094  1.0000
  H   H1208     1.0  0.15940  0.64471  0.09316  1.0000
  C   C689      1.0  0.07945  0.65140  0.16978  1.0000
  C   C690      1.0  0.07876  0.64576  0.15626  1.0000
  C   C691      1.0  0.07285  0.65700  0.14282  1.0000
  C   C692      1.0  0.06707  0.67385  0.14309  1.0000
  C   C693      1.0  0.06767  0.67955  0.15663  1.0000
  C   C694      1.0  0.07411  0.66835  0.16988  1.0000
  H   H1209     1.0  0.08275  0.63267  0.15622  1.0000
  H   H1210     1.0  0.07234  0.65255  0.13242  1.0000
  H   H1211     1.0  0.06308  0.69254  0.15695  1.0000
  H   H1212     1.0  0.07441  0.67270  0.18041  1.0000
  C   C695      1.0  0.11889  0.67988  0.24153  1.0000
  C   C696      1.0  0.12450  0.68106  0.25484  1.0000
  C   C697      1.0  0.13661  0.69022  0.25205  1.0000
  C   C698      1.0  0.14266  0.69879  0.23609  1.0000
  C   C699      1.0  0.13705  0.69755  0.22278  1.0000
  C   C700      1.0  0.12527  0.68803  0.22548  1.0000
  H   H1213     1.0  0.11983  0.67457  0.26723  1.0000
  H   H1214     1.0  0.14143  0.69038  0.26226  1.0000
  H   H1215     1.0  0.14181  0.70395  0.21036  1.0000
  H   H1216     1.0  0.12105  0.68712  0.21511  1.0000
  C   C701      1.0  0.09061  0.70880  0.08931  1.0000
  C   C702      1.0  0.23297  0.59593  0.18213  1.0000
  C   C703      1.0  0.17954  0.66554  0.09450  1.0000
  H   H1217     1.0  0.18850  0.66750  0.05309  1.0000
  C   C704      1.0  0.16531  0.67851  0.09545  1.0000
  H   H1218     1.0  0.15008  0.66250  0.05964  1.0000
  C   C705      1.0  0.22970  0.64589  0.31106  1.0000
  C   C706      1.0  0.18114  0.65541  0.42088  1.0000
  H   H1219     1.0  0.15874  0.68128  0.10734  1.0000
  H   H1220     1.0  0.11769  0.58759  0.27328  1.0000
  C   C707      1.0  0.19568  0.65225  0.15917  1.0000
  H   H1221     1.0  0.15913  0.55971  0.29965  1.0000
  C   C708      1.0  0.17206  0.66926  0.14790  1.0000
  C   C709      1.0  0.16376  0.67204  0.16366  1.0000
  C   C710      1.0  0.17170  0.66565  0.17693  1.0000
  C   C711      1.0  0.18774  0.65581  0.17467  1.0000
  N   N40       1.0  0.13327  0.61275  0.27229  1.0000
  C   C712      1.0  0.13481  0.59922  0.28766  1.0000
  H   H1222     1.0  0.16537  0.66810  0.18903  1.0000
  H   H1223     1.0  0.19371  0.65044  0.18506  1.0000
  H   H1224     1.0  0.10136  0.71476  0.08613  1.0000
  Fe  Fe90      1.0  0.23332  0.63688  0.39988  1.0000
  H   H1225     1.0  0.08916  0.62130  0.08491  1.0000
  C   C713      1.0  0.18093  0.67354  0.35596  1.0000
  C   C714      1.0  0.18838  0.65984  0.34866  1.0000
  C   C715      1.0  0.18443  0.65929  0.33408  1.0000
  C   C716      1.0  0.17367  0.67277  0.32631  1.0000
  C   C717      1.0  0.16622  0.68648  0.33361  1.0000
  C   C718      1.0  0.16954  0.68668  0.34863  1.0000
  H   H1226     1.0  0.19706  0.64958  0.35432  1.0000
  H   H1227     1.0  0.19002  0.64857  0.32863  1.0000
  H   H1228     1.0  0.15772  0.69681  0.32780  1.0000
  H   H1229     1.0  0.16367  0.69724  0.35430  1.0000
  C   C719      1.0  0.19697  0.59841  0.23772  1.0000
  C   C720      1.0  0.19069  0.61363  0.22787  1.0000
  C   C721      1.0  0.17710  0.61537  0.22094  1.0000
  C   C722      1.0  0.16989  0.60182  0.22371  1.0000
  C   C723      1.0  0.17626  0.58660  0.23345  1.0000
  C   C724      1.0  0.18962  0.58495  0.24060  1.0000
  H   H1230     1.0  0.19635  0.62408  0.22553  1.0000
  H   H1231     1.0  0.17247  0.62707  0.21318  1.0000
  H   H1232     1.0  0.17079  0.57605  0.23558  1.0000
  H   H1233     1.0  0.19442  0.57313  0.24809  1.0000
  C   C725      1.0  0.21292  0.58868  0.33172  1.0000
  C   C726      1.0  0.20595  0.59872  0.34345  1.0000
  C   C727      1.0  0.21600  0.60593  0.34868  1.0000
  H   H1234     1.0  0.23352  0.62406  0.30185  1.0000
  H   H1235     1.0  0.17443  0.72263  0.32944  1.0000
  C   C728      1.0  0.19356  0.61746  0.45555  1.0000
  H   H1236     1.0  0.21049  0.61357  0.35774  1.0000
  H   H1237     1.0  0.12279  0.59542  0.29372  1.0000
  C   C729      1.0  0.19868  0.48320  0.23952  1.0000
  C   C730      1.0  0.14984  0.57124  0.30180  1.0000
  H   H1238     1.0  0.10161  0.69007  0.06607  1.0000
  H   H1239     1.0  0.17152  0.57735  0.11391  1.0000
  C   C731      1.0  0.19624  0.59418  0.41491  1.0000
  C   C732      1.0  0.13552  0.64165  0.09175  1.0000
  H   H1240     1.0  0.21615  0.70583  0.44520  1.0000
  C   C733      1.0  0.08920  0.72186  0.25124  1.0000
  C   C734      1.0  0.11292  0.68277  0.14236  1.0000
  H   H1241     1.0  0.10668  0.61894  0.28138  1.0000
  C   C735      1.0  0.20084  0.70164  0.09963  1.0000
  H   H1242     1.0  0.13610  0.66786  0.08567  1.0000
  H   H1243     1.0  0.10264  0.68580  0.10271  1.0000
  S   S174      1.0  0.22312  0.54687  0.26507  1.0000
  H   H1244     1.0  0.10341  0.68160  0.15408  1.0000
  H   H1245     1.0  0.16413  0.61522  0.45673  1.0000
  H   H1246     1.0  0.15976  0.61142  0.26381  1.0000
  C   C736      1.0  0.15966  0.68772  0.08107  1.0000
  C   C737      1.0  0.19832  0.71911  0.35565  1.0000
  H   H1247     1.0  0.16054  0.58619  0.27897  1.0000
  H   H1248     1.0  0.21905  0.57703  0.19710  1.0000
  Fe  Fe91      1.0  0.23614  0.54288  0.28562  1.0000
  C   C738      1.0  0.22030  0.71004  0.43159  1.0000
  H   H1249     1.0  0.18230  0.65151  0.44662  1.0000
  H   H1250     1.0  0.10161  0.71663  0.21254  1.0000
  H   H1251     1.0  0.09663  0.65588  0.09766  1.0000
  H   H1252     1.0  0.13400  0.72396  0.10927  1.0000
  H   H1253     1.0  0.08518  0.68471  0.09575  1.0000
  H   H1254     1.0  0.10473  0.71841  0.97933  1.0000
  C   C739      1.0  0.15439  0.64158  0.45608  1.0000
  H   H1255     1.0  0.21496  0.59460  0.20617  1.0000
  C   C740      1.0  0.22392  0.65590  0.46678  1.0000
  H   H1256     1.0  0.17996  0.72844  0.42571  1.0000
  C   C741      1.0  0.23003  0.58608  0.32513  1.0000
  N   N41       1.0  0.11505  0.66618  0.07752  1.0000
  H   H1257     1.0  0.12643  0.66713  0.12486  1.0000
  H   H1258     1.0  0.16332  0.70541  0.16141  1.0000
  C   C742      1.0  0.13290  0.60587  0.25810  1.0000
  C   C743      1.0  0.14797  0.63587  0.25280  1.0000
  C   C744      1.0  0.14953  0.63804  0.10085  1.0000
  C   C745      1.0  0.16977  0.71166  0.16657  1.0000
  C   C746      1.0  0.12145  0.58713  0.24783  1.0000
  H   H1259     1.0  0.17114  0.67816  0.43031  1.0000
  H   H1260     1.0  0.13147  0.61599  0.24696  1.0000
  H   H1261     1.0  0.11421  0.63389  0.26449  1.0000
  H   H1262     1.0  0.14992  0.63188  0.24111  1.0000
  H   H1263     1.0  0.13613  0.64515  0.25424  1.0000
  C   C747      1.0  0.14815  0.62056  0.26747  1.0000
  C   C748      1.0  0.13690  0.71465  0.12046  1.0000
  H   H1264     1.0  0.09240  0.70421  0.29238  1.0000
  S   S175      1.0  0.21478  0.63846  0.15705  1.0000
  H   H1265     1.0  0.15961  0.65000  0.26206  1.0000
  H   H1266     1.0  0.22426  0.68339  0.31201  1.0000
  H   H1267     1.0  0.11126  0.58050  0.25057  1.0000
  H   H1268     1.0  0.12152  0.59574  0.23556  1.0000
  H   H1269     1.0  0.22220  0.66878  0.16754  1.0000
  Fe  Fe92      1.0  0.18552  0.72409  0.26987  1.0000
  H   H1270     1.0  0.20003  0.71722  0.30687  1.0000
  C   C749      1.0  0.22773  0.53892  0.22312  1.0000
  H   H1271     1.0  0.08209  0.71225  0.10073  1.0000
  H   H1272     1.0  0.14501  0.59751  0.25420  1.0000
  H   H1273     1.0  0.10446  0.66698  0.13191  1.0000
  Fe  Fe93      1.0  0.20063  0.54416  0.28567  1.0000
  H   H1274     1.0  0.19083  0.70219  0.38818  1.0000
  N   N42       1.0  0.20595  0.63253  0.28563  1.0000
  C   C750      1.0  0.21340  0.64307  0.29182  1.0000
  C   C751      1.0  0.19761  0.64287  0.27159  1.0000
  C   C752      1.0  0.19267  0.62625  0.29979  1.0000
  C   C753      1.0  0.21863  0.61770  0.28050  1.0000
  C   C754      1.0  0.08462  0.71062  0.18164  1.0000
  C   C755      1.0  0.22370  0.71046  0.14350  1.0000
  C   C756      1.0  0.18244  0.61608  0.29580  1.0000
  C   C757      1.0  0.20539  0.65727  0.25966  1.0000
  C   C758      1.0  0.19691  0.66498  0.24501  1.0000
  H   H1275     1.0  0.21361  0.69500  0.01741  1.0000
  H   H1276     1.0  0.16147  0.72374  0.16852  1.0000
  C   C759      1.0  0.16734  0.61345  0.30984  1.0000
  H   H1277     1.0  0.20348  0.65339  0.29622  1.0000
  C   C760      1.0  0.23393  0.62161  0.26680  1.0000
  H   H1278     1.0  0.19668  0.63475  0.26392  1.0000
  H   H1279     1.0  0.18456  0.64901  0.27658  1.0000
  H   H1280     1.0  0.18384  0.63687  0.30482  1.0000
  H   H1281     1.0  0.19810  0.61796  0.31027  1.0000
  H   H1282     1.0  0.23105  0.48756  0.22507  1.0000
  H   H1283     1.0  0.21288  0.61037  0.27572  1.0000
  H   H1284     1.0  0.21882  0.65325  0.25470  1.0000
  H   H1285     1.0  0.22183  0.71380  0.30604  1.0000
  H   H1286     1.0  0.20223  0.68670  0.31316  1.0000
  H   H1287     1.0  0.22101  0.69927  0.42638  1.0000
  H   H1288     1.0  0.19023  0.60368  0.29433  1.0000
  H   H1289     1.0  0.17782  0.62222  0.28432  1.0000
  H   H1290     1.0  0.20376  0.66716  0.26633  1.0000
  H   H1291     1.0  0.21292  0.67626  0.44932  1.0000
  H   H1292     1.0  0.18341  0.66986  0.24940  1.0000
  C   C761      1.0  0.22286  0.63390  0.30589  1.0000
  C   C762      1.0  0.19029  0.62482  0.47096  1.0000
  H   H1293     1.0  0.21930  0.67296  0.14029  1.0000
  H   H1294     1.0  0.19971  0.59269  0.43894  1.0000
  H   H1295     1.0  0.22851  0.71022  0.39909  1.0000
  H   H1296     1.0  0.18619  0.71284  0.44307  1.0000
  H   H1297     1.0  0.23559  0.57833  0.31618  1.0000
  C   C763      1.0  0.20663  0.70693  0.33123  1.0000
  H   H1298     1.0  0.17116  0.60787  0.32186  1.0000
  H   H1299     1.0  0.15837  0.62546  0.31073  1.0000
  H   H1300     1.0  0.16115  0.60487  0.30746  1.0000
  C   C764      1.0  0.11871  0.59667  0.26129  1.0000
  H   H1301     1.0  0.10190  0.64372  0.06568  1.0000
  H   H1302     1.0  0.10613  0.71971  0.16699  1.0000
  C   C765      1.0  0.11671  0.63581  0.28833  1.0000
  H   H1303     1.0  0.13931  0.70213  0.11801  1.0000
  H   H1304     1.0  0.20485  0.59643  0.17411  1.0000
  H   H1305     1.0  0.16181  0.65506  0.23994  1.0000
  C   C766      1.0  0.18000  0.67382  0.41945  1.0000
  H   H1306     1.0  0.05017  0.71610  0.23308  1.0000
  H   H1307     1.0  0.15407  0.57686  0.30965  1.0000
  C   C767      1.0  0.10836  0.68464  0.07636  1.0000
  H   H1308     1.0  0.13343  0.57785  0.24727  1.0000
  N   N43       1.0  0.21463  0.69918  0.14030  1.0000
  C   C768      1.0  0.23263  0.63813  0.44125  1.0000
  C   C769      1.0  0.11573  0.66731  0.13563  1.0000
  C   C770      1.0  0.08785  0.63288  0.08899  1.0000
  H   H1309     1.0  0.19859  0.65567  0.23759  1.0000
  C   C771      1.0  0.17332  0.50521  0.27820  1.0000
  H   H1310     1.0  0.22739  0.51590  0.21807  1.0000
  H   H1311     1.0  0.08375  0.71354  0.07915  1.0000
  H   H1312     1.0  0.20561  0.50604  0.23725  1.0000
  C   C772      1.0  0.21731  0.59076  0.19433  1.0000
  H   H1313     1.0  0.00428  0.71098  0.21576  1.0000
  H   H1314     1.0  0.20493  0.49245  0.25719  1.0000
  N   N44       1.0  0.23898  0.49214  0.24500  1.0000
  H   H1315     1.0  0.19241  0.67603  0.41853  1.0000
  H   H1316     1.0  0.20720  0.61549  0.45025  1.0000
  H   H1317     1.0  0.17204  0.70396  0.17876  1.0000
  H   H1318     1.0  0.19200  0.70826  0.42266  1.0000
  H   H1319     1.0  0.16056  0.62751  0.43738  1.0000
  H   H1320     1.0  0.11973  0.66200  0.10190  1.0000
  C   C773      1.0  0.18602  0.71454  0.15451  1.0000
  H   H1321     1.0  0.11544  0.66969  0.05158  1.0000
  C   C774      1.0  0.22148  0.72700  0.33227  1.0000
  C   C775      1.0  0.23621  0.56143  0.14462  1.0000
  H   H1322     1.0  0.19024  0.69423  0.12541  1.0000
  H   H1323     1.0  0.22133  0.66101  0.42669  1.0000
  H   H1324     1.0  0.21666  0.69694  0.33603  1.0000
  H   H1325     1.0  0.23547  0.54163  0.11682  1.0000
  C   C776      1.0  0.21052  0.70880  0.31217  1.0000
  C   C777      1.0  0.22967  0.54989  0.15802  1.0000
  C   C778      1.0  0.20272  0.70636  0.38461  1.0000
  S   S176      1.0  0.23595  0.62587  0.42656  1.0000
  C   C779      1.0  0.20073  0.70216  0.01707  1.0000
  H   H1326     1.0  0.21448  0.54134  0.22969  1.0000
  C   C780      1.0  0.23080  0.62393  0.19616  1.0000
  H   H1327     1.0  0.20227  0.48312  0.22612  1.0000
  C   C781      1.0  0.18378  0.51093  0.28436  1.0000
  S   S177      1.0  0.22429  0.57253  0.12991  1.0000
  H   H1328     1.0  0.12483  0.68269  0.14493  1.0000
  H   H1329     1.0  0.18771  0.60117  0.40647  1.0000
  H   H1330     1.0  0.21463  0.62821  0.31709  1.0000
  H   H1331     1.0  0.12766  0.65051  0.05966  1.0000
  H   H1332     1.0  0.05284  0.72640  0.25748  1.0000
  C   C782      1.0  0.22573  0.68200  0.14149  1.0000
  C   C783      1.0  0.19093  0.60041  0.43100  1.0000
  H   H1333     1.0  0.19097  0.48384  0.34582  1.0000
  S   S178      1.0  0.16955  0.72089  0.29548  1.0000
  C   C784      1.0  0.19881  0.69799  0.15321  1.0000
  H   H1334     1.0  0.22232  0.64927  0.28175  1.0000
  C   C785      1.0  0.23428  0.51080  0.24231  1.0000
  N   N45       1.0  0.10594  0.71498  0.13429  1.0000
  C   C786      1.0  0.23727  0.48494  0.26332  1.0000
  C   C787      1.0  0.10713  0.69876  0.12988  1.0000
  C   C788      1.0  0.19009  0.71802  0.42961  1.0000
  C   C789      1.0  0.12252  0.71657  0.13575  1.0000
  C   C790      1.0  0.20600  0.72433  0.42604  1.0000
  C   C791      1.0  0.09897  0.71092  0.16653  1.0000
  C   C792      1.0  0.22947  0.63573  0.20712  1.0000
  H   H1335     1.0  0.18302  0.72129  0.14237  1.0000
  H   H1336     1.0  0.19410  0.69462  0.01360  1.0000
  S   S179      1.0  0.23044  0.64494  0.10907  1.0000
  H   H1337     1.0  0.09477  0.69818  0.12845  1.0000
  H   H1338     1.0  0.11541  0.69803  0.11750  1.0000
  H   H1339     1.0  0.22536  0.62996  0.22039  1.0000
  C   C793      1.0  0.11816  0.71536  0.97640  1.0000
  C   C794      1.0  0.21990  0.66359  0.45130  1.0000
  H   H1340     1.0  0.12688  0.70712  0.14613  1.0000
  S   S180      1.0  0.23188  0.65735  0.35371  1.0000
  H   H1341     1.0  0.16686  0.48382  0.27491  1.0000
  H   H1342     1.0  0.22019  0.64733  0.20389  1.0000
  H   H1343     1.0  0.10709  0.69836  0.16777  1.0000
  H   H1344     1.0  0.01734  0.72359  0.08419  1.0000
  H   H1345     1.0  0.23680  0.63894  0.32077  1.0000
  Fe  Fe94      1.0  0.21732  0.63212  0.09887  1.0000
  H   H1346     1.0  0.21295  0.69424  0.36399  1.0000
  C   C795      1.0  0.23274  0.63940  0.46931  1.0000
  N   N46       1.0  0.07689  0.72576  0.24039  1.0000
  S   S181      1.0  0.02183  0.72527  0.11984  1.0000
  H   H1347     1.0  0.19830  0.61201  0.18636  1.0000
  N   N47       1.0  0.16431  0.58116  0.16978  1.0000
  C   C796      1.0  0.14572  0.58471  0.17173  1.0000
  C   C797      1.0  0.17303  0.57309  0.15518  1.0000
  C   C798      1.0  0.16849  0.56900  0.18529  1.0000
  C   C799      1.0  0.17050  0.59650  0.16817  1.0000
  C   C800      1.0  0.16448  0.61229  0.15562  1.0000
  C   C801      1.0  0.13527  0.59196  0.18698  1.0000
  C   C802      1.0  0.18719  0.56081  0.18446  1.0000
  C   C803      1.0  0.16532  0.57924  0.13966  1.0000
  H   H1348     1.0  0.17828  0.59834  0.43721  1.0000
  C   C804      1.0  0.17019  0.62699  0.15726  1.0000
  C   C805      1.0  0.11687  0.59741  0.18650  1.0000
  C   C806      1.0  0.19054  0.55228  0.20167  1.0000
  H   H1349     1.0  0.14179  0.57310  0.17263  1.0000
  H   H1350     1.0  0.14177  0.59343  0.16065  1.0000
  H   H1351     1.0  0.18631  0.57408  0.15123  1.0000
  H   H1352     1.0  0.17336  0.55951  0.15885  1.0000
  H   H1353     1.0  0.16181  0.55869  0.18868  1.0000
  H   H1354     1.0  0.16408  0.57513  0.19605  1.0000
  H   H1355     1.0  0.16742  0.59998  0.18037  1.0000
  H   H1356     1.0  0.18423  0.59391  0.16446  1.0000
  H   H1357     1.0  0.15077  0.61579  0.15756  1.0000
  H   H1358     1.0  0.17004  0.61062  0.14280  1.0000
  H   H1359     1.0  0.13641  0.58257  0.19865  1.0000
  H   H1360     1.0  0.13937  0.60293  0.18741  1.0000
  H   H1361     1.0  0.19519  0.56994  0.17878  1.0000
  H   H1362     1.0  0.19113  0.55121  0.17695  1.0000
  H   H1363     1.0  0.15407  0.57415  0.14210  1.0000
  H   H1364     1.0  0.16149  0.59287  0.13621  1.0000
  C   C807      1.0  0.16820  0.68377  0.06583  1.0000
  H   H1365     1.0  0.19430  0.65645  0.13366  1.0000
  C   C808      1.0  0.18215  0.67065  0.06492  1.0000
  H   H1366     1.0  0.16583  0.63821  0.14812  1.0000
  H   H1367     1.0  0.16519  0.62957  0.16985  1.0000
  H   H1368     1.0  0.18393  0.62444  0.15496  1.0000
  H   H1369     1.0  0.11488  0.60748  0.17546  1.0000
  H   H1370     1.0  0.11199  0.58678  0.18629  1.0000
  H   H1371     1.0  0.10974  0.60229  0.19770  1.0000
  H   H1372     1.0  0.20378  0.54579  0.20051  1.0000
  H   H1373     1.0  0.18792  0.56158  0.20935  1.0000
  H   H1374     1.0  0.18273  0.54300  0.20797  1.0000
  H   H1375     1.0  0.08713  0.72805  0.12035  1.0000
  H   H1376     1.0  0.21936  0.65533  0.31630  1.0000
  H   H1377     1.0  0.01585  0.72091  0.23389  1.0000
  H   H1378     1.0  0.20160  0.69265  0.16572  1.0000
  H   H1379     1.0  0.07667  0.72318  0.18155  1.0000
  H   H1380     1.0  0.21574  0.69391  0.29395  1.0000
  C   C809      1.0  0.17753  0.57335  0.12467  1.0000
  H   H1381     1.0  0.21776  0.54747  0.15879  1.0000
  C   C810      1.0  0.23316  0.60304  0.34230  1.0000
  S   S182      1.0  0.15589  0.70855  0.99948  1.0000
  H   H1382     1.0  0.14914  0.65700  0.03285  1.0000
  C   C811      1.0  0.09278  0.71645  0.15011  1.0000
  H   H1383     1.0  0.21011  0.68153  0.11794  1.0000
  C   C812      1.0  0.20746  0.73068  0.01022  1.0000
  H   H1384     1.0  0.23016  0.62715  0.25478  1.0000
  H   H1385     1.0  0.12026  0.71620  0.00063  1.0000
  H   H1386     1.0  0.13778  0.56782  0.30847  1.0000
  H   H1387     1.0  0.19597  0.58082  0.41767  1.0000
  H   H1388     1.0  0.20909  0.59558  0.40852  1.0000
  H   H1389     1.0  0.16385  0.69050  0.05472  1.0000
  H   H1390     1.0  0.21815  0.62195  0.19784  1.0000
  H   H1391     1.0  0.16398  0.51408  0.27213  1.0000
  C   C813      1.0  0.17493  0.48808  0.27974  1.0000
  S   S183      1.0  0.18141  0.53253  0.28207  1.0000
  Fe  Fe95      1.0  0.22800  0.59865  0.12062  1.0000
  C   C814      1.0  0.21153  0.70503  0.12294  1.0000
  H   H1392     1.0  0.10737  0.72593  0.10806  1.0000
  H   H1393     1.0  0.15516  0.62453  0.10321  1.0000
  Fe  Fe96      1.0  0.23811  0.63013  0.36527  1.0000
  H   H1394     1.0  0.20375  0.50364  0.29716  1.0000
  H   H1395     1.0  0.23742  0.60161  0.21382  1.0000
  C   C815      1.0  0.12660  0.66018  0.08936  1.0000
  H   H1396     1.0  0.11391  0.63238  0.08088  1.0000
  H   H1397     1.0  0.22242  0.71060  0.36343  1.0000
  H   H1398     1.0  0.22140  0.70979  0.15703  1.0000
  H   H1399     1.0  0.19096  0.72246  0.15936  1.0000
  H   H1400     1.0  0.17549  0.68119  0.40814  1.0000
  H   H1401     1.0  0.08998  0.63955  0.29837  1.0000
  H   H1402     1.0  0.07701  0.70193  0.18191  1.0000
  H   H1403     1.0  0.22294  0.60894  0.29146  1.0000
  H   H1404     1.0  0.19265  0.68908  0.15135  1.0000
  H   H1405     1.0  0.17405  0.63600  0.24959  1.0000
  C   C816      1.0  0.23465  0.52032  0.22414  1.0000
  H   H1406     1.0  0.16881  0.65375  0.42080  1.0000
  N   N48       1.0  0.18418  0.62729  0.44216  1.0000
  H   H1407     1.0  0.08962  0.70652  0.19303  1.0000
  H   H1408     1.0  0.14510  0.57654  0.27756  1.0000
  C   C817      1.0  0.18788  0.66152  0.07920  1.0000
  S   S184      1.0  0.23907  0.61074  0.09478  1.0000
  C   C818      1.0  0.07500  0.70957  0.23828  1.0000
  C   C819      1.0  0.06309  0.71084  0.22721  1.0000
  H   H1409     1.0  0.14983  0.62415  0.27827  1.0000
  C   C820      1.0  0.08429  0.71169  0.26912  1.0000
  H   H1410     1.0  0.23672  0.70128  0.06458  1.0000
  H   H1411     1.0  0.07574  0.64121  0.08710  1.0000
  C   C821      1.0  0.06327  0.69369  0.22509  1.0000
  H   H1412     1.0  0.08792  0.62961  0.10239  1.0000
  C   C822      1.0  0.09558  0.71216  0.27989  1.0000
  C   C823      1.0  0.18743  0.64457  0.43656  1.0000
  H   H1413     1.0  0.18479  0.62552  0.41733  1.0000
  C   C824      1.0  0.23814  0.54207  0.17079  1.0000
  H   H1414     1.0  0.18994  0.65186  0.40963  1.0000
  C   C825      1.0  0.16589  0.62716  0.44794  1.0000
  H   H1415     1.0  0.10138  0.71458  0.24574  1.0000
  H   H1416     1.0  0.08729  0.70194  0.23358  1.0000
  H   H1417     1.0  0.07023  0.70189  0.25050  1.0000
  H   H1418     1.0  0.21846  0.72330  0.01528  1.0000
  S   S185      1.0  0.16072  0.72332  0.03627  1.0000
  H   H1419     1.0  0.18385  0.65843  0.10560  1.0000
  H   H1420     1.0  0.22912  0.60855  0.17488  1.0000
  H   H1421     1.0  0.08567  0.69849  0.26890  1.0000
  H   H1422     1.0  0.19352  0.63715  0.46756  1.0000
  H   H1423     1.0  0.09623  0.65563  0.28089  1.0000
  N   N49       1.0  0.20475  0.72247  0.33715  1.0000
  H   H1424     1.0  0.23740  0.70616  0.13948  1.0000
  H   H1425     1.0  0.08932  0.66622  0.07927  1.0000
  H   H1426     1.0  0.13851  0.68325  0.05397  1.0000
  H   H1427     1.0  0.05877  0.68575  0.23722  1.0000
  H   H1428     1.0  0.05510  0.69492  0.21663  1.0000
  H   H1429     1.0  0.07603  0.68752  0.21971  1.0000
  H   H1430     1.0  0.13761  0.67815  0.02730  1.0000
  H   H1431     1.0  0.15276  0.65332  0.44662  1.0000
  H   H1432     1.0  0.14481  0.64190  0.11290  1.0000
  H   H1433     1.0  0.18800  0.72424  0.00265  1.0000
  C   C826      1.0  0.14024  0.67032  0.05298  1.0000
  S   S186      1.0  0.19985  0.57967  0.32564  1.0000
  C   C827      1.0  0.20203  0.59843  0.18686  1.0000
  H   H1434     1.0  0.15849  0.67428  0.02995  1.0000
  H   H1435     1.0  0.14108  0.63776  0.07981  1.0000
  H   H1436     1.0  0.19273  0.60090  0.34856  1.0000
  C   C828      1.0  0.23691  0.63052  0.45664  1.0000
  C   C829      1.0  0.20089  0.71863  0.00438  1.0000
  H   H1437     1.0  0.10880  0.70749  0.27433  1.0000
  H   H1438     1.0  0.22442  0.48924  0.27000  1.0000
  S   S187      1.0  0.23182  0.56996  0.28524  1.0000
  H   H1439     1.0  0.20099  0.64381  0.43363  1.0000
  C   C830      1.0  0.12399  0.66378  0.06028  1.0000
  H   H1440     1.0  0.12657  0.63388  0.09944  1.0000
  H   H1441     1.0  0.07132  0.71650  0.27522  1.0000
  C   C831      1.0  0.14670  0.66984  0.03467  1.0000
  H   H1442     1.0  0.02944  0.72055  0.21375  1.0000
  S   S188      1.0  0.20530  0.61904  0.12385  1.0000
  Fe  Fe97      1.0  0.22085  0.62968  0.13358  1.0000
  S   S189      1.0  0.21409  0.53832  0.30631  1.0000
  H   H1443     1.0  0.16581  0.67409  0.13768  1.0000
  H   H1444     1.0  0.19435  0.69403  0.09611  1.0000
  H   H1445     1.0  0.23261  0.53378  0.18156  1.0000
  H   H1446     1.0  0.23130  0.71581  0.33548  1.0000
  C   C832      1.0  0.14826  0.58323  0.28521  1.0000
  H   H1447     1.0  0.18718  0.71360  0.35905  1.0000
  H   H1448     1.0  0.22866  0.54553  0.20996  1.0000
  H   H1449     1.0  0.19532  0.70176  0.33649  1.0000
  H   H1450     1.0  0.18527  0.48908  0.24262  1.0000
  H   H1451     1.0  0.20242  0.67550  0.23689  1.0000
  H   H1452     1.0  0.20383  0.71781  0.12102  1.0000
  C   C833      1.0  0.21040  0.70693  0.36623  1.0000
  H   H1453     1.0  0.20044  0.71880  0.38737  1.0000
  H   H1454     1.0  0.20872  0.71560  0.99260  1.0000
  H   H1455     1.0  0.22357  0.70572  0.11385  1.0000
  H   H1456     1.0  0.21124  0.69755  0.39223  1.0000
  C   C834      1.0  0.15304  0.71646  0.12336  1.0000
  C   C835      1.0  0.20886  0.49289  0.24378  1.0000
  H   H1457     1.0  0.09396  0.72505  0.28127  1.0000
  H   H1458     1.0  0.16293  0.71550  0.11198  1.0000
  C   C836      1.0  0.23202  0.67419  0.15784  1.0000
  H   H1459     1.0  0.23496  0.54400  0.22865  1.0000
  C   C837      1.0  0.00336  0.72452  0.21384  1.0000
  H   H1460     1.0  0.23408  0.48310  0.29691  1.0000
  H   H1461     1.0  0.23460  0.63032  0.18315  1.0000
  C   C838      1.0  0.09998  0.72839  0.12034  1.0000
  H   H1462     1.0  0.08543  0.72933  0.14986  1.0000
  C   C839      1.0  0.23641  0.72651  0.43737  1.0000
  H   H1463     1.0  0.23564  0.68795  0.45616  1.0000
  H   H1464     1.0  0.23531  0.68325  0.16267  1.0000
  H   H1465     1.0  0.12136  0.72857  0.13900  1.0000
  H   H1466     1.0  0.20899  0.72980  0.41260  1.0000
  H   H1467     1.0  0.11083  0.72813  0.22095  1.0000
  H   H1468     1.0  0.23812  0.65215  0.30038  1.0000
  H   H1469     1.0  0.23138  0.72355  0.05801  1.0000
  N   N50       1.0  0.23714  0.71421  0.42748  1.0000
  C   C840      1.0  0.10106  0.72905  0.21437  1.0000
  Fe  Fe98      1.0  0.00647  0.72828  0.14491  1.0000
  H   H1470     1.0  0.19388  0.73095  0.36004  1.0000
  H   H1471     1.0  0.15146  0.72862  0.12640  1.0000
  H   H1472     1.0  0.22509  0.73123  0.31860  1.0000
  H   H1473     1.0  0.22529  0.73044  0.12126  1.0000
  C   C841      1.0  0.01724  0.72665  0.22048  1.0000
  S   S190      1.0  0.21002  0.73096  0.26582  1.0000
  H   H1474     1.0  0.00585  0.72962  0.20035  1.0000
  H   H1475     1.0  0.18526  0.70153  0.85195  1.0000
  H   H1476     1.0  0.12945  0.71033  0.77289  1.0000
  H   H1477     1.0  0.23543  0.58667  0.64516  1.0000
  Fe  Fe99      1.0  0.21354  0.63060  0.82815  1.0000
  C   C842      1.0  0.99008  0.63599  0.84912  1.0000
  H   H1478     1.0  0.00402  0.70725  0.75195  1.0000
  H   H1479     1.0  0.99301  0.71869  0.78720  1.0000
  H   H1480     1.0  0.08377  0.71384  0.82704  1.0000
  S   S191      1.0  0.21919  0.52847  0.62832  1.0000
  H   H1481     1.0  0.15075  0.70777  0.94452  1.0000
  C   C843      1.0  0.09767  0.71818  0.84231  1.0000
  H   H1482     1.0  0.20264  0.70052  0.95372  1.0000
  H   H1483     1.0  0.22813  0.63213  0.69833  1.0000
  C   C844      1.0  0.14401  0.70915  0.95680  1.0000
  S   S192      1.0  0.20772  0.51646  0.67731  1.0000
  H   H1484     1.0  0.01132  0.70469  0.77045  1.0000
  C   C845      1.0  0.22369  0.72907  0.55007  1.0000
  S   S193      1.0  0.06712  0.71056  0.80015  1.0000
  C   C846      1.0  0.21453  0.70449  0.94758  1.0000
  Fe  Fe100     1.0  0.05908  0.69486  0.78814  1.0000
  S   S194      1.0  0.05343  0.67570  0.81159  1.0000
  S   S195      1.0  0.07308  0.69288  0.76214  1.0000
  H   H1485     1.0  0.19770  0.71176  0.85720  1.0000
  Fe  Fe101     1.0  0.05959  0.69271  0.82383  1.0000
  S   S196      1.0  0.07496  0.68190  0.84354  1.0000
  S   S197      1.0  0.03282  0.70921  0.79075  1.0000
  H   H1486     1.0  0.20638  0.50221  0.58801  1.0000
  Fe  Fe102     1.0  0.12745  0.71447  0.88347  1.0000
  S   S198      1.0  0.12006  0.69596  0.90678  1.0000
  H   H1487     1.0  0.21693  0.67189  0.68033  1.0000
  Fe  Fe103     1.0  0.15906  0.71508  0.89281  1.0000
  S   S199      1.0  0.15471  0.69589  0.91613  1.0000
  C   C847      1.0  0.03868  0.69100  0.88219  1.0000
  Fe  Fe104     1.0  0.14691  0.68308  0.90114  1.0000
  S   S200      1.0  0.15419  0.65534  0.90491  1.0000
  Fe  Fe105     1.0  0.12856  0.71054  0.91988  1.0000
  S   S201      1.0  0.15393  0.70075  0.87723  1.0000
  H   H1488     1.0  0.99583  0.72099  0.91428  1.0000
  Fe  Fe106     1.0  0.14900  0.62145  0.69711  1.0000
  S   S202      1.0  0.13691  0.60162  0.71517  1.0000
  S   S203      1.0  0.14356  0.63297  0.67196  1.0000
  Fe  Fe107     1.0  0.16802  0.62405  0.72045  1.0000
  S   S204      1.0  0.15797  0.60421  0.74065  1.0000
  S   S205      1.0  0.18450  0.63936  0.72244  1.0000
  Fe  Fe108     1.0  0.16228  0.59059  0.72055  1.0000
  S   S206      1.0  0.17193  0.56303  0.72733  1.0000
  Fe  Fe109     1.0  0.13355  0.61693  0.73365  1.0000
  S   S207      1.0  0.11041  0.62022  0.75364  1.0000
  S   S208      1.0  0.17480  0.60923  0.70084  1.0000
  S   S209      1.0  0.14330  0.63784  0.71504  1.0000
  H   H1489     1.0  0.22403  0.59321  0.73239  1.0000
  N   N51       1.0  0.20121  0.71373  0.83078  1.0000
  H   H1490     1.0  0.13576  0.66454  0.77932  1.0000
  S   S210      1.0  0.16847  0.65207  0.79466  1.0000
  H   H1491     1.0  0.17714  0.72727  0.82541  1.0000
  H   H1492     1.0  0.03497  0.66635  0.88462  1.0000
  S   S211      1.0  0.12955  0.71117  0.62730  1.0000
  S   S212      1.0  0.16947  0.69882  0.64702  1.0000
  C   C848      1.0  0.17921  0.64367  0.74227  1.0000
  C   C849      1.0  0.18812  0.65305  0.74599  1.0000
  H   H1493     1.0  0.23699  0.71368  0.56941  1.0000
  C   C850      1.0  0.17214  0.64940  0.77435  1.0000
  C   C851      1.0  0.16279  0.64059  0.77044  1.0000
  C   C852      1.0  0.16620  0.63791  0.75437  1.0000
  H   H1494     1.0  0.04264  0.67649  0.86367  1.0000
  C   C853      1.0  0.05505  0.71823  0.88167  1.0000
  H   H1495     1.0  0.15311  0.63555  0.77990  1.0000
  H   H1496     1.0  0.15881  0.63125  0.75149  1.0000
  C   C854      1.0  0.15313  0.64987  0.66368  1.0000
  C   C855      1.0  0.16320  0.65318  0.67215  1.0000
  C   C856      1.0  0.16923  0.66780  0.66638  1.0000
  C   C857      1.0  0.16512  0.67907  0.65217  1.0000
  C   C858      1.0  0.15627  0.67505  0.64299  1.0000
  C   C859      1.0  0.15011  0.66054  0.64886  1.0000
  H   H1497     1.0  0.16598  0.64476  0.68340  1.0000
  H   H1498     1.0  0.17628  0.67074  0.67341  1.0000
  H   H1499     1.0  0.15404  0.68318  0.63145  1.0000
  H   H1500     1.0  0.14263  0.65782  0.64218  1.0000
  C   C860      1.0  0.17149  0.64714  0.89080  1.0000
  C   C861      1.0  0.17581  0.65587  0.87446  1.0000
  C   C862      1.0  0.18936  0.64862  0.86329  1.0000
  H   H1501     1.0  0.20317  0.71613  0.50730  1.0000
  C   C863      1.0  0.19440  0.62411  0.88490  1.0000
  C   C864      1.0  0.18075  0.63124  0.89594  1.0000
  H   H1502     1.0  0.16853  0.66804  0.87036  1.0000
  H   H1503     1.0  0.06969  0.71799  0.90767  1.0000
  C   C865      1.0  0.21223  0.72365  0.50624  1.0000
  H   H1504     1.0  0.17739  0.62441  0.90852  1.0000
  C   C866      1.0  0.08329  0.67268  0.75980  1.0000
  C   C867      1.0  0.07990  0.65895  0.77230  1.0000
  C   C868      1.0  0.08834  0.64289  0.77028  1.0000
  C   C869      1.0  0.10031  0.64052  0.75584  1.0000
  C   C870      1.0  0.10371  0.65429  0.74334  1.0000
  C   C871      1.0  0.09516  0.67035  0.74529  1.0000
  H   H1505     1.0  0.07066  0.66063  0.78346  1.0000
  H   H1506     1.0  0.08559  0.63226  0.77993  1.0000
  H   H1507     1.0  0.11270  0.65255  0.73210  1.0000
  H   H1508     1.0  0.09779  0.68097  0.73561  1.0000
  C   C872      1.0  0.08668  0.69349  0.84794  1.0000
  C   C873      1.0  0.09357  0.68720  0.86203  1.0000
  C   C874      1.0  0.10238  0.69642  0.86633  1.0000
  C   C875      1.0  0.10429  0.71206  0.85657  1.0000
  H   H1509     1.0  0.23205  0.56299  0.73108  1.0000
  C   C876      1.0  0.08894  0.70892  0.83797  1.0000
  H   H1510     1.0  0.10740  0.69158  0.87736  1.0000
  Fe  Fe110     1.0  0.04034  0.72359  0.80438  1.0000
  H   H1511     1.0  0.16713  0.72779  0.65966  1.0000
  C   C877      1.0  0.07335  0.72631  0.89552  1.0000
  S   S213      1.0  0.20144  0.61827  0.81628  1.0000
  H   H1512     1.0  0.08107  0.72801  0.74782  1.0000
  H   H1513     1.0  0.20147  0.61177  0.88897  1.0000
  C   C878      1.0  0.19557  0.53029  0.68992  1.0000
  C   C879      1.0  0.19315  0.54757  0.68431  1.0000
  C   C880      1.0  0.18445  0.55803  0.69543  1.0000
  C   C881      1.0  0.17864  0.55114  0.71213  1.0000
  C   C882      1.0  0.18034  0.53395  0.71740  1.0000
  C   C883      1.0  0.18872  0.52358  0.70633  1.0000
  H   H1514     1.0  0.19821  0.55281  0.67155  1.0000
  H   H1515     1.0  0.18299  0.57133  0.69139  1.0000
  C   C884      1.0  0.99373  0.68179  0.80886  1.0000
  H   H1516     1.0  0.17906  0.57526  0.59576  1.0000
  C   C885      1.0  0.21848  0.54127  0.72469  1.0000
  S   S214      1.0  0.23780  0.62778  0.80963  1.0000
  S   S215      1.0  0.21749  0.67935  0.52198  1.0000
  C   C886      1.0  0.21834  0.71737  0.82525  1.0000
  H   H1517     1.0  0.22169  0.64144  0.61003  1.0000
  H   H1518     1.0  0.15179  0.70164  0.73066  1.0000
  H   H1519     1.0  0.22527  0.72472  0.94726  1.0000
  S   S216      1.0  0.03324  0.70728  0.82922  1.0000
  C   C887      1.0  0.03843  0.70783  0.86947  1.0000
  C   C888      1.0  0.01245  0.71102  0.75725  1.0000
  C   C889      1.0  0.18037  0.67778  0.57010  1.0000
  C   C890      1.0  0.17396  0.68109  0.58598  1.0000
  C   C891      1.0  0.15661  0.70704  0.57486  1.0000
  C   C892      1.0  0.16315  0.70387  0.55892  1.0000
  C   C893      1.0  0.17514  0.68930  0.55651  1.0000
  H   H1520     1.0  0.00480  0.66451  0.77513  1.0000
  H   H1521     1.0  0.13789  0.62682  0.47444  1.0000
  H   H1522     1.0  0.17996  0.68677  0.54424  1.0000
  C   C894      1.0  0.16225  0.69574  0.58834  1.0000
  C   C895      1.0  0.15595  0.68150  0.71889  1.0000
  H   H1523     1.0  0.19427  0.52788  0.74972  1.0000
  H   H1524     1.0  0.21419  0.61143  0.47716  1.0000
  H   H1525     1.0  0.10534  0.70438  0.74496  1.0000
  H   H1526     1.0  0.22392  0.54875  0.68909  1.0000
  H   H1527     1.0  0.17301  0.69160  0.77779  1.0000
  C   C896      1.0  0.12665  0.71327  0.96037  1.0000
  C   C897      1.0  0.20578  0.68002  0.87165  1.0000
  C   C898      1.0  0.23006  0.55394  0.69575  1.0000
  H   H1528     1.0  0.14948  0.67225  0.71813  1.0000
  Fe  Fe111     1.0  0.14992  0.71733  0.63465  1.0000
  H   H1529     1.0  0.22277  0.57731  0.70498  1.0000
  C   C899      1.0  0.00394  0.67468  0.79573  1.0000
  H   H1530     1.0  0.22290  0.67179  0.72540  1.0000
  H   H1531     1.0  0.19894  0.61951  0.49370  1.0000
  C   C900      1.0  0.21171  0.67779  0.93349  1.0000
  C   C901      1.0  0.21839  0.70540  0.92871  1.0000
  H   H1532     1.0  0.21562  0.68578  0.55759  1.0000
  C   C902      1.0  0.18238  0.67344  0.94548  1.0000
  H   H1533     1.0  0.11383  0.66485  0.80490  1.0000
  C   C903      1.0  0.20637  0.70838  0.56737  1.0000
  C   C904      1.0  0.00729  0.72571  0.88791  1.0000
  H   H1534     1.0  0.21285  0.67401  0.94665  1.0000
  H   H1535     1.0  0.20726  0.71336  0.92410  1.0000
  H   H1536     1.0  0.23262  0.60822  0.63414  1.0000
  C   C905      1.0  0.23356  0.59531  0.63328  1.0000
  H   H1537     1.0  0.18367  0.67235  0.95825  1.0000
  H   H1538     1.0  0.09980  0.61590  0.71479  1.0000
  H   H1539     1.0  0.17574  0.52858  0.73025  1.0000
  H   H1540     1.0  0.99572  0.64289  0.83680  1.0000
  C   C906      1.0  0.23787  0.63869  0.72360  1.0000
  H   H1541     1.0  0.20667  0.68832  0.87906  1.0000
  C   C907      1.0  0.23536  0.64765  0.73775  1.0000
  S   S217      1.0  0.00213  0.68560  0.82363  1.0000
  H   H1542     1.0  0.19393  0.70548  0.56990  1.0000
  S   S218      1.0  0.19444  0.65890  0.56781  1.0000
  C   C908      1.0  0.13657  0.70357  0.76291  1.0000
  H   H1543     1.0  0.20171  0.70544  0.68880  1.0000
  H   H1544     1.0  0.14400  0.67440  0.75106  1.0000
  C   C909      1.0  0.19789  0.70424  0.84855  1.0000
  S   S219      1.0  0.21509  0.62278  0.85483  1.0000
  H   H1545     1.0  0.20553  0.52192  0.76605  1.0000
  H   H1546     1.0  0.23402  0.72265  0.54134  1.0000
  H   H1547     1.0  0.20867  0.59461  0.68277  1.0000
  H   H1548     1.0  0.11789  0.64587  0.79784  1.0000
  C   C910      1.0  0.23278  0.58419  0.58733  1.0000
  H   H1549     1.0  0.19036  0.51026  0.71065  1.0000
  H   H1550     1.0  0.11116  0.72820  0.70107  1.0000
  C   C911      1.0  0.22081  0.68006  0.58178  1.0000
  H   H1551     1.0  0.10960  0.63361  0.82748  1.0000
  H   H1552     1.0  0.20885  0.53825  0.72039  1.0000
  C   C912      1.0  0.15149  0.69151  0.76951  1.0000
  H   H1553     1.0  0.99877  0.62390  0.85222  1.0000
  H   H1554     1.0  0.15241  0.72907  0.69630  1.0000
  H   H1555     1.0  0.12216  0.66063  0.76899  1.0000
  H   H1556     1.0  0.14703  0.68320  0.78132  1.0000
  H   H1557     1.0  0.19778  0.65802  0.73651  1.0000
  H   H1558     1.0  0.19641  0.69863  0.67373  1.0000
  C   C913      1.0  0.22253  0.69649  0.66991  1.0000
  C   C914      1.0  0.18453  0.65598  0.76197  1.0000
  C   C915      1.0  0.23141  0.61845  0.70259  1.0000
  H   H1559     1.0  0.02989  0.69228  0.89413  1.0000
  H   H1560     1.0  0.22830  0.71260  0.92286  1.0000
  H   H1561     1.0  0.22169  0.59456  0.63101  1.0000
  H   H1562     1.0  0.04930  0.70538  0.85924  1.0000
  H   H1563     1.0  0.06782  0.72061  0.69616  1.0000
  H   H1564     1.0  0.14201  0.72690  0.68176  1.0000
  H   H1565     1.0  0.22866  0.52083  0.70480  1.0000
  C   C916      1.0  0.03407  0.67846  0.87560  1.0000
  H   H1566     1.0  0.22961  0.58503  0.67413  1.0000
  Fe  Fe112     1.0  0.13652  0.72935  0.60356  1.0000
  C   C917      1.0  0.15276  0.70708  0.96909  1.0000
  C   C918      1.0  0.22226  0.59786  0.74368  1.0000
  H   H1567     1.0  0.17057  0.71105  0.67712  1.0000
  C   C919      1.0  0.23410  0.70501  0.87543  1.0000
  C   C920      1.0  0.21850  0.57102  0.69789  1.0000
  H   H1568     1.0  0.98931  0.72970  0.81631  1.0000
  H   H1569     1.0  0.21422  0.71891  0.64207  1.0000
  H   H1570     1.0  0.02677  0.71600  0.90180  1.0000
  H   H1571     1.0  0.16665  0.67489  0.72472  1.0000
  S   S220      1.0  0.18269  0.72419  0.88716  1.0000
  C   C921      1.0  0.16848  0.72470  0.67266  1.0000
  H   H1572     1.0  0.00656  0.71339  0.88675  1.0000
  C   C922      1.0  0.20584  0.49253  0.59965  1.0000
  H   H1573     1.0  0.21986  0.61417  0.70959  1.0000
  Fe  Fe113     1.0  0.22482  0.61767  0.79657  1.0000
  C   C923      1.0  0.18800  0.72961  0.82844  1.0000
  C   C924      1.0  0.14424  0.69394  0.72891  1.0000
  N   N52       1.0  0.23396  0.54136  0.71111  1.0000
  H   H1574     1.0  0.22442  0.69568  0.95353  1.0000
  S   S221      1.0  0.23441  0.54870  0.64650  1.0000
  C   C925      1.0  0.02468  0.72535  0.89028  1.0000
  H   H1575     1.0  0.02746  0.71091  0.86381  1.0000
  H   H1576     1.0  0.15881  0.71260  0.54846  1.0000
  S   S222      1.0  0.21582  0.64259  0.78140  1.0000
  C   C926      1.0  0.23080  0.72686  0.56548  1.0000
  H   H1577     1.0  0.19402  0.71505  0.64748  1.0000
  H   H1578     1.0  0.22378  0.64577  0.74692  1.0000
  H   H1579     1.0  0.20979  0.69133  0.82094  1.0000
  H   H1580     1.0  0.06581  0.71369  0.87213  1.0000
  C   C927      1.0  0.19859  0.63266  0.86851  1.0000
  H   H1581     1.0  0.23035  0.62133  0.55981  1.0000
  Fe  Fe114     1.0  0.02758  0.69178  0.81511  1.0000
  C   C928      1.0  0.19311  0.68484  0.93292  1.0000
  H   H1582     1.0  0.05136  0.68570  0.88463  1.0000
  H   H1583     1.0  0.21439  0.66784  0.87461  1.0000
  C   C929      1.0  0.20079  0.61356  0.48320  1.0000
  C   C930      1.0  0.20119  0.72374  0.64814  1.0000
  H   H1584     1.0  0.19799  0.70732  0.77888  1.0000
  C   C931      1.0  0.00846  0.73016  0.75477  1.0000
  S   S223      1.0  0.22010  0.63930  0.52890  1.0000
  H   H1585     1.0  0.20438  0.73118  0.94376  1.0000
  H   H1586     1.0  0.03928  0.70816  0.75294  1.0000
  H   H1587     1.0  0.11969  0.71766  0.73880  1.0000
  C   C932      1.0  0.06466  0.71055  0.70699  1.0000
  C   C933      1.0  0.03019  0.70466  0.74826  1.0000
  H   H1588     1.0  0.22058  0.72400  0.81204  1.0000
  C   C934      1.0  0.22557  0.67912  0.68100  1.0000
  H   H1589     1.0  0.05328  0.72750  0.84049  1.0000
  H   H1590     1.0  0.08442  0.71940  0.88807  1.0000
  S   S224      1.0  0.21704  0.66730  0.48264  1.0000
  H   H1591     1.0  0.18592  0.66091  0.94262  1.0000
  H   H1592     1.0  0.09180  0.67529  0.86984  1.0000
  H   H1593     1.0  0.02116  0.68285  0.87368  1.0000
  H   H1594     1.0  0.10828  0.72872  0.76424  1.0000
  C   C935      1.0  0.16245  0.70078  0.77314  1.0000
  H   H1595     1.0  0.20433  0.58262  0.75722  1.0000
  H   H1596     1.0  0.21620  0.64105  0.59142  1.0000
  S   S225      1.0  0.22078  0.57498  0.60606  1.0000
  H   H1597     1.0  0.18191  0.73021  0.68746  1.0000
  H   H1598     1.0  0.22387  0.68065  0.90171  1.0000
  S   S226      1.0  0.13318  0.73061  0.89702  1.0000
  H   H1599     1.0  0.22496  0.71568  0.50480  1.0000
  C   C936      1.0  0.13485  0.68504  0.74572  1.0000
  H   H1600     1.0  0.01730  0.67189  0.79421  1.0000
  H   H1601     1.0  0.19524  0.60335  0.74746  1.0000
  H   H1602     1.0  0.05499  0.70769  0.89265  1.0000
  H   H1603     1.0  0.15743  0.69820  0.60062  1.0000
  C   C937      1.0  0.23793  0.61108  0.68717  1.0000
  H   H1604     1.0  0.11316  0.72630  0.68023  1.0000
  H   H1605     1.0  0.15945  0.68416  0.76038  1.0000
  N   N53       1.0  0.20010  0.72381  0.66591  1.0000
  C   C938      1.0  0.11314  0.70968  0.74971  1.0000
  H   H1606     1.0  0.21670  0.49138  0.60483  1.0000
  H   H1607     1.0  0.19715  0.60138  0.48817  1.0000
  H   H1608     1.0  0.23184  0.69451  0.55869  1.0000
  H   H1609     1.0  0.21553  0.71075  0.79548  1.0000
  C   C939      1.0  0.20511  0.59585  0.75423  1.0000
  H   H1610     1.0  0.20283  0.59987  0.76603  1.0000
  H   H1611     1.0  0.16082  0.68807  0.70614  1.0000
  C   C940      1.0  0.20798  0.73113  0.52147  1.0000
  N   N54       1.0  0.13987  0.64621  0.85073  1.0000
  C   C941      1.0  0.14995  0.62866  0.85122  1.0000
  C   C942      1.0  0.12626  0.64899  0.84164  1.0000
  C   C943      1.0  0.15123  0.65780  0.84069  1.0000
  C   C944      1.0  0.13286  0.65020  0.86769  1.0000
  C   C945      1.0  0.12773  0.63593  0.88226  1.0000
  C   C946      1.0  0.16624  0.62456  0.85742  1.0000
  C   C947      1.0  0.14297  0.67658  0.83695  1.0000
  C   C948      1.0  0.11298  0.63839  0.84976  1.0000
  C   C949      1.0  0.10217  0.63967  0.83785  1.0000
  C   C950      1.0  0.11687  0.64269  0.89733  1.0000
  C   C951      1.0  0.17336  0.60588  0.86137  1.0000
  C   C952      1.0  0.15604  0.68717  0.83013  1.0000
  H   H1612     1.0  0.15351  0.62595  0.83859  1.0000
  H   H1613     1.0  0.14258  0.61944  0.85898  1.0000
  H   H1614     1.0  0.11903  0.66204  0.84031  1.0000
  H   H1615     1.0  0.13185  0.64705  0.82878  1.0000
  H   H1616     1.0  0.15772  0.65429  0.82862  1.0000
  H   H1617     1.0  0.16120  0.65659  0.84716  1.0000
  H   H1618     1.0  0.14192  0.65469  0.87155  1.0000
  H   H1619     1.0  0.12193  0.66077  0.86724  1.0000
  H   H1620     1.0  0.13894  0.62722  0.88605  1.0000
  H   H1621     1.0  0.12075  0.62865  0.87908  1.0000
  H   H1622     1.0  0.17580  0.63029  0.84767  1.0000
  H   H1623     1.0  0.16418  0.62935  0.86868  1.0000
  H   H1624     1.0  0.13476  0.68056  0.84824  1.0000
  H   H1625     1.0  0.13553  0.67936  0.82743  1.0000
  H   H1626     1.0  0.11850  0.62504  0.85358  1.0000
  H   H1627     1.0  0.10466  0.64300  0.86073  1.0000
  H   H1628     1.0  0.09180  0.63330  0.84447  1.0000
  H   H1629     1.0  0.09678  0.65283  0.83279  1.0000
  H   H1630     1.0  0.10493  0.65063  0.89450  1.0000
  H   H1631     1.0  0.11415  0.63222  0.90786  1.0000
  H   H1632     1.0  0.12332  0.65012  0.90114  1.0000
  H   H1633     1.0  0.17575  0.60063  0.85029  1.0000
  H   H1634     1.0  0.18532  0.60349  0.86516  1.0000
  H   H1635     1.0  0.16469  0.59953  0.87171  1.0000
  H   H1636     1.0  0.14981  0.70048  0.82714  1.0000
  H   H1637     1.0  0.16337  0.68548  0.83951  1.0000
  H   H1638     1.0  0.16450  0.68366  0.81870  1.0000
  H   H1639     1.0  0.21236  0.57705  0.67364  1.0000
  H   H1640     1.0  0.17719  0.62572  0.47768  1.0000
  H   H1641     1.0  0.18289  0.70135  0.79738  1.0000
  C   C953      1.0  0.12274  0.66712  0.77828  1.0000
  H   H1642     1.0  0.22968  0.53176  0.74658  1.0000
  H   H1643     1.0  0.22115  0.73041  0.57620  1.0000
  H   H1644     1.0  0.21005  0.67838  0.84642  1.0000
  H   H1645     1.0  0.22431  0.51603  0.74002  1.0000
  C   C954      1.0  0.22209  0.72836  0.83466  1.0000
  H   H1646     1.0  0.03287  0.69090  0.75046  1.0000
  C   C955      1.0  0.23552  0.60868  0.56526  1.0000
  H   H1647     1.0  0.18846  0.69736  0.93577  1.0000
  C   C956      1.0  0.20443  0.70607  0.67525  1.0000
  H   H1648     1.0  0.12618  0.67920  0.74287  1.0000
  S   S227      1.0  0.11406  0.72467  0.86221  1.0000
  H   H1649     1.0  0.23529  0.71348  0.89608  1.0000
  H   H1650     1.0  0.05802  0.72617  0.63079  1.0000
  H   H1651     1.0  0.21438  0.60698  0.58514  1.0000
  Fe  Fe115     1.0  0.22604  0.65974  0.50676  1.0000
  Fe  Fe116     1.0  0.23165  0.55013  0.62082  1.0000
  H   H1652     1.0  0.23197  0.67232  0.74173  1.0000
  C   C957      1.0  0.21724  0.58260  0.68104  1.0000
  H   H1653     1.0  0.20783  0.72124  0.96424  1.0000
  Fe  Fe117     1.0  0.19317  0.64390  0.80179  1.0000
  H   H1654     1.0  0.21521  0.66602  0.92908  1.0000
  H   H1655     1.0  0.20578  0.56959  0.70450  1.0000
  H   H1656     1.0  0.19963  0.54353  0.75641  1.0000
  C   C958      1.0  0.23379  0.66634  0.73124  1.0000
  H   H1657     1.0  0.19515  0.72396  0.79875  1.0000
  H   H1658     1.0  0.17819  0.67242  0.59647  1.0000
  H   H1659     1.0  0.13528  0.70200  0.72133  1.0000
  C   C959      1.0  0.20396  0.53073  0.75414  1.0000
  H   H1660     1.0  0.22303  0.68959  0.85039  1.0000
  C   C960      1.0  0.18281  0.73163  0.67404  1.0000
  Fe  Fe118     1.0  0.22606  0.65289  0.79652  1.0000
  H   H1661     1.0  0.16753  0.70930  0.76172  1.0000
  H   H1662     1.0  0.07967  0.62864  0.71255  1.0000
  H   H1663     1.0  0.21282  0.55371  0.72753  1.0000
  H   H1664     1.0  0.22124  0.61982  0.75153  1.0000
  H   H1665     1.0  0.21054  0.70012  0.90340  1.0000
  N   N55       1.0  0.20799  0.72296  0.55290  1.0000
  N   N56       1.0  0.17192  0.62460  0.61465  1.0000
  C   C961      1.0  0.19014  0.62428  0.60753  1.0000
  C   C962      1.0  0.16606  0.61377  0.60719  1.0000
  C   C963      1.0  0.16260  0.64231  0.60976  1.0000
  C   C964      1.0  0.16821  0.61954  0.63329  1.0000
  C   C965      1.0  0.17716  0.60186  0.64077  1.0000
  C   C966      1.0  0.19807  0.63460  0.61419  1.0000
  C   C967      1.0  0.14340  0.64526  0.61289  1.0000
  C   C968      1.0  0.17842  0.59766  0.60309  1.0000
  C   C969      1.0  0.16974  0.58637  0.59913  1.0000
  C   C970      1.0  0.17503  0.59913  0.65945  1.0000
  C   C971      1.0  0.99685  0.67047  0.78496  1.0000
  C   C972      1.0  0.13586  0.66359  0.60671  1.0000
  H   H1666     1.0  0.19224  0.62857  0.59380  1.0000
  H   H1667     1.0  0.19774  0.61149  0.60975  1.0000
  H   H1668     1.0  0.15439  0.61036  0.61533  1.0000
  H   H1669     1.0  0.16290  0.62082  0.59507  1.0000
  H   H1670     1.0  0.16710  0.64732  0.59630  1.0000
  H   H1671     1.0  0.16501  0.65045  0.61646  1.0000
  H   H1672     1.0  0.17102  0.62859  0.63865  1.0000
  H   H1673     1.0  0.15472  0.62008  0.63830  1.0000
  H   H1674     1.0  0.19067  0.59943  0.63543  1.0000
  H   H1675     1.0  0.17173  0.59250  0.63865  1.0000
  H   H1676     1.0  0.19130  0.64771  0.61299  1.0000
  H   H1677     1.0  0.19833  0.62916  0.62743  1.0000
  H   H1678     1.0  0.13786  0.64169  0.62626  1.0000
  H   H1679     1.0  0.13958  0.63807  0.60624  1.0000
  H   H1680     1.0  0.18818  0.60091  0.59198  1.0000
  H   H1681     1.0  0.18466  0.59036  0.61327  1.0000
  Fe  Fe119     1.0  0.22425  0.52574  0.65327  1.0000
  H   H1682     1.0  0.16027  0.58214  0.61008  1.0000
  H   H1683     1.0  0.16374  0.59297  0.58852  1.0000
  H   H1684     1.0  0.17979  0.60843  0.66253  1.0000
  H   H1685     1.0  0.16175  0.59991  0.66574  1.0000
  H   H1686     1.0  0.18211  0.58656  0.66416  1.0000
  C   C973      1.0  0.21594  0.63471  0.60459  1.0000
  H   H1687     1.0  0.18797  0.69906  0.82456  1.0000
  H   H1688     1.0  0.08978  0.69818  0.70830  1.0000
  H   H1689     1.0  0.14062  0.66752  0.59317  1.0000
  H   H1690     1.0  0.12215  0.66556  0.60911  1.0000
  H   H1691     1.0  0.13896  0.67157  0.61312  1.0000
  N   N57       1.0  0.09561  0.67322  0.68913  1.0000
  C   C974      1.0  0.08235  0.68889  0.69062  1.0000
  C   C975      1.0  0.09831  0.66915  0.67241  1.0000
  C   C976      1.0  0.08937  0.65922  0.70234  1.0000
  C   C977      1.0  0.11171  0.67438  0.69210  1.0000
  C   C978      1.0  0.11990  0.68843  0.68021  1.0000
  C   C979      1.0  0.07864  0.69498  0.70693  1.0000
  C   C980      1.0  0.10017  0.64145  0.70192  1.0000
  C   C981      1.0  0.09644  0.68396  0.65734  1.0000
  C   C982      1.0  0.10205  0.67804  0.64110  1.0000
  C   C983      1.0  0.13334  0.69118  0.68700  1.0000
  H   H1692     1.0  0.19739  0.71165  0.53977  1.0000
  C   C984      1.0  0.09175  0.62846  0.71501  1.0000
  H   H1693     1.0  0.07050  0.68721  0.68904  1.0000
  H   H1694     1.0  0.08543  0.69956  0.68055  1.0000
  H   H1695     1.0  0.11082  0.66092  0.66938  1.0000
  H   H1696     1.0  0.08925  0.66187  0.67274  1.0000
  H   H1697     1.0  0.07661  0.65912  0.70168  1.0000
  H   H1698     1.0  0.08832  0.66101  0.71491  1.0000
  H   H1699     1.0  0.11011  0.67533  0.70510  1.0000
  H   H1700     1.0  0.12124  0.66274  0.69083  1.0000
  H   H1701     1.0  0.11089  0.70039  0.67816  1.0000
  H   H1702     1.0  0.12590  0.68496  0.66809  1.0000
  H   H1703     1.0  0.07462  0.68551  0.71794  1.0000
  H   H1704     1.0  0.06268  0.71505  0.71847  1.0000
  H   H1705     1.0  0.11239  0.64016  0.70465  1.0000
  H   H1706     1.0  0.10234  0.63828  0.68974  1.0000
  H   H1707     1.0  0.08320  0.69053  0.65839  1.0000
  H   H1708     1.0  0.10374  0.69308  0.65641  1.0000
  H   H1709     1.0  0.09469  0.66924  0.64113  1.0000
  H   H1710     1.0  0.10035  0.68886  0.63061  1.0000
  H   H1711     1.0  0.11540  0.67187  0.63919  1.0000
  H   H1712     1.0  0.12766  0.69633  0.69826  1.0000
  H   H1713     1.0  0.14229  0.67931  0.69011  1.0000
  H   H1714     1.0  0.14019  0.70006  0.67752  1.0000
  C   C985      1.0  0.21939  0.69207  0.56518  1.0000
  C   C986      1.0  0.22286  0.69235  0.90547  1.0000
  H   H1715     1.0  0.20355  0.68841  0.79347  1.0000
  H   H1716     1.0  0.17264  0.73057  0.85341  1.0000
  C   C987      1.0  0.22643  0.60052  0.57982  1.0000
  H   H1717     1.0  0.08967  0.63079  0.72757  1.0000
  H   H1718     1.0  0.16911  0.67861  0.94507  1.0000
  C   C988      1.0  0.11558  0.68601  0.77321  1.0000
  H   H1719     1.0  0.11323  0.69152  0.78416  1.0000
  C   C989      1.0  0.20007  0.70299  0.82005  1.0000
  N   N58       1.0  0.22338  0.68901  0.92348  1.0000
  H   H1720     1.0  0.21944  0.70762  0.53486  1.0000
  H   H1721     1.0  0.22339  0.62187  0.60503  1.0000
  S   S228      1.0  0.11521  0.71660  0.94500  1.0000
  S   S229      1.0  0.14138  0.72507  0.57785  1.0000
  H   H1722     1.0  0.03179  0.70984  0.73474  1.0000
  C   C990      1.0  0.22044  0.52909  0.74142  1.0000
  C   C991      1.0  0.22371  0.61622  0.73946  1.0000
  H   H1723     1.0  0.23159  0.58987  0.75078  1.0000
  C   C992      1.0  0.21290  0.72148  0.95090  1.0000
  H   H1724     1.0  0.22379  0.67991  0.69406  1.0000
  H   H1725     1.0  0.20665  0.71138  0.57899  1.0000
  H   H1726     1.0  0.19031  0.72996  0.61925  1.0000
  H   H1727     1.0  0.20861  0.67700  0.58845  1.0000
  C   C993      1.0  0.19625  0.70137  0.79226  1.0000
  H   H1728     1.0  0.19124  0.66351  0.76467  1.0000
  H   H1729     1.0  0.19263  0.65534  0.85071  1.0000
  H   H1730     1.0  0.22681  0.64438  0.71800  1.0000
  N   N59       1.0  0.03905  0.72224  0.87589  1.0000
  H   H1731     1.0  0.10303  0.68674  0.77149  1.0000
  H   H1732     1.0  0.21320  0.62382  0.73374  1.0000
  H   H1733     1.0  0.05291  0.70774  0.70665  1.0000
  H   H1734     1.0  0.14135  0.71320  0.75242  1.0000
  C   C994      1.0  0.11284  0.65948  0.79495  1.0000
  C   C995      1.0  0.23619  0.70143  0.89316  1.0000
  H   H1735     1.0  0.09955  0.66166  0.79460  1.0000
  S   S230      1.0  0.20257  0.65641  0.81586  1.0000
  N   N60       1.0  0.12537  0.69583  0.75801  1.0000
  C   C996      1.0  0.21025  0.68761  0.85313  1.0000
  H   H1736     1.0  0.16618  0.70373  0.96622  1.0000
  H   H1737     1.0  0.19121  0.68574  0.92043  1.0000
  Fe  Fe120     1.0  0.21399  0.65857  0.54409  1.0000
  H   H1738     1.0  0.19291  0.67807  0.87530  1.0000
  H   H1739     1.0  0.09414  0.71493  0.77198  1.0000
  H   H1740     1.0  0.15533  0.70794  0.78278  1.0000
  H   H1741     1.0  0.23623  0.69323  0.87139  1.0000
  H   H1742     1.0  0.22798  0.70564  0.82555  1.0000
  H   H1743     1.0  0.21848  0.72403  0.84818  1.0000
  H   H1744     1.0  0.22534  0.48534  0.63580  1.0000
  H   H1745     1.0  0.19438  0.49660  0.60870  1.0000
  C   C997      1.0  0.20815  0.71744  0.53762  1.0000
  H   H1746     1.0  0.23171  0.70298  0.67067  1.0000
  H   H1747     1.0  0.22983  0.66837  0.57964  1.0000
  C   C998      1.0  0.20220  0.71094  0.80121  1.0000
  H   H1748     1.0  0.23339  0.66034  0.82050  1.0000
  H   H1749     1.0  0.09290  0.72994  0.69349  1.0000
  H   H1750     1.0  0.22143  0.71244  0.87456  1.0000
  S   S231      1.0  0.23291  0.59666  0.78332  1.0000
  H   H1751     1.0  0.22527  0.68554  0.58956  1.0000
  H   H1752     1.0  0.22498  0.69495  0.65702  1.0000
  H   H1753     1.0  0.21979  0.72034  0.68969  1.0000
  H   H1754     1.0  0.22814  0.61463  0.67992  1.0000
  H   H1755     1.0  0.23593  0.63333  0.48116  1.0000
  C   C999      1.0  0.10128  0.72170  0.76062  1.0000
  H   H1756     1.0  0.09910  0.73026  0.83470  1.0000
  H   H1757     1.0  0.01333  0.72612  0.66777  1.0000
  H   H1758     1.0  0.22429  0.73018  0.65817  1.0000
  C   C1000     1.0  0.99369  0.73020  0.90273  1.0000
  H   H1759     1.0  0.23850  0.67238  0.67685  1.0000
  S   S232      1.0  0.06658  0.82986  0.18875  1.0000
  Fe  Fe121     1.0  0.07135  0.79507  0.22749  1.0000
  S   S233      1.0  0.09298  0.79989  0.20662  1.0000
  S   S234      1.0  0.07316  0.77276  0.24869  1.0000
  Fe  Fe122     1.0  0.08204  0.82694  0.20716  1.0000
  S   S235      1.0  0.10128  0.84283  0.20176  1.0000
  Fe  Fe123     1.0  0.07591  0.80252  0.19012  1.0000
  S   S236      1.0  0.08349  0.79194  0.16707  1.0000
  S   S237      1.0  0.06120  0.82183  0.22929  1.0000
  S   S238      1.0  0.05506  0.79551  0.21093  1.0000
  Fe  Fe124     1.0  0.13192  0.90386  0.23592  1.0000
  S   S239      1.0  0.15663  0.89370  0.22094  1.0000
  S   S240      1.0  0.11068  0.89027  0.24282  1.0000
  Fe  Fe125     1.0  0.14419  0.93317  0.23977  1.0000
  S   S241      1.0  0.16962  0.92493  0.22503  1.0000
  Fe  Fe126     1.0  0.15652  0.92028  0.20817  1.0000
  S   S242      1.0  0.16611  0.92746  0.18078  1.0000
  Fe  Fe127     1.0  0.16743  0.89924  0.23922  1.0000
  S   S243      1.0  0.19078  0.88229  0.24612  1.0000
  S   S244      1.0  0.13093  0.93039  0.22172  1.0000
  S   S245      1.0  0.14278  0.90756  0.25550  1.0000
  C   C1001     1.0  0.14208  0.80107  0.24396  1.0000
  C   C1002     1.0  0.19597  0.75489  0.99065  1.0000
  S   S246      1.0  0.01958  0.83455  0.21006  1.0000
  Fe  Fe128     1.0  0.21217  0.79439  0.31384  1.0000
  S   S247      1.0  0.20284  0.80366  0.33727  1.0000
  S   S248      1.0  0.19321  0.78476  0.30807  1.0000
  Fe  Fe129     1.0  0.21075  0.82701  0.32198  1.0000
  S   S249      1.0  0.19287  0.85188  0.32131  1.0000
  C   C1003     1.0  0.23000  0.75954  0.20608  1.0000
  C   C1004     1.0  0.03271  0.75570  0.24800  1.0000
  S   S250      1.0  0.21841  0.81821  0.29831  1.0000
  H   H1760     1.0  0.19447  0.80722  0.10579  1.0000
  C   C1005     1.0  0.99701  0.80356  0.15626  1.0000
  S   S251      1.0  0.12762  0.75428  0.29123  1.0000
  H   H1761     1.0  0.11234  0.82064  0.25298  1.0000
  H   H1762     1.0  0.01786  0.80142  0.23046  1.0000
  H   H1763     1.0  0.20568  0.73798  0.19690  1.0000
  C   C1006     1.0  0.13937  0.78036  0.23082  1.0000
  C   C1007     1.0  0.13979  0.79132  0.26224  1.0000
  Fe  Fe130     1.0  0.04658  0.82252  0.21081  1.0000
  H   H1764     1.0  0.09082  0.80688  0.27197  1.0000
  S   S252      1.0  0.04184  0.73849  0.17708  1.0000
  H   H1765     1.0  0.13615  0.80555  0.07879  1.0000
  C   C1008     1.0  0.17685  0.79130  0.11113  1.0000
  C   C1009     1.0  0.19559  0.77316  0.98085  1.0000
  H   H1766     1.0  0.00437  0.75611  0.09649  1.0000
  C   C1010     1.0  0.21041  0.78456  0.22891  1.0000
  H   H1767     1.0  0.14795  0.78860  0.28452  1.0000
  S   S253      1.0  0.08901  0.75903  0.03490  1.0000
  H   H1768     1.0  0.15558  0.79794  0.23837  1.0000
  H   H1769     1.0  0.14352  0.77775  0.26294  1.0000
  C   C1011     1.0  0.22462  0.74962  0.01992  1.0000
  H   H1770     1.0  0.14051  0.82191  0.18362  1.0000
  H   H1771     1.0  0.12673  0.79434  0.26911  1.0000
  H   H1772     1.0  0.15530  0.79785  0.20223  1.0000
  C   C1012     1.0  0.17751  0.76764  0.04040  1.0000
  C   C1013     1.0  0.10498  0.81579  0.24742  1.0000
  C   C1014     1.0  0.07565  0.75203  0.06860  1.0000
  H   H1773     1.0  0.12849  0.82323  0.22019  1.0000
  H   H1774     1.0  0.15310  0.77830  0.22636  1.0000
  C   C1015     1.0  0.14052  0.75737  0.21699  1.0000
  C   C1016     1.0  0.13229  0.77523  0.21869  1.0000
  H   H1775     1.0  0.13937  0.81455  0.24384  1.0000
  H   H1776     1.0  0.00348  0.79905  0.18887  1.0000
  H   H1777     1.0  0.19697  0.88466  0.32127  1.0000
  H   H1778     1.0  0.22388  0.77472  0.02190  1.0000
  C   C1017     1.0  0.19916  0.77150  0.29433  1.0000
  C   C1018     1.0  0.21556  0.76286  0.28992  1.0000
  C   C1019     1.0  0.21914  0.75062  0.28068  1.0000
  C   C1020     1.0  0.20630  0.74716  0.27591  1.0000
  C   C1021     1.0  0.19013  0.75634  0.27977  1.0000
  C   C1022     1.0  0.18661  0.76851  0.28889  1.0000
  S   S254      1.0  0.21511  0.82687  0.01528  1.0000
  H   H1779     1.0  0.16432  0.76053  0.32586  1.0000
  H   H1780     1.0  0.18018  0.75382  0.27609  1.0000
  H   H1781     1.0  0.17395  0.77509  0.29244  1.0000
  C   C1023     1.0  0.01634  0.79170  0.18845  1.0000
  C   C1024     1.0  0.08368  0.73646  0.22408  1.0000
  H   H1782     1.0  0.12403  0.80963  0.21077  1.0000
  C   C1025     1.0  0.18660  0.91639  0.17639  1.0000
  C   C1026     1.0  0.19596  0.91880  0.16018  1.0000
  C   C1027     1.0  0.21243  0.90998  0.15669  1.0000
  C   C1028     1.0  0.21954  0.89873  0.16935  1.0000
  C   C1029     1.0  0.21007  0.89616  0.18549  1.0000
  C   C1030     1.0  0.19368  0.90508  0.18903  1.0000
  H   H1783     1.0  0.19048  0.92751  0.15036  1.0000
  H   H1784     1.0  0.21949  0.91173  0.14420  1.0000
  H   H1785     1.0  0.21536  0.88732  0.19532  1.0000
  H   H1786     1.0  0.18659  0.90312  0.20160  1.0000
  H   H1787     1.0  0.08728  0.74337  0.06989  1.0000
  C   C1031     1.0  0.16859  0.96463  0.24078  1.0000
  H   H1788     1.0  0.19272  0.97004  0.23611  1.0000
  H   H1789     1.0  0.17334  0.95325  0.23635  1.0000
  C   C1032     1.0  0.19107  0.87497  0.26719  1.0000
  C   C1033     1.0  0.20608  0.86599  0.27157  1.0000
  C   C1034     1.0  0.20672  0.85947  0.28824  1.0000
  C   C1035     1.0  0.19233  0.86166  0.30061  1.0000
  C   C1036     1.0  0.17738  0.87111  0.29629  1.0000
  C   C1037     1.0  0.17674  0.87774  0.27956  1.0000
  H   H1790     1.0  0.21723  0.86393  0.26207  1.0000
  H   H1791     1.0  0.21842  0.85270  0.29152  1.0000
  H   H1792     1.0  0.16626  0.87304  0.30584  1.0000
  H   H1793     1.0  0.16513  0.88466  0.27622  1.0000
  C   C1038     1.0  0.07389  0.77557  0.16939  1.0000
  C   C1039     1.0  0.06798  0.76668  0.18516  1.0000
  C   C1040     1.0  0.05865  0.75497  0.18717  1.0000
  H   H1794     1.0  0.23565  0.83468  0.16378  1.0000
  H   H1795     1.0  0.16914  0.79646  0.12199  1.0000
  H   H1796     1.0  0.02906  0.73210  0.06424  1.0000
  H   H1797     1.0  0.07062  0.76881  0.19585  1.0000
  H   H1798     1.0  0.02394  0.80231  0.12781  1.0000
  C   C1041     1.0  0.15023  0.80996  0.20593  1.0000
  H   H1799     1.0  0.14414  0.82107  0.08169  1.0000
  C   C1042     1.0  0.08874  0.76874  0.25975  1.0000
  C   C1043     1.0  0.10411  0.75829  0.25505  1.0000
  C   C1044     1.0  0.11586  0.75341  0.26498  1.0000
  C   C1045     1.0  0.11251  0.75939  0.27939  1.0000
  C   C1046     1.0  0.09716  0.76987  0.28409  1.0000
  C   C1047     1.0  0.08518  0.77427  0.27445  1.0000
  H   H1800     1.0  0.10685  0.75373  0.24387  1.0000
  H   H1801     1.0  0.23472  0.73473  0.40634  1.0000
  H   H1802     1.0  0.09443  0.77438  0.29532  1.0000
  H   H1803     1.0  0.07313  0.78193  0.27842  1.0000
  C   C1048     1.0  0.10330  0.85631  0.21324  1.0000
  C   C1049     1.0  0.11686  0.86414  0.20748  1.0000
  C   C1050     1.0  0.11930  0.87453  0.21635  1.0000
  C   C1051     1.0  0.10816  0.87728  0.23114  1.0000
  C   C1052     1.0  0.09458  0.86948  0.23689  1.0000
  C   C1053     1.0  0.09211  0.85911  0.22800  1.0000
  H   H1804     1.0  0.12545  0.86230  0.19598  1.0000
  H   H1805     1.0  0.12972  0.88054  0.21167  1.0000
  H   H1806     1.0  0.08582  0.87158  0.24826  1.0000
  H   H1807     1.0  0.08153  0.85332  0.23255  1.0000
  H   H1808     1.0  0.14693  0.80905  0.27122  1.0000
  H   H1809     1.0  0.22138  0.82150  0.24057  1.0000
  H   H1810     1.0  0.13747  0.77113  0.24269  1.0000
  H   H1811     1.0  0.13434  0.78336  0.20617  1.0000
  C   C1054     1.0  0.04574  0.77487  0.06519  1.0000
  H   H1812     1.0  0.21979  0.94177  0.14116  1.0000
  H   H1813     1.0  0.10682  0.79681  0.23499  1.0000
  C   C1055     1.0  0.07127  0.77194  0.15550  1.0000
  N   N61       1.0  0.19514  0.87794  0.14009  1.0000
  C   C1056     1.0  0.18411  0.88049  0.15662  1.0000
  C   C1057     1.0  0.21264  0.87037  0.14246  1.0000
  C   C1058     1.0  0.19521  0.89483  0.12860  1.0000
  C   C1059     1.0  0.18942  0.86745  0.13214  1.0000
  C   C1060     1.0  0.18031  0.85383  0.14389  1.0000
  C   C1061     1.0  0.16643  0.89134  0.15607  1.0000
  C   C1062     1.0  0.20785  0.89519  0.11169  1.0000
  C   C1063     1.0  0.21571  0.85279  0.15362  1.0000
  H   H1814     1.0  0.11325  0.74815  0.11613  1.0000
  C   C1064     1.0  0.17856  0.84205  0.13431  1.0000
  C   C1065     1.0  0.15494  0.88949  0.17326  1.0000
  C   C1066     1.0  0.20417  0.91179  0.09958  1.0000
  H   H1815     1.0  0.18994  0.88653  0.16278  1.0000
  H   H1816     1.0  0.18285  0.86850  0.16536  1.0000
  H   H1817     1.0  0.22125  0.86911  0.13048  1.0000
  H   H1818     1.0  0.21705  0.87877  0.14733  1.0000
  H   H1819     1.0  0.19775  0.90341  0.13471  1.0000
  H   H1820     1.0  0.18271  0.90062  0.12579  1.0000
  H   H1821     1.0  0.18071  0.87535  0.12413  1.0000
  H   H1822     1.0  0.20015  0.86139  0.12348  1.0000
  H   H1823     1.0  0.16763  0.85961  0.14993  1.0000
  H   H1824     1.0  0.18679  0.84626  0.15383  1.0000
  H   H1825     1.0  0.16706  0.90466  0.15161  1.0000
  H   H1826     1.0  0.16079  0.88808  0.14758  1.0000
  H   H1827     1.0  0.20773  0.88524  0.10582  1.0000
  H   H1828     1.0  0.22060  0.89356  0.11344  1.0000
  H   H1829     1.0  0.20746  0.85230  0.16610  1.0000
  H   H1830     1.0  0.21387  0.84366  0.14773  1.0000
  H   H1831     1.0  0.20300  0.78802  0.09866  1.0000
  C   C1067     1.0  0.22663  0.95453  0.21580  1.0000
  C   C1068     1.0  0.21542  0.75752  0.00548  1.0000
  H   H1832     1.0  0.17166  0.84904  0.12443  1.0000
  H   H1833     1.0  0.19100  0.83539  0.12857  1.0000
  H   H1834     1.0  0.17163  0.83273  0.14286  1.0000
  H   H1835     1.0  0.16022  0.89275  0.18207  1.0000
  H   H1836     1.0  0.14266  0.89802  0.17264  1.0000
  H   H1837     1.0  0.15305  0.87658  0.17802  1.0000
  H   H1838     1.0  0.21388  0.91177  0.08795  1.0000
  H   H1839     1.0  0.19191  0.91381  0.09653  1.0000
  H   H1840     1.0  0.20430  0.92214  0.10490  1.0000
  C   C1069     1.0  0.08782  0.75566  0.99077  1.0000
  C   C1070     1.0  0.23050  0.84766  0.09100  1.0000
  H   H1841     1.0  0.18719  0.77903  0.24504  1.0000
  H   H1842     1.0  0.21947  0.94759  0.21227  1.0000
  H   H1843     1.0  0.15922  0.74754  0.08846  1.0000
  C   C1071     1.0  0.14553  0.77334  0.08630  1.0000
  H   H1844     1.0  0.19744  0.92173  0.24360  1.0000
  H   H1845     1.0  0.20929  0.97751  0.21001  1.0000
  C   C1072     1.0  0.99545  0.79630  0.22803  1.0000
  H   H1846     1.0  0.12115  0.75389  0.98487  1.0000
  H   H1847     1.0  0.13508  0.75387  0.20848  1.0000
  H   H1848     1.0  0.22748  0.73830  0.43376  1.0000
  H   H1849     1.0  0.14769  0.74222  0.98052  1.0000
  H   H1850     1.0  0.06258  0.74219  0.25707  1.0000
  C   C1073     1.0  0.21405  0.74672  0.19393  1.0000
  H   H1851     1.0  0.01216  0.76015  0.06576  1.0000
  H   H1852     1.0  0.15569  0.77061  0.10773  1.0000
  C   C1074     1.0  0.15229  0.81481  0.04868  1.0000
  H   H1853     1.0  0.22254  0.76617  0.99593  1.0000
  C   C1075     1.0  0.23521  0.93379  0.16725  1.0000
  H   H1854     1.0  0.23589  0.75760  0.09713  1.0000
  N   N62       1.0  0.15260  0.82882  0.30528  1.0000
  C   C1076     1.0  0.17001  0.82874  0.29503  1.0000
  C   C1077     1.0  0.15007  0.83696  0.31950  1.0000
  C   C1078     1.0  0.15050  0.81113  0.31141  1.0000
  C   C1079     1.0  0.13979  0.83847  0.29521  1.0000
  C   C1080     1.0  0.14158  0.85636  0.28592  1.0000
  C   C1081     1.0  0.17407  0.82281  0.27859  1.0000
  C   C1082     1.0  0.13374  0.80856  0.32332  1.0000
  C   C1083     1.0  0.16042  0.82740  0.33272  1.0000
  C   C1084     1.0  0.15649  0.83666  0.34664  1.0000
  C   C1085     1.0  0.12809  0.86464  0.27602  1.0000
  C   C1086     1.0  0.19158  0.82412  0.26874  1.0000
  C   C1087     1.0  0.13358  0.79010  0.32935  1.0000
  H   H1855     1.0  0.17928  0.82054  0.30224  1.0000
  H   H1856     1.0  0.17284  0.84124  0.29214  1.0000
  H   H1857     1.0  0.15332  0.84934  0.31481  1.0000
  H   H1858     1.0  0.13674  0.83950  0.32589  1.0000
  H   H1859     1.0  0.16074  0.80327  0.31751  1.0000
  H   H1860     1.0  0.15166  0.80556  0.30086  1.0000
  H   H1861     1.0  0.13954  0.83161  0.28608  1.0000
  H   H1862     1.0  0.12712  0.83971  0.30331  1.0000
  H   H1863     1.0  0.15373  0.85650  0.27708  1.0000
  H   H1864     1.0  0.14033  0.86415  0.29474  1.0000
  H   H1865     1.0  0.17342  0.80960  0.28107  1.0000
  H   H1866     1.0  0.16542  0.83033  0.27049  1.0000
  H   H1867     1.0  0.12329  0.81453  0.31694  1.0000
  H   H1868     1.0  0.13142  0.81376  0.33439  1.0000
  H   H1869     1.0  0.15789  0.81486  0.33850  1.0000
  H   H1870     1.0  0.17383  0.82610  0.32705  1.0000
  H   H1871     1.0  0.16468  0.82997  0.35548  1.0000
  H   H1872     1.0  0.15877  0.84942  0.34162  1.0000
  H   H1873     1.0  0.14336  0.83738  0.35343  1.0000
  H   H1874     1.0  0.11552  0.86514  0.28421  1.0000
  H   H1875     1.0  0.12930  0.87754  0.26987  1.0000
  H   H1876     1.0  0.12932  0.85789  0.26628  1.0000
  H   H1877     1.0  0.19347  0.83691  0.26663  1.0000
  H   H1878     1.0  0.20090  0.81513  0.27538  1.0000
  H   H1879     1.0  0.19350  0.82107  0.25655  1.0000
  H   H1880     1.0  0.14331  0.78365  0.33658  1.0000
  H   H1881     1.0  0.12132  0.78853  0.33747  1.0000
  H   H1882     1.0  0.13572  0.78421  0.31872  1.0000
  H   H1883     1.0  0.08090  0.80892  0.25528  1.0000
  H   H1884     1.0  0.03463  0.76178  0.25696  1.0000
  C   C1088     1.0  0.08854  0.81454  0.25979  1.0000
  H   H1885     1.0  0.11026  0.81684  0.12673  1.0000
  H   H1886     1.0  0.99214  0.78249  0.06649  1.0000
  H   H1887     1.0  0.19445  0.78139  0.98922  1.0000
  C   C1089     1.0  0.16962  0.80022  0.09551  1.0000
  C   C1090     1.0  0.21833  0.80484  0.97792  1.0000
  C   C1091     1.0  0.16047  0.80756  0.06354  1.0000
  H   H1888     1.0  0.21774  0.79397  0.22712  1.0000
  H   H1889     1.0  0.09905  0.80108  0.12931  1.0000
  S   S255      1.0  0.13774  0.95622  0.25059  1.0000
  C   C1092     1.0  0.12331  0.79756  0.11270  1.0000
  H   H1890     1.0  0.19150  0.74814  0.33366  1.0000
  S   S256      1.0  0.05266  0.73263  0.13106  1.0000
  C   C1093     1.0  0.15163  0.96929  0.24759  1.0000
  H   H1891     1.0  0.05554  0.75884  0.23094  1.0000
  H   H1892     1.0  0.03731  0.84687  0.17404  1.0000
  N   N63       1.0  0.15352  0.79643  0.09518  1.0000
  C   C1094     1.0  0.04989  0.79648  0.11744  1.0000
  H   H1893     1.0  0.06195  0.79143  0.12125  1.0000
  C   C1095     1.0  0.12818  0.92088  0.29799  1.0000
  C   C1096     1.0  0.18919  0.75315  0.06454  1.0000
  H   H1894     1.0  0.01514  0.85278  0.17547  1.0000
  H   H1895     1.0  0.22176  0.73426  0.97644  1.0000
  H   H1896     1.0  0.16178  0.82267  0.18170  1.0000
  N   N64       1.0  0.13212  0.79772  0.23374  1.0000
  C   C1097     1.0  0.14933  0.82345  0.19013  1.0000
  H   H1897     1.0  0.07616  0.77856  0.14326  1.0000
  H   H1898     1.0  0.10216  0.82499  0.23618  1.0000
  H   H1899     1.0  0.13979  0.81335  0.11125  1.0000
  H   H1900     1.0  0.05678  0.77986  0.03913  1.0000
  H   H1901     1.0  0.11300  0.78884  0.25389  1.0000
  C   C1098     1.0  0.15031  0.79556  0.27145  1.0000
  H   H1902     1.0  0.14516  0.79230  0.12188  1.0000
  H   H1903     1.0  0.21260  0.75811  0.23848  1.0000
  H   H1904     1.0  0.09493  0.75674  0.09566  1.0000
  H   H1905     1.0  0.16744  0.95953  0.27420  1.0000
  H   H1906     1.0  0.02882  0.86353  0.15866  1.0000
  H   H1907     1.0  0.18769  0.80080  0.23889  1.0000
  H   H1908     1.0  0.08449  0.74845  0.22618  1.0000
  S   S257      1.0  0.20930  0.76528  0.07604  1.0000
  H   H1909     1.0  0.22207  0.73932  0.15447  1.0000
  H   H1910     1.0  0.08146  0.82713  0.26148  1.0000
  H   H1911     1.0  0.22360  0.93123  0.17607  1.0000
  H   H1912     1.0  0.16370  0.79190  0.26588  1.0000
  H   H1913     1.0  0.99725  0.78409  0.08437  1.0000
  C   C1099     1.0  0.13286  0.81050  0.21769  1.0000
  S   S258      1.0  0.20707  0.81300  0.06298  1.0000
  H   H1914     1.0  0.16974  0.81489  0.06233  1.0000
  H   H1915     1.0  0.14985  0.77654  0.07264  1.0000
  Fe  Fe131     1.0  0.14928  0.75038  0.03321  1.0000
  C   C1100     1.0  0.14765  0.80797  0.08018  1.0000
  C   C1101     1.0  0.11418  0.79891  0.24267  1.0000
  C   C1102     1.0  0.14095  0.80026  0.11058  1.0000
  H   H1916     1.0  0.14512  0.83593  0.19313  1.0000
  H   H1917     1.0  0.16202  0.81496  0.03707  1.0000
  H   H1918     1.0  0.99049  0.76054  0.12125  1.0000
  H   H1919     1.0  0.11880  0.77584  0.22320  1.0000
  H   H1920     1.0  0.19704  0.74006  0.31575  1.0000
  C   C1103     1.0  0.17958  0.97426  0.24054  1.0000
  H   H1921     1.0  0.22522  0.76697  0.24487  1.0000
  H   H1922     1.0  0.21041  0.94275  0.11612  1.0000
  H   H1923     1.0  0.15908  0.81210  0.21196  1.0000
  H   H1924     1.0  0.03563  0.78438  0.13973  1.0000
  N   N65       1.0  0.17022  0.93464  0.28939  1.0000
  C   C1104     1.0  0.17816  0.92787  0.27392  1.0000
  C   C1105     1.0  0.15185  0.93501  0.29356  1.0000
  C   C1106     1.0  0.17205  0.95242  0.28552  1.0000
  C   C1107     1.0  0.17814  0.92505  0.30388  1.0000
  C   C1108     1.0  0.18532  0.90619  0.30498  1.0000
  C   C1109     1.0  0.19623  0.92990  0.26583  1.0000
  C   C1110     1.0  0.99599  0.75336  0.09031  1.0000
  C   C1111     1.0  0.14678  0.91822  0.29692  1.0000
  C   C1112     1.0  0.23828  0.80398  0.99912  1.0000
  C   C1113     1.0  0.19109  0.89793  0.32118  1.0000
  C   C1114     1.0  0.20465  0.91888  0.25332  1.0000
  H   H1925     1.0  0.99736  0.78399  0.23584  1.0000
  H   H1926     1.0  0.17065  0.93397  0.26433  1.0000
  H   H1927     1.0  0.17814  0.91452  0.27622  1.0000
  H   H1928     1.0  0.99339  0.79642  0.16902  1.0000
  H   H1929     1.0  0.20658  0.73467  0.13638  1.0000
  H   H1930     1.0  0.13055  0.77874  0.97928  1.0000
  H   H1931     1.0  0.18537  0.95296  0.28272  1.0000
  H   H1932     1.0  0.18868  0.93024  0.30392  1.0000
  H   H1933     1.0  0.16910  0.92655  0.31575  1.0000
  H   H1934     1.0  0.19623  0.90394  0.29472  1.0000
  H   H1935     1.0  0.17606  0.89985  0.30433  1.0000
  C   C1115     1.0  0.99064  0.82810  0.20796  1.0000
  H   H1936     1.0  0.20381  0.92677  0.27527  1.0000
  H   H1937     1.0  0.23419  0.82068  0.25434  1.0000
  H   H1938     1.0  0.09682  0.74044  0.18949  1.0000
  H   H1939     1.0  0.15328  0.91130  0.28702  1.0000
  H   H1940     1.0  0.14933  0.91045  0.30896  1.0000
  H   H1941     1.0  0.99294  0.75470  0.19122  1.0000
  Fe  Fe132     1.0  0.11475  0.74499  0.03757  1.0000
  H   H1942     1.0  0.12479  0.90869  0.30056  1.0000
  H   H1943     1.0  0.18038  0.89857  0.33193  1.0000
  H   H1944     1.0  0.20041  0.90397  0.32249  1.0000
  H   H1945     1.0  0.16523  0.95512  0.31154  1.0000
  H   H1946     1.0  0.21885  0.90066  0.21900  1.0000
  H   H1947     1.0  0.08716  0.74594  0.98488  1.0000
  C   C1116     1.0  0.00485  0.82204  0.21476  1.0000
  C   C1117     1.0  0.10540  0.74008  0.19721  1.0000
  H   H1948     1.0  0.20605  0.78608  0.21750  1.0000
  N   N66       1.0  0.02432  0.80955  0.15909  1.0000
  C   C1118     1.0  0.02647  0.79259  0.17042  1.0000
  C   C1119     1.0  0.03698  0.80870  0.14300  1.0000
  C   C1120     1.0  0.02823  0.82122  0.16711  1.0000
  C   C1121     1.0  0.00689  0.81630  0.15610  1.0000
  C   C1122     1.0  0.22520  0.74168  0.98313  1.0000
  H   H1949     1.0  0.02722  0.76786  0.20251  1.0000
  C   C1123     1.0  0.02895  0.83893  0.15634  1.0000
  C   C1124     1.0  0.03550  0.79727  0.13257  1.0000
  C   C1125     1.0  0.09806  0.76762  0.97844  1.0000
  C   C1126     1.0  0.00711  0.80614  0.22495  1.0000
  S   S259      1.0  0.16479  0.73916  0.25730  1.0000
  C   C1127     1.0  0.02747  0.85124  0.16680  1.0000
  H   H1950     1.0  0.03968  0.78783  0.17127  1.0000
  H   H1951     1.0  0.02355  0.78344  0.16536  1.0000
  H   H1952     1.0  0.03630  0.82116  0.13459  1.0000
  H   H1953     1.0  0.04976  0.80478  0.14547  1.0000
  H   H1954     1.0  0.04035  0.81585  0.17098  1.0000
  H   H1955     1.0  0.01882  0.82279  0.17873  1.0000
  H   H1956     1.0  0.23437  0.95377  0.12951  1.0000
  H   H1957     1.0  0.00711  0.82550  0.14410  1.0000
  H   H1958     1.0  0.14119  0.75119  0.10489  1.0000
  H   H1959     1.0  0.20383  0.76556  0.01107  1.0000
  H   H1960     1.0  0.12372  0.78414  0.11464  1.0000
  Fe  Fe133     1.0  0.22536  0.81617  0.03851  1.0000
  H   H1961     1.0  0.01881  0.84385  0.14948  1.0000
  H   H1962     1.0  0.04104  0.83861  0.14726  1.0000
  C   C1128     1.0  0.06162  0.76037  0.15754  1.0000
  H   H1963     1.0  0.22689  0.97369  0.19360  1.0000
  C   C1129     1.0  0.05496  0.75218  0.17349  1.0000
  H   H1964     1.0  0.14386  0.80706  0.04865  1.0000
  H   H1965     1.0  0.17744  0.77775  0.11398  1.0000
  C   C1130     1.0  0.06264  0.75389  0.08259  1.0000
  S   S260      1.0  0.21984  0.83176  0.09458  1.0000
  Fe  Fe134     1.0  0.22907  0.79426  0.34045  1.0000
  C   C1131     1.0  0.20936  0.96420  0.12554  1.0000
  C   C1132     1.0  0.19510  0.78810  0.24263  1.0000
  H   H1966     1.0  0.13873  0.75136  0.08474  1.0000
  H   H1967     1.0  0.03428  0.78382  0.06379  1.0000
  H   H1968     1.0  0.18562  0.79022  0.02696  1.0000
  C   C1133     1.0  0.18656  0.77984  0.03744  1.0000
  S   S261      1.0  0.16442  0.76977  0.02710  1.0000
  H   H1969     1.0  0.17951  0.79673  0.08479  1.0000
  C   C1134     1.0  0.17900  0.75414  0.05385  1.0000
  C   C1135     1.0  0.19781  0.76568  0.06185  1.0000
  Fe  Fe135     1.0  0.03095  0.74732  0.11989  1.0000
  C   C1136     1.0  0.22248  0.81438  0.00043  1.0000
  C   C1137     1.0  0.19666  0.77887  0.04813  1.0000
  H   H1970     1.0  0.22530  0.95520  0.10382  1.0000
  C   C1138     1.0  0.19438  0.79379  0.10878  1.0000
  H   H1971     1.0  0.20330  0.78857  0.04583  1.0000
  H   H1972     1.0  0.19885  0.78732  0.25424  1.0000
  C   C1139     1.0  0.23361  0.84736  0.15586  1.0000
  H   H1973     1.0  0.19902  0.78781  0.12031  1.0000
  H   H1974     1.0  0.16819  0.81383  0.09407  1.0000
  C   C1140     1.0  0.21831  0.74741  0.20980  1.0000
  C   C1141     1.0  0.22787  0.73929  0.14124  1.0000
  H   H1975     1.0  0.04991  0.80900  0.10927  1.0000
  Fe  Fe136     1.0  0.03495  0.73474  0.15529  1.0000
  N   N67       1.0  0.21968  0.96173  0.15194  1.0000
  C   C1142     1.0  0.10031  0.74642  0.12028  1.0000
  H   H1976     1.0  0.20987  0.95511  0.18759  1.0000
  H   H1977     1.0  0.15409  0.75603  0.21192  1.0000
  H   H1978     1.0  0.99971  0.74599  0.06663  1.0000
  H   H1979     1.0  0.22350  0.77170  0.19981  1.0000
  H   H1980     1.0  0.13844  0.74861  0.22918  1.0000
  Fe  Fe137     1.0  0.22560  0.81909  0.07318  1.0000
  C   C1143     1.0  0.23414  0.95265  0.16003  1.0000
  H   H1981     1.0  0.11779  0.80454  0.10191  1.0000
  H   H1982     1.0  0.09537  0.74939  0.13269  1.0000
  H   H1983     1.0  0.18279  0.94734  0.19323  1.0000
  H   H1984     1.0  0.13234  0.77968  0.08926  1.0000
  C   C1144     1.0  0.21258  0.81495  0.98965  1.0000
  C   C1145     1.0  0.20035  0.96333  0.18082  1.0000
  H   H1985     1.0  0.02226  0.79688  0.19525  1.0000
  C   C1146     1.0  0.15664  0.77827  0.09488  1.0000
  C   C1147     1.0  0.16297  0.96237  0.29924  1.0000
  C   C1148     1.0  0.22152  0.95474  0.13711  1.0000
  S   S262      1.0  0.12828  0.74748  0.05531  1.0000
  C   C1149     1.0  0.11155  0.80334  0.12794  1.0000
  H   H1986     1.0  0.20365  0.96255  0.10307  1.0000
  H   H1987     1.0  0.23774  0.92716  0.15712  1.0000
  C   C1150     1.0  0.22297  0.97287  0.20708  1.0000
  C   C1151     1.0  0.23412  0.79437  0.97676  1.0000
  H   H1988     1.0  0.99089  0.81470  0.07810  1.0000
  S   S263      1.0  0.13495  0.75019  0.01512  1.0000
  C   C1152     1.0  0.22295  0.74105  0.33957  1.0000
  H   H1989     1.0  0.19787  0.73448  0.02105  1.0000
  H   H1990     1.0  0.18162  0.96323  0.20374  1.0000
  C   C1153     1.0  0.01579  0.77380  0.19772  1.0000
  C   C1154     1.0  0.14627  0.75470  0.09141  1.0000
  S   S264      1.0  0.01405  0.75158  0.14405  1.0000
  H   H1991     1.0  0.16718  0.79470  0.06296  1.0000
  H   H1992     1.0  0.01716  0.74001  0.21848  1.0000
  H   H1993     1.0  0.16966  0.77372  0.08847  1.0000
  C   C1155     1.0  0.04771  0.76546  0.08087  1.0000
  H   H1994     1.0  0.23212  0.79451  0.20146  1.0000
  H   H1995     1.0  0.14520  0.82774  0.04890  1.0000
  H   H1996     1.0  0.22950  0.84825  0.23609  1.0000
  H   H1997     1.0  0.07692  0.75859  0.11257  1.0000
  H   H1998     1.0  0.17326  0.96865  0.18545  1.0000
  H   H1999     1.0  0.11825  0.73496  0.19095  1.0000
  S   S265      1.0  0.03130  0.76873  0.09797  1.0000
  C   C1156     1.0  0.04939  0.74835  0.23777  1.0000
  H   H2000     1.0  0.22530  0.76513  0.29419  1.0000
  C   C1157     1.0  0.09026  0.75912  0.10837  1.0000
  Fe  Fe138     1.0  0.14854  0.73407  0.28264  1.0000
  H   H2001     1.0  0.16900  0.77919  0.98204  1.0000
  H   H2002     1.0  0.11610  0.79637  0.13935  1.0000
  C   C1158     1.0  0.05848  0.77265  0.05124  1.0000
  H   H2003     1.0  0.99897  0.82340  0.16564  1.0000
  Fe  Fe139     1.0  0.22196  0.78692  0.06718  1.0000
  H   H2004     1.0  0.00422  0.79450  0.14854  1.0000
  H   H2005     1.0  0.20571  0.90557  0.25961  1.0000
  C   C1159     1.0  0.20330  0.95948  0.16355  1.0000
  H   H2006     1.0  0.19622  0.94296  0.25909  1.0000
  H   H2007     1.0  0.05905  0.75805  0.14687  1.0000
  H   H2008     1.0  0.05385  0.74834  0.19942  1.0000
  H   H2009     1.0  0.23200  0.84310  0.11647  1.0000
  H   H2010     1.0  0.14606  0.94369  0.28338  1.0000
  S   S266      1.0  0.23397  0.77748  0.36456  1.0000
  H   H2011     1.0  0.22014  0.85122  0.98385  1.0000
  H   H2012     1.0  0.12081  0.92739  0.30807  1.0000
  H   H2013     1.0  0.21819  0.87324  0.98037  1.0000
  H   H2014     1.0  0.14554  0.94002  0.30485  1.0000
  H   H2015     1.0  0.23167  0.74343  0.27780  1.0000
  H   H2016     1.0  0.06424  0.74659  0.09467  1.0000
  C   C1160     1.0  0.02166  0.73489  0.07634  1.0000
  H   H2017     1.0  0.20029  0.82291  0.99068  1.0000
  H   H2018     1.0  0.99228  0.74175  0.09823  1.0000
  H   H2019     1.0  0.21557  0.74555  0.03140  1.0000
  H   H2020     1.0  0.14334  0.80281  0.97587  1.0000
  H   H2021     1.0  0.12495  0.92832  0.28606  1.0000
  H   H2022     1.0  0.21614  0.75325  0.33358  1.0000
  C   C1161     1.0  0.22466  0.86207  0.97517  1.0000
  C   C1162     1.0  0.21971  0.98001  0.14701  1.0000
  H   H2023     1.0  0.01450  0.76635  0.18968  1.0000
  C   C1163     1.0  0.18347  0.96047  0.19141  1.0000
  H   H2024     1.0  0.21099  0.97709  0.12002  1.0000
  H   H2025     1.0  0.14939  0.96573  0.29986  1.0000
  C   C1164     1.0  0.23400  0.82181  0.24121  1.0000
  H   H2026     1.0  0.20166  0.94664  0.16549  1.0000
  C   C1165     1.0  0.21240  0.95561  0.11128  1.0000
  H   H2027     1.0  0.09732  0.77768  0.98457  1.0000
  H   H2028     1.0  0.09135  0.77181  0.10799  1.0000
  H   H2029     1.0  0.19629  0.96459  0.13234  1.0000
  H   H2030     1.0  0.02528  0.76524  0.23965  1.0000
  H   H2031     1.0  0.18468  0.75518  0.00085  1.0000
  H   H2032     1.0  0.12757  0.74513  0.26137  1.0000
  H   H2033     1.0  0.04854  0.78818  0.11024  1.0000
  H   H2034     1.0  0.19019  0.74281  0.07504  1.0000
  C   C1166     1.0  0.22099  0.76696  0.23381  1.0000
  H   H2035     1.0  0.23096  0.85525  0.06490  1.0000
  H   H2036     1.0  0.16667  0.74871  0.31061  1.0000
  H   H2037     1.0  0.21732  0.92103  0.24730  1.0000
  C   C1167     1.0  0.23485  0.85078  0.10423  1.0000
  C   C1168     1.0  0.23844  0.83812  0.23054  1.0000
  H   H2038     1.0  0.15021  0.74730  0.32864  1.0000
  C   C1169     1.0  0.19252  0.73673  0.32937  1.0000
  H   H2039     1.0  0.10467  0.75292  0.19818  1.0000
  C   C1170     1.0  0.07349  0.76132  0.05288  1.0000
  H   H2040     1.0  0.00507  0.77357  0.20842  1.0000
  H   H2041     1.0  0.09336  0.74962  0.00178  1.0000
  H   H2042     1.0  0.23693  0.98035  0.12244  1.0000
  C   C1171     1.0  0.23231  0.76223  0.02304  1.0000
  C   C1172     1.0  0.16332  0.74859  0.32400  1.0000
  H   H2043     1.0  0.17216  0.74458  0.05611  1.0000
  H   H2044     1.0  0.23805  0.90256  0.22228  1.0000
  H   H2045     1.0  0.19279  0.96755  0.15795  1.0000
  H   H2046     1.0  0.07514  0.73988  0.21555  1.0000
  H   H2047     1.0  0.18222  0.97608  0.29535  1.0000
  H   H2048     1.0  0.04686  0.74309  0.22861  1.0000
  C   C1173     1.0  0.00693  0.74937  0.07360  1.0000
  C   C1174     1.0  0.06048  0.73519  0.24895  1.0000
  N   N68       1.0  0.21132  0.74597  0.99748  1.0000
  H   H2049     1.0  0.15524  0.76084  0.97534  1.0000
  H   H2050     1.0  0.19418  0.74797  0.98233  1.0000
  H   H2051     1.0  0.02562  0.74590  0.25478  1.0000
  H   H2052     1.0  0.07500  0.76257  0.99503  1.0000
  H   H2053     1.0  0.02990  0.73815  0.08233  1.0000
  H   H2054     1.0  0.22604  0.75231  0.13401  1.0000
  H   H2055     1.0  0.09156  0.73362  0.25214  1.0000
  H   H2056     1.0  0.23001  0.87143  0.21798  1.0000
  C   C1175     1.0  0.17458  0.73397  0.33312  1.0000
  S   S267      1.0  0.23892  0.79255  0.07961  1.0000
  H   H2057     1.0  0.17745  0.73466  0.97474  1.0000
  H   H2058     1.0  0.23459  0.75833  0.03574  1.0000
  H   H2059     1.0  0.21791  0.73921  0.35309  1.0000
  H   H2060     1.0  0.23431  0.95861  0.16990  1.0000
  H   H2061     1.0  0.22422  0.73457  0.21528  1.0000
  C   C1176     1.0  0.22982  0.89387  0.22444  1.0000
  H   H2062     1.0  0.20765  0.75916  0.18800  1.0000
  H   H2063     1.0  0.20646  0.75142  0.21839  1.0000
  H   H2064     1.0  0.23611  0.85598  0.16193  1.0000
  H   H2065     1.0  0.23680  0.83921  0.21794  1.0000
  H   H2066     1.0  0.23463  0.73865  0.01774  1.0000
  C   C1177     1.0  0.23433  0.85751  0.07517  1.0000
  C   C1178     1.0  0.16874  0.97859  0.29565  1.0000
  S   S268      1.0  0.23792  0.78309  0.31804  1.0000
  H   H2067     1.0  0.23679  0.73330  0.37670  1.0000
  N   N69       1.0  0.23554  0.76107  0.22069  1.0000
  H   H2068     1.0  0.16889  0.73278  0.34651  1.0000
  H   H2069     1.0  0.20059  0.97643  0.17978  1.0000
  H   H2070     1.0  0.23717  0.80086  0.13311  1.0000
  H   H2071     1.0  0.20329  0.73435  0.43285  1.0000
  H   H2072     1.0  0.22551  0.74223  0.18506  1.0000
  H   H2073     1.0  0.22294  0.95317  0.22946  1.0000
  H   H2074     1.0  0.22535  0.88954  0.23796  1.0000
  S   S269      1.0  0.23617  0.81876  0.32770  1.0000
  H   H2075     1.0  0.23518  0.73602  0.23503  1.0000
  C   C1179     1.0  0.23898  0.87909  0.21645  1.0000
  C   C1180     1.0  0.11933  0.95236  0.71684  1.0000
  H   H2076     1.0  0.23112  0.74239  0.87566  1.0000
  C   C1181     1.0  0.00559  0.76705  0.64790  1.0000
  C   C1182     1.0  0.20834  0.83937  0.69749  1.0000
  H   H2077     1.0  0.12588  0.92228  0.66331  1.0000
  H   H2078     1.0  0.16229  0.93036  0.72719  1.0000
  H   H2079     1.0  0.17194  0.76275  0.58322  1.0000
  Fe  Fe140     1.0  0.23174  0.78196  0.94092  1.0000
  Fe  Fe141     1.0  0.20565  0.78177  0.92305  1.0000
  S   S270      1.0  0.17977  0.77945  0.92461  1.0000
  S   S271      1.0  0.21393  0.80241  0.92791  1.0000
  N   N70       1.0  0.21612  0.93789  0.73636  1.0000
  Fe  Fe142     1.0  0.02643  0.83112  0.69593  1.0000
  S   S272      1.0  0.04454  0.80897  0.68824  1.0000
  S   S273      1.0  0.03659  0.85284  0.69644  1.0000
  Fe  Fe143     1.0  0.99658  0.81656  0.69832  1.0000
  S   S274      1.0  0.01273  0.79334  0.69090  1.0000
  Fe  Fe144     1.0  0.02808  0.79396  0.70779  1.0000
  S   S275      1.0  0.04091  0.76915  0.72044  1.0000
  Fe  Fe145     1.0  0.02795  0.81003  0.67203  1.0000
  S   S276      1.0  0.04020  0.80398  0.64720  1.0000
  S   S277      1.0  0.01065  0.83363  0.67786  1.0000
  Fe  Fe146     1.0  0.12439  0.89729  0.71293  1.0000
  S   S278      1.0  0.12436  0.87299  0.73160  1.0000
  Fe  Fe147     1.0  0.14686  0.88057  0.68547  1.0000
  S   S279      1.0  0.14900  0.85510  0.70171  1.0000
  S   S280      1.0  0.16003  0.88840  0.65912  1.0000
  Fe  Fe148     1.0  0.12136  0.86322  0.71098  1.0000
  S   S281      1.0  0.10589  0.84404  0.71536  1.0000
  Fe  Fe149     1.0  0.15175  0.86695  0.72078  1.0000
  S   S282      1.0  0.17260  0.85718  0.73458  1.0000
  S   S283      1.0  0.11914  0.88804  0.69325  1.0000
  S   S284      1.0  0.15183  0.89164  0.70366  1.0000
  C   C1183     1.0  0.20413  0.85472  0.87514  1.0000
  C   C1184     1.0  0.17045  0.92307  0.68171  1.0000
  C   C1185     1.0  0.18076  0.93963  0.65389  1.0000
  H   H2080     1.0  0.11648  0.74722  0.96942  1.0000
  H   H2081     1.0  0.18510  0.93198  0.69346  1.0000
  H   H2082     1.0  0.19084  0.85728  0.87993  1.0000
  C   C1186     1.0  0.16633  0.74956  0.90365  1.0000
  H   H2083     1.0  0.21085  0.93642  0.70445  1.0000
  C   C1187     1.0  0.18996  0.74429  0.57071  1.0000
  H   H2084     1.0  0.17709  0.78436  0.61166  1.0000
  C   C1188     1.0  0.11637  0.75851  0.97331  1.0000
  C   C1189     1.0  0.12989  0.96185  0.71794  1.0000
  H   H2085     1.0  0.99339  0.78902  0.74473  1.0000
  C   C1190     1.0  0.22439  0.88552  0.66533  1.0000
  H   H2086     1.0  0.13499  0.87399  0.61895  1.0000
  S   S285      1.0  0.14447  0.77922  0.61706  1.0000
  H   H2087     1.0  0.14167  0.83089  0.66477  1.0000
  H   H2088     1.0  0.00075  0.75965  0.76450  1.0000
  H   H2089     1.0  0.18491  0.80873  0.71357  1.0000
  H   H2090     1.0  0.09630  0.75454  0.70878  1.0000
  C   C1191     1.0  0.17462  0.77953  0.65278  1.0000
  C   C1192     1.0  0.18129  0.78212  0.63577  1.0000
  C   C1193     1.0  0.17188  0.78220  0.62485  1.0000
  C   C1194     1.0  0.15601  0.77894  0.63096  1.0000
  C   C1195     1.0  0.14939  0.77585  0.64805  1.0000
  C   C1196     1.0  0.15863  0.77641  0.65895  1.0000
  H   H2091     1.0  0.21534  0.81432  0.84868  1.0000
  C   C1197     1.0  0.03434  0.74422  0.63107  1.0000
  H   H2092     1.0  0.13706  0.77337  0.65273  1.0000
  H   H2093     1.0  0.15349  0.77434  0.67213  1.0000
  H   H2094     1.0  0.01171  0.80597  0.62413  1.0000
  C   C1198     1.0  0.17922  0.87550  0.65262  1.0000
  C   C1199     1.0  0.19011  0.88186  0.63838  1.0000
  C   C1200     1.0  0.20517  0.87171  0.63233  1.0000
  C   C1201     1.0  0.20915  0.85498  0.64010  1.0000
  C   C1202     1.0  0.19822  0.84848  0.65426  1.0000
  C   C1203     1.0  0.18337  0.85885  0.66072  1.0000
  H   H2095     1.0  0.18687  0.89463  0.63194  1.0000
  N   N71       1.0  0.01484  0.75195  0.65813  1.0000
  H   H2096     1.0  0.20132  0.83554  0.66031  1.0000
  H   H2097     1.0  0.17503  0.85387  0.67172  1.0000
  C   C1204     1.0  0.03831  0.76503  0.74194  1.0000
  C   C1205     1.0  0.03470  0.75705  0.77642  1.0000
  N   N72       1.0  0.16617  0.93807  0.66835  1.0000
  H   H2098     1.0  0.21166  0.81330  0.69626  1.0000
  C   C1206     1.0  0.19730  0.73907  0.61926  1.0000
  C   C1207     1.0  0.21285  0.83846  0.93904  1.0000
  C   C1208     1.0  0.15035  0.93660  0.72418  1.0000
  C   C1209     1.0  0.05395  0.78444  0.64945  1.0000
  C   C1210     1.0  0.06457  0.77913  0.63545  1.0000
  C   C1211     1.0  0.07540  0.76346  0.63710  1.0000
  C   C1212     1.0  0.07540  0.75286  0.65269  1.0000
  C   C1213     1.0  0.06465  0.75809  0.66669  1.0000
  C   C1214     1.0  0.05415  0.77395  0.66510  1.0000
  H   H2099     1.0  0.06449  0.78717  0.62332  1.0000
  H   H2100     1.0  0.08343  0.75943  0.62620  1.0000
  H   H2101     1.0  0.04033  0.75484  0.64826  1.0000
  H   H2102     1.0  0.04617  0.77798  0.67600  1.0000
  C   C1215     1.0  0.05631  0.85007  0.70093  1.0000
  C   C1216     1.0  0.06430  0.83473  0.70910  1.0000
  C   C1217     1.0  0.07955  0.83314  0.71321  1.0000
  C   C1218     1.0  0.08707  0.84676  0.70912  1.0000
  C   C1219     1.0  0.07927  0.86204  0.70066  1.0000
  C   C1220     1.0  0.06389  0.86371  0.69673  1.0000
  H   H2103     1.0  0.05846  0.82424  0.71265  1.0000
  H   H2104     1.0  0.08549  0.82136  0.71981  1.0000
  H   H2105     1.0  0.08503  0.87256  0.69727  1.0000
  H   H2106     1.0  0.05783  0.87561  0.69035  1.0000
  C   C1221     1.0  0.18041  0.76368  0.91477  1.0000
  H   H2107     1.0  0.99210  0.80024  0.63443  1.0000
  H   H2108     1.0  0.02293  0.78891  0.74521  1.0000
  C   C1222     1.0  0.16584  0.76193  0.91170  1.0000
  H   H2109     1.0  0.17925  0.90598  0.71236  1.0000
  H   H2110     1.0  0.15422  0.77034  0.91524  1.0000
  H   H2111     1.0  0.20674  0.75385  0.91231  1.0000
  H   H2112     1.0  0.15875  0.75377  0.83385  1.0000
  H   H2113     1.0  0.14367  0.91388  0.72539  1.0000
  C   C1223     1.0  0.17604  0.89234  0.76458  1.0000
  C   C1224     1.0  0.18829  0.87781  0.76319  1.0000
  C   C1225     1.0  0.18724  0.86706  0.75393  1.0000
  C   C1226     1.0  0.17393  0.87075  0.74608  1.0000
  C   C1227     1.0  0.16174  0.88525  0.74749  1.0000
  C   C1228     1.0  0.16284  0.89605  0.75659  1.0000
  H   H2114     1.0  0.00581  0.79041  0.61801  1.0000
  H   H2115     1.0  0.19666  0.85581  0.75299  1.0000
  H   H2116     1.0  0.15130  0.88798  0.74176  1.0000
  H   H2117     1.0  0.15332  0.90725  0.75762  1.0000
  H   H2118     1.0  0.13688  0.92524  0.68585  1.0000
  H   H2119     1.0  0.12940  0.80973  0.69846  1.0000
  S   S286      1.0  0.11146  0.92318  0.71711  1.0000
  H   H2120     1.0  0.20130  0.90391  0.70441  1.0000
  C   C1229     1.0  0.19545  0.75292  0.90976  1.0000
  H   H2121     1.0  0.01952  0.78174  0.77587  1.0000
  S   S287      1.0  0.01083  0.81599  0.71710  1.0000
  H   H2122     1.0  0.16021  0.92316  0.69288  1.0000
  S   S288      1.0  0.19594  0.91518  0.80841  1.0000
  C   C1230     1.0  0.23390  0.78183  0.85102  1.0000
  H   H2123     1.0  0.06463  0.75003  0.67881  1.0000
  C   C1231     1.0  0.14142  0.79318  0.95568  1.0000
  C   C1232     1.0  0.21344  0.90893  0.73402  1.0000
  S   S289      1.0  0.22579  0.79806  0.66092  1.0000
  S   S290      1.0  0.23324  0.89227  0.81220  1.0000
  H   H2124     1.0  0.19667  0.84528  0.96179  1.0000
  H   H2125     1.0  0.18279  0.86057  0.60867  1.0000
  H   H2126     1.0  0.20039  0.84766  0.70592  1.0000
  C   C1233     1.0  0.13536  0.93592  0.67529  1.0000
  H   H2127     1.0  0.99038  0.85331  0.61995  1.0000
  H   H2128     1.0  0.22790  0.86238  0.89878  1.0000
  H   H2129     1.0  0.21533  0.88455  0.73001  1.0000
  C   C1234     1.0  0.15419  0.83307  0.66326  1.0000
  H   H2130     1.0  0.21708  0.73880  0.51967  1.0000
  H   H2131     1.0  0.23218  0.92580  0.82605  1.0000
  H   H2132     1.0  0.22715  0.95047  0.71200  1.0000
  H   H2133     1.0  0.19748  0.92095  0.67758  1.0000
  H   H2134     1.0  0.10735  0.95850  0.71394  1.0000
  H   H2135     1.0  0.00582  0.76241  0.73500  1.0000
  H   H2136     1.0  0.23556  0.82001  0.71175  1.0000
  H   H2137     1.0  0.21058  0.73497  0.61346  1.0000
  H   H2138     1.0  0.20738  0.86647  0.95985  1.0000
  C   C1235     1.0  0.22110  0.83651  0.83172  1.0000
  H   H2139     1.0  0.09218  0.77305  0.96764  1.0000
  H   H2140     1.0  0.18036  0.79333  0.96650  1.0000
  H   H2141     1.0  0.14251  0.90131  0.60979  1.0000
  C   C1236     1.0  0.18633  0.92141  0.68783  1.0000
  H   H2142     1.0  0.17441  0.94403  0.77597  1.0000
  S   S291      1.0  0.18645  0.77980  0.66629  1.0000
  C   C1237     1.0  0.12437  0.93499  0.71926  1.0000
  C   C1238     1.0  0.18932  0.90546  0.70103  1.0000
  H   H2143     1.0  0.17707  0.95000  0.64365  1.0000
  C   C1239     1.0  0.22078  0.86560  0.92456  1.0000
  H   H2144     1.0  0.08064  0.74299  0.75914  1.0000
  H   H2145     1.0  0.22140  0.95571  0.74680  1.0000
  C   C1240     1.0  0.01563  0.75632  0.67366  1.0000
  C   C1241     1.0  0.14790  0.87451  0.61845  1.0000
  H   H2146     1.0  0.17148  0.91148  0.67773  1.0000
  C   C1242     1.0  0.22825  0.86215  0.85490  1.0000
  H   H2147     1.0  0.20325  0.84387  0.68614  1.0000
  H   H2148     1.0  0.16852  0.81900  0.64442  1.0000
  H   H2149     1.0  0.23374  0.87043  0.84417  1.0000
  C   C1243     1.0  0.22658  0.95571  0.79770  1.0000
  H   H2150     1.0  0.15531  0.92432  0.65813  1.0000
  S   S292      1.0  0.23060  0.76919  0.64028  1.0000
  S   S293      1.0  0.22137  0.76166  0.93846  1.0000
  S   S294      1.0  0.03168  0.75127  0.79805  1.0000
  H   H2151     1.0  0.22933  0.83424  0.66996  1.0000
  H   H2152     1.0  0.16305  0.84547  0.60485  1.0000
  C   C1244     1.0  0.23841  0.84812  0.86277  1.0000
  H   H2153     1.0  0.16631  0.86375  0.63373  1.0000
  H   H2154     1.0  0.18611  0.96356  0.74079  1.0000
  H   H2155     1.0  0.19318  0.74735  0.54477  1.0000
  C   C1245     1.0  0.22671  0.85903  0.68767  1.0000
  H   H2156     1.0  0.14559  0.86352  0.64426  1.0000
  C   C1246     1.0  0.21652  0.86657  0.90786  1.0000
  H   H2157     1.0  0.13918  0.79849  0.94300  1.0000
  H   H2158     1.0  0.13016  0.78121  0.93441  1.0000
  H   H2159     1.0  0.03677  0.74882  0.86693  1.0000
  H   H2160     1.0  0.13357  0.80132  0.68036  1.0000
  H   H2161     1.0  0.20906  0.91533  0.62720  1.0000
  S   S295      1.0  0.23541  0.78057  0.59414  1.0000
  H   H2162     1.0  0.11683  0.75388  0.68019  1.0000
  H   H2163     1.0  0.18990  0.89443  0.69636  1.0000
  H   H2164     1.0  0.19390  0.78353  0.63094  1.0000
  H   H2165     1.0  0.17621  0.76366  0.82876  1.0000
  H   H2166     1.0  0.20356  0.94922  0.81201  1.0000
  H   H2167     1.0  0.15545  0.82212  0.68894  1.0000
  H   H2168     1.0  0.22919  0.83777  0.95996  1.0000
  H   H2169     1.0  0.23113  0.80570  0.82326  1.0000
  C   C1247     1.0  0.12097  0.77524  0.94447  1.0000
  H   H2170     1.0  0.17920  0.74986  0.95534  1.0000
  H   H2171     1.0  0.22630  0.83731  0.74952  1.0000
  H   H2172     1.0  0.23377  0.81850  0.74171  1.0000
  H   H2173     1.0  0.20103  0.93745  0.62268  1.0000
  C   C1248     1.0  0.11679  0.76228  0.93758  1.0000
  H   H2174     1.0  0.12864  0.81631  0.96372  1.0000
  H   H2175     1.0  0.09546  0.74175  0.73981  1.0000
  H   H2176     1.0  0.19227  0.75125  0.61169  1.0000
  H   H2177     1.0  0.11611  0.79195  0.96759  1.0000
  C   C1249     1.0  0.11167  0.77016  0.92103  1.0000
  H   H2178     1.0  0.15039  0.81610  0.62392  1.0000
  H   H2179     1.0  0.18912  0.73474  0.58241  1.0000
  N   N73       1.0  0.22602  0.84840  0.93472  1.0000
  C   C1250     1.0  0.21158  0.95779  0.80934  1.0000
  H   H2180     1.0  0.21543  0.83578  0.82187  1.0000
  C   C1251     1.0  0.22466  0.92072  0.73309  1.0000
  H   H2181     1.0  0.14348  0.74631  0.95267  1.0000
  C   C1252     1.0  0.14092  0.80754  0.96319  1.0000
  H   H2182     1.0  0.22184  0.74244  0.54374  1.0000
  H   H2183     1.0  0.19541  0.73934  0.52190  1.0000
  H   H2184     1.0  0.02648  0.73990  0.85751  1.0000
  H   H2185     1.0  0.12761  0.75190  0.93545  1.0000
  H   H2186     1.0  0.10635  0.75702  0.94624  1.0000
  C   C1253     1.0  0.08887  0.73439  0.75120  1.0000
  H   H2187     1.0  0.05006  0.76432  0.83929  1.0000
  H   H2188     1.0  0.20966  0.81610  0.71676  1.0000
  H   H2189     1.0  0.03152  0.75660  0.69779  1.0000
  C   C1254     1.0  0.99259  0.76491  0.74160  1.0000
  H   H2190     1.0  0.19002  0.74021  0.84845  1.0000
  H   H2191     1.0  0.21993  0.89169  0.65373  1.0000
  H   H2192     1.0  0.10058  0.78048  0.92240  1.0000
  H   H2193     1.0  0.12203  0.77492  0.91161  1.0000
  H   H2194     1.0  0.05344  0.74037  0.74258  1.0000
  Fe  Fe150     1.0  0.20674  0.89073  0.82374  1.0000
  H   H2195     1.0  0.00481  0.82581  0.64689  1.0000
  C   C1255     1.0  0.04446  0.74556  0.76692  1.0000
  N   N74       1.0  0.09299  0.77937  0.69344  1.0000
  C   C1256     1.0  0.07960  0.78675  0.70659  1.0000
  C   C1257     1.0  0.08874  0.78741  0.67673  1.0000
  C   C1258     1.0  0.09266  0.76121  0.69684  1.0000
  C   C1259     1.0  0.11012  0.78092  0.69343  1.0000
  C   C1260     1.0  0.11122  0.79650  0.69862  1.0000
  C   C1261     1.0  0.08023  0.77768  0.72476  1.0000
  H   H2196     1.0  0.17323  0.82660  0.61587  1.0000
  C   C1262     1.0  0.08816  0.80622  0.67055  1.0000
  C   C1263     1.0  0.08218  0.81287  0.65430  1.0000
  C   C1264     1.0  0.12903  0.79888  0.69401  1.0000
  C   C1265     1.0  0.06909  0.78822  0.73701  1.0000
  H   H2197     1.0  0.01558  0.73195  0.69114  1.0000
  H   H2198     1.0  0.06724  0.78659  0.70506  1.0000
  H   H2199     1.0  0.07928  0.80002  0.70524  1.0000
  H   H2200     1.0  0.09799  0.78169  0.66685  1.0000
  H   H2201     1.0  0.07657  0.78518  0.67664  1.0000
  H   H2202     1.0  0.07976  0.75976  0.69828  1.0000
  H   H2203     1.0  0.16030  0.89324  0.61916  1.0000
  H   H2204     1.0  0.18730  0.82236  0.95718  1.0000
  H   H2205     1.0  0.11613  0.77004  0.70195  1.0000
  H   H2206     1.0  0.10690  0.79515  0.71223  1.0000
  H   H2207     1.0  0.10352  0.80809  0.69283  1.0000
  H   H2208     1.0  0.07555  0.76613  0.72775  1.0000
  H   H2209     1.0  0.09305  0.77425  0.72682  1.0000
  C   C1266     1.0  0.21426  0.84043  0.88279  1.0000
  C   C1267     1.0  0.02303  0.74163  0.68663  1.0000
  H   H2210     1.0  0.07971  0.81348  0.67960  1.0000
  H   H2211     1.0  0.10081  0.80852  0.66799  1.0000
  H   H2212     1.0  0.09064  0.80646  0.64452  1.0000
  H   H2213     1.0  0.06947  0.81103  0.65599  1.0000
  H   H2214     1.0  0.08185  0.82638  0.65007  1.0000
  H   H2215     1.0  0.13738  0.78774  0.69983  1.0000
  C   C1268     1.0  0.21502  0.91947  0.85788  1.0000
  H   H2216     1.0  0.21848  0.86606  0.69710  1.0000
  H   H2217     1.0  0.07445  0.79881  0.73633  1.0000
  H   H2218     1.0  0.05647  0.79307  0.73435  1.0000
  H   H2219     1.0  0.06793  0.78054  0.74981  1.0000
  H   H2220     1.0  0.19395  0.97355  0.70071  1.0000
  Fe  Fe151     1.0  0.22239  0.91580  0.79571  1.0000
  H   H2221     1.0  0.16205  0.80748  0.67574  1.0000
  H   H2222     1.0  0.19852  0.87484  0.76930  1.0000
  H   H2223     1.0  0.20437  0.91484  0.72602  1.0000
  H   H2224     1.0  0.11031  0.93361  0.67744  1.0000
  H   H2225     1.0  0.20304  0.74964  0.63620  1.0000
  H   H2226     1.0  0.20881  0.83199  0.89346  1.0000
  H   H2227     1.0  0.21690  0.89290  0.89847  1.0000
  H   H2228     1.0  0.18161  0.82730  0.69772  1.0000
  H   H2229     1.0  0.20553  0.97705  0.77470  1.0000
  N   N75       1.0  0.07090  0.89334  0.75212  1.0000
  C   C1269     1.0  0.06345  0.90130  0.73707  1.0000
  C   C1270     1.0  0.05818  0.89746  0.76731  1.0000
  C   C1271     1.0  0.08523  0.90124  0.75021  1.0000
  C   C1272     1.0  0.07722  0.87476  0.75405  1.0000
  C   C1273     1.0  0.06770  0.86530  0.74809  1.0000
  C   C1274     1.0  0.07580  0.90080  0.72011  1.0000
  C   C1275     1.0  0.09381  0.89619  0.76511  1.0000
  C   C1276     1.0  0.04191  0.89124  0.77150  1.0000
  C   C1277     1.0  0.02947  0.89808  0.78586  1.0000
  C   C1278     1.0  0.07293  0.84654  0.75419  1.0000
  C   C1279     1.0  0.06667  0.90501  0.70606  1.0000
  C   C1280     1.0  0.10926  0.90344  0.76084  1.0000
  H   H2230     1.0  0.05759  0.91463  0.73706  1.0000
  H   H2231     1.0  0.05321  0.89567  0.73732  1.0000
  H   H2232     1.0  0.06343  0.89198  0.77856  1.0000
  H   H2233     1.0  0.05484  0.91118  0.76626  1.0000
  H   H2234     1.0  0.08123  0.91506  0.74736  1.0000
  H   H2235     1.0  0.09518  0.89813  0.73947  1.0000
  H   H2236     1.0  0.09028  0.87180  0.74706  1.0000
  H   H2237     1.0  0.07775  0.86883  0.76720  1.0000
  H   H2238     1.0  0.07046  0.86790  0.73437  1.0000
  H   H2239     1.0  0.05409  0.86890  0.75227  1.0000
  H   H2240     1.0  0.08342  0.91018  0.71728  1.0000
  H   H2241     1.0  0.08435  0.88847  0.72009  1.0000
  H   H2242     1.0  0.09764  0.88248  0.76887  1.0000
  H   H2243     1.0  0.08539  0.90108  0.77585  1.0000
  H   H2244     1.0  0.03575  0.89511  0.76089  1.0000
  H   H2245     1.0  0.04454  0.87750  0.77552  1.0000
  H   H2246     1.0  0.02595  0.91185  0.78247  1.0000
  H   H2247     1.0  0.01805  0.89316  0.78887  1.0000
  H   H2248     1.0  0.03480  0.89425  0.79707  1.0000
  H   H2249     1.0  0.08658  0.84226  0.75024  1.0000
  H   H2250     1.0  0.06925  0.84307  0.76790  1.0000
  H   H2251     1.0  0.06677  0.84010  0.74885  1.0000
  H   H2252     1.0  0.05851  0.91762  0.70532  1.0000
  H   H2253     1.0  0.07585  0.90475  0.69411  1.0000
  H   H2254     1.0  0.05905  0.89581  0.70799  1.0000
  H   H2255     1.0  0.11862  0.89874  0.75046  1.0000
  H   H2256     1.0  0.10595  0.91722  0.75730  1.0000
  H   H2257     1.0  0.11504  0.89983  0.77173  1.0000
  S   S296      1.0  0.19822  0.88319  0.85148  1.0000
  H   H2258     1.0  0.15268  0.84539  0.66593  1.0000
  C   C1281     1.0  0.02883  0.77679  0.75127  1.0000
  C   C1282     1.0  0.02701  0.77277  0.76857  1.0000
  H   H2259     1.0  0.17987  0.82876  0.71870  1.0000
  C   C1283     1.0  0.12832  0.78300  0.96647  1.0000
  H   H2260     1.0  0.99335  0.74277  0.90416  1.0000
  C   C1284     1.0  0.18677  0.82165  0.70897  1.0000
  H   H2261     1.0  0.21539  0.90625  0.85861  1.0000
  H   H2262     1.0  0.00847  0.84668  0.64023  1.0000
  C   C1285     1.0  0.13982  0.92720  0.72311  1.0000
  H   H2263     1.0  0.20756  0.86915  0.67287  1.0000
  C   C1286     1.0  0.14550  0.95394  0.72150  1.0000
  H   H2264     1.0  0.19530  0.97254  0.82660  1.0000
  S   S297      1.0  0.11816  0.75122  0.61222  1.0000
  C   C1287     1.0  0.19569  0.84570  0.94909  1.0000
  H   H2265     1.0  0.13665  0.84685  0.62050  1.0000
  C   C1288     1.0  0.21472  0.95035  0.72033  1.0000
  H   H2266     1.0  0.23243  0.82067  0.85146  1.0000
  S   S298      1.0  0.17678  0.90620  0.77606  1.0000
  H   H2267     1.0  0.11838  0.78052  0.68096  1.0000
  C   C1289     1.0  0.99101  0.75658  0.76026  1.0000
  H   H2268     1.0  0.13066  0.94745  0.68011  1.0000
  H   H2269     1.0  0.15414  0.78537  0.95468  1.0000
  N   N76       1.0  0.99218  0.73804  0.76475  1.0000
  H   H2270     1.0  0.21144  0.83795  0.72847  1.0000
  H   H2271     1.0  0.19063  0.85861  0.94309  1.0000
  C   C1290     1.0  0.19600  0.74093  0.90123  1.0000
  C   C1291     1.0  0.18896  0.95459  0.75217  1.0000
  C   C1292     1.0  0.16234  0.82009  0.67644  1.0000
  N   N77       1.0  0.12752  0.76858  0.96013  1.0000
  H   H2272     1.0  0.14875  0.74580  0.67861  1.0000
  C   C1293     1.0  0.20401  0.92649  0.63268  1.0000
  Fe  Fe152     1.0  0.23260  0.78918  0.61728  1.0000
  C   C1294     1.0  0.14106  0.83989  0.63202  1.0000
  C   C1295     1.0  0.12197  0.93403  0.66780  1.0000
  C   C1296     1.0  0.15200  0.93618  0.66235  1.0000
  C   C1297     1.0  0.17237  0.95255  0.76403  1.0000
  H   H2273     1.0  0.10856  0.76065  0.91659  1.0000
  H   H2274     1.0  0.19286  0.73895  0.81763  1.0000
  H   H2275     1.0  0.02970  0.75616  0.62296  1.0000
  H   H2276     1.0  0.17689  0.83516  0.64527  1.0000
  H   H2277     1.0  0.14965  0.94608  0.65126  1.0000
  H   H2278     1.0  0.15230  0.95156  0.68757  1.0000
  H   H2279     1.0  0.17543  0.82083  0.67475  1.0000
  S   S299      1.0  0.21040  0.80731  0.62752  1.0000
  C   C1298     1.0  0.18075  0.78008  0.97264  1.0000
  H   H2280     1.0  0.11945  0.94469  0.65740  1.0000
  H   H2281     1.0  0.20515  0.92496  0.83557  1.0000
  H   H2282     1.0  0.19543  0.95994  0.75822  1.0000
  C   C1299     1.0  0.17381  0.75753  0.57221  1.0000
  C   C1300     1.0  0.20419  0.94738  0.70994  1.0000
  H   H2283     1.0  0.19072  0.94308  0.65736  1.0000
  C   C1301     1.0  0.20686  0.97110  0.81748  1.0000
  H   H2284     1.0  0.02335  0.76571  0.67047  1.0000
  H   H2285     1.0  0.17094  0.84067  0.95830  1.0000
  H   H2286     1.0  0.22693  0.93480  0.75720  1.0000
  H   H2287     1.0  0.17240  0.95521  0.67869  1.0000
  Fe  Fe153     1.0  0.13905  0.75423  0.62112  1.0000
  H   H2288     1.0  0.18223  0.74628  0.64157  1.0000
  C   C1302     1.0  0.15193  0.73213  0.68302  1.0000
  H   H2289     1.0  0.16317  0.97262  0.65248  1.0000
  H   H2290     1.0  0.20086  0.92893  0.76003  1.0000
  Fe  Fe154     1.0  0.23074  0.87889  0.79439  1.0000
  S   S300      1.0  0.15988  0.96495  0.72190  1.0000
  C   C1303     1.0  0.16145  0.95329  0.67556  1.0000
  H   H2291     1.0  0.19199  0.94515  0.71745  1.0000
  H   H2292     1.0  0.02713  0.77883  0.63536  1.0000
  Fe  Fe155     1.0  0.22842  0.81565  0.63616  1.0000
  H   H2293     1.0  0.16506  0.94748  0.75854  1.0000
  H   H2294     1.0  0.18130  0.83558  0.93847  1.0000
  C   C1304     1.0  0.03239  0.74630  0.64889  1.0000
  H   H2295     1.0  0.00426  0.73387  0.78489  1.0000
  C   C1305     1.0  0.22674  0.94295  0.74467  1.0000
  H   H2296     1.0  0.20969  0.92156  0.87069  1.0000
  H   H2297     1.0  0.21703  0.82598  0.94656  1.0000
  Fe  Fe156     1.0  0.19699  0.90009  0.79031  1.0000
  C   C1306     1.0  0.14094  0.82143  0.63388  1.0000
  H   H2298     1.0  0.20853  0.84644  0.59227  1.0000
  H   H2299     1.0  0.21166  0.84436  0.83975  1.0000
  H   H2300     1.0  0.21370  0.92817  0.63798  1.0000
  H   H2301     1.0  0.18373  0.91463  0.86031  1.0000
  C   C1307     1.0  0.18309  0.83541  0.95083  1.0000
  H   H2302     1.0  0.19651  0.88870  0.90833  1.0000
  C   C1308     1.0  0.04612  0.74948  0.74977  1.0000
  H   H2303     1.0  0.23080  0.87255  0.92172  1.0000
  H   H2304     1.0  0.23180  0.84261  0.82592  1.0000
  C   C1309     1.0  0.20864  0.88436  0.90025  1.0000
  H   H2305     1.0  0.02747  0.73500  0.63112  1.0000
  C   C1310     1.0  0.23177  0.98072  0.80190  1.0000
  H   H2306     1.0  0.01295  0.78790  0.65187  1.0000
  H   H2307     1.0  0.21778  0.89298  0.67482  1.0000
  H   H2308     1.0  0.19117  0.93300  0.74335  1.0000
  C   C1311     1.0  0.19934  0.93772  0.74808  1.0000
  N   N78       1.0  0.15750  0.84338  0.63146  1.0000
  Fe  Fe157     1.0  0.20980  0.78799  0.65116  1.0000
  C   C1312     1.0  0.21108  0.86548  0.86104  1.0000
  C   C1313     1.0  0.18147  0.73916  0.89819  1.0000
  C   C1314     1.0  0.20525  0.82157  0.70506  1.0000
  C   C1315     1.0  0.00534  0.83677  0.63641  1.0000
  H   H2309     1.0  0.17592  0.93430  0.84775  1.0000
  C   C1316     1.0  0.22611  0.75492  0.86868  1.0000
  H   H2310     1.0  0.13955  0.89446  0.63197  1.0000
  C   C1317     1.0  0.22098  0.86440  0.95821  1.0000
  H   H2311     1.0  0.17948  0.92183  0.64034  1.0000
  H   H2312     1.0  0.10969  0.78535  0.94612  1.0000
  H   H2313     1.0  0.15554  0.87280  0.60612  1.0000
  C   C1318     1.0  0.19682  0.84211  0.59491  1.0000
  C   C1319     1.0  0.12402  0.81969  0.63293  1.0000
  C   C1320     1.0  0.15408  0.75080  0.97027  1.0000
  H   H2314     1.0  0.11401  0.82558  0.64218  1.0000
  H   H2315     1.0  0.23552  0.91594  0.87699  1.0000
  C   C1321     1.0  0.18551  0.84684  0.61082  1.0000
  H   H2316     1.0  0.22450  0.78220  0.84418  1.0000
  H   H2317     1.0  0.21173  0.73373  0.49496  1.0000
  Fe  Fe158     1.0  0.23375  0.79936  0.90495  1.0000
  H   H2318     1.0  0.20692  0.77428  0.97103  1.0000
  H   H2319     1.0  0.18188  0.77324  0.96304  1.0000
  H   H2320     1.0  0.21950  0.75353  0.85990  1.0000
  H   H2321     1.0  0.12161  0.82555  0.62036  1.0000
  H   H2322     1.0  0.16301  0.75209  0.57369  1.0000
  H   H2323     1.0  0.22494  0.87585  0.95025  1.0000
  H   H2324     1.0  0.23465  0.88891  0.86966  1.0000
  H   H2325     1.0  0.14348  0.81389  0.64601  1.0000
  S   S301      1.0  0.20492  0.87569  0.80701  1.0000
  C   C1322     1.0  0.22109  0.86801  0.67119  1.0000
  H   H2326     1.0  0.09903  0.75503  0.67237  1.0000
  H   H2327     1.0  0.21361  0.87675  0.62139  1.0000
  C   C1323     1.0  0.14444  0.75749  0.95617  1.0000
  S   S302      1.0  0.13315  0.73811  0.64626  1.0000
  C   C1324     1.0  0.16500  0.83218  0.64565  1.0000
  H   H2328     1.0  0.20646  0.90548  0.74694  1.0000
  N   N79       1.0  0.22618  0.84088  0.69343  1.0000
  H   H2329     1.0  0.12376  0.80634  0.63552  1.0000
  C   C1325     1.0  0.16933  0.84019  0.61546  1.0000
  C   C1326     1.0  0.20115  0.96237  0.69576  1.0000
  H   H2330     1.0  0.05089  0.73363  0.77273  1.0000
  H   H2331     1.0  0.06269  0.74208  0.87524  1.0000
  C   C1327     1.0  0.14756  0.89193  0.61997  1.0000
  N   N80       1.0  0.23223  0.92310  0.85180  1.0000
  H   H2332     1.0  0.19259  0.84181  0.62074  1.0000
  H   H2333     1.0  0.21309  0.96495  0.68761  1.0000
  S   S303      1.0  0.22805  0.84268  0.63204  1.0000
  H   H2334     1.0  0.20998  0.96317  0.72256  1.0000
  H   H2335     1.0  0.16361  0.76079  0.84948  1.0000
  H   H2336     1.0  0.19067  0.84801  0.58430  1.0000
  C   C1328     1.0  0.18845  0.92410  0.64615  1.0000
  C   C1329     1.0  0.15470  0.86117  0.63269  1.0000
  H   H2337     1.0  0.20002  0.82843  0.59616  1.0000
  H   H2338     1.0  0.13128  0.84462  0.64222  1.0000
  C   C1330     1.0  0.23868  0.80752  0.83098  1.0000
  H   H2339     1.0  0.23078  0.89532  0.71590  1.0000
  Fe  Fe159     1.0  0.11334  0.73349  0.63679  1.0000
  C   C1331     1.0  0.16907  0.75516  0.83846  1.0000
  H   H2340     1.0  0.21107  0.83607  0.92769  1.0000
  H   H2341     1.0  0.15243  0.76389  0.94517  1.0000
  S   S304      1.0  0.22386  0.78075  0.89888  1.0000
  S   S305      1.0  0.22282  0.90227  0.77654  1.0000
  C   C1332     1.0  0.10414  0.75147  0.68369  1.0000
  H   H2342     1.0  0.19208  0.91277  0.65547  1.0000
  C   C1333     1.0  0.02343  0.74753  0.70165  1.0000
  H   H2343     1.0  0.22814  0.94848  0.83758  1.0000
  C   C1334     1.0  0.00525  0.79549  0.62875  1.0000
  C   C1335     1.0  0.23375  0.83377  0.70844  1.0000
  C   C1336     1.0  0.05016  0.75384  0.83403  1.0000
  H   H2344     1.0  0.20212  0.94298  0.84379  1.0000
  H   H2345     1.0  0.23853  0.83774  0.91315  1.0000
  H   H2346     1.0  0.20740  0.74715  0.66090  1.0000
  C   C1337     1.0  0.19276  0.73668  0.55557  1.0000
  C   C1338     1.0  0.00580  0.73808  0.66211  1.0000
  H   H2347     1.0  0.05985  0.74748  0.62205  1.0000
  H   H2348     1.0  0.01547  0.83302  0.62602  1.0000
  H   H2349     1.0  0.20751  0.85890  0.90944  1.0000
  H   H2350     1.0  0.21942  0.94659  0.85904  1.0000
  C   C1339     1.0  0.22412  0.84045  0.72424  1.0000
  H   H2351     1.0  0.15065  0.81436  0.95541  1.0000
  C   C1340     1.0  0.23051  0.84930  0.95024  1.0000
  C   C1341     1.0  0.22372  0.89278  0.72891  1.0000
  H   H2352     1.0  0.16503  0.96481  0.76651  1.0000
  C   C1342     1.0  0.18456  0.92786  0.85620  1.0000
  H   H2353     1.0  0.23067  0.97240  0.85403  1.0000
  C   C1343     1.0  0.15430  0.96984  0.66443  1.0000
  H   H2354     1.0  0.03838  0.75620  0.82992  1.0000
  H   H2355     1.0  0.20014  0.75053  0.56929  1.0000
  H   H2356     1.0  0.23258  0.91370  0.74213  1.0000
  H   H2357     1.0  0.20636  0.88477  0.88803  1.0000
  C   C1344     1.0  0.23654  0.96736  0.79386  1.0000
  H   H2358     1.0  0.23253  0.88614  0.73717  1.0000
  C   C1345     1.0  0.23310  0.83210  0.73845  1.0000
  H   H2359     1.0  0.22664  0.78825  0.86124  1.0000
  H   H2360     1.0  0.04826  0.73886  0.89479  1.0000
  C   C1346     1.0  0.03794  0.73763  0.86218  1.0000
  H   H2361     1.0  0.17427  0.76784  0.56108  1.0000
  C   C1347     1.0  0.17157  0.74123  0.96408  1.0000
  H   H2362     1.0  0.21526  0.74138  0.83116  1.0000
  H   H2363     1.0  0.00315  0.76256  0.67980  1.0000
  C   C1348     1.0  0.23050  0.94156  0.85001  1.0000
  S   S306      1.0  0.23337  0.93885  0.78761  1.0000
  C   C1349     1.0  0.19545  0.74080  0.63692  1.0000
  H   H2364     1.0  0.19386  0.95991  0.68825  1.0000
  H   H2365     1.0  0.15506  0.74845  0.90122  1.0000
  H   H2366     1.0  0.18001  0.74526  0.66905  1.0000
  H   H2367     1.0  0.22088  0.75732  0.67767  1.0000
  H   H2368     1.0  0.06056  0.75323  0.82300  1.0000
  H   H2369     1.0  0.02859  0.73687  0.71086  1.0000
  C   C1350     1.0  0.22664  0.81925  0.84208  1.0000
  H   H2370     1.0  0.20978  0.87293  0.93168  1.0000
  C   C1351     1.0  0.20222  0.92957  0.84711  1.0000
  C   C1352     1.0  0.23143  0.83716  0.87661  1.0000
  H   H2371     1.0  0.21715  0.76206  0.87761  1.0000
  H   H2372     1.0  0.12604  0.97522  0.71591  1.0000
  H   H2373     1.0  0.14245  0.96945  0.66188  1.0000
  C   C1353     1.0  0.01387  0.78222  0.64143  1.0000
  H   H2374     1.0  0.18055  0.93360  0.86715  1.0000
  S   S307      1.0  0.15787  0.73396  0.61041  1.0000
  H   H2375     1.0  0.01075  0.75343  0.70759  1.0000
  H   H2376     1.0  0.22851  0.74286  0.69484  1.0000
  C   C1354     1.0  0.22634  0.74406  0.68239  1.0000
  H   H2377     1.0  0.00437  0.73499  0.87670  1.0000
  H   H2378     1.0  0.23692  0.81777  0.68527  1.0000
  C   C1355     1.0  0.18038  0.73826  0.84334  1.0000
  H   H2379     1.0  0.06449  0.73564  0.85016  1.0000
  H   H2380     1.0  0.22774  0.86137  0.66109  1.0000
  H   H2381     1.0  0.22724  0.75308  0.97370  1.0000
  H   H2382     1.0  0.05368  0.73638  0.61065  1.0000
  H   H2383     1.0  0.22308  0.85401  0.72204  1.0000
  H   H2384     1.0  0.21044  0.80482  0.97011  1.0000
  C   C1356     1.0  0.23595  0.83131  0.68021  1.0000
  H   H2385     1.0  0.23348  0.92163  0.72082  1.0000
  H   H2386     1.0  0.00904  0.73490  0.74130  1.0000
  H   H2387     1.0  0.07682  0.73695  0.89769  1.0000
  H   H2388     1.0  0.20255  0.73777  0.69178  1.0000
  C   C1357     1.0  0.05249  0.73746  0.84676  1.0000
  H   H2389     1.0  0.00321  0.76381  0.63723  1.0000
  H   H2390     1.0  0.99306  0.77164  0.65523  1.0000
  H   H2391     1.0  0.03833  0.73409  0.65575  1.0000
  H   H2392     1.0  0.02376  0.73748  0.89316  1.0000
  H   H2393     1.0  0.23791  0.88502  0.66274  1.0000
  H   H2394     1.0  0.23771  0.75068  0.56024  1.0000
  H   H2395     1.0  0.00421  0.73593  0.65053  1.0000
  H   H2396     1.0  0.20772  0.73297  0.89706  1.0000
  H   H2397     1.0  0.01890  0.73372  0.75733  1.0000
  S   S308      1.0  0.08862  0.73304  0.65480  1.0000
  C   C1358     1.0  0.10539  0.73282  0.69013  1.0000
  C   C1359     1.0  0.21191  0.73381  0.66627  1.0000
  C   C1360     1.0  0.99261  0.73221  0.78288  1.0000
  C   C1361     1.0  0.05259  0.73818  0.62323  1.0000
  H   H2398     1.0  0.03599  0.73585  0.68135  1.0000
  C   C1362     1.0  0.05904  0.73263  0.88648  1.0000
  C   C1363     1.0  0.21447  0.73315  0.68362  1.0000
  H   H2399     1.0  0.17126  0.73187  0.95757  1.0000
  H   H2400     1.0  0.18139  0.73222  0.55659  1.0000
  H   H2401     1.0  0.23820  0.86013  0.97425  1.0000
  H   H2402     1.0  0.23915  0.90529  0.83634  1.0000
  H   H2403     1.0  0.23850  0.74032  0.67406  1.0000
  C   C1364     1.0  0.46371  0.20374  0.28184  1.0000
  C   C1365     1.0  0.36561  0.22412  0.17311  1.0000
  C   C1366     1.0  0.25972  0.07081  0.26098  1.0000
  H   H2404     1.0  0.32732  0.11837  0.46851  1.0000
  Fe  Fe160     1.0  0.28805  0.17202  0.42531  1.0000
  S   S309      1.0  0.28525  0.19838  0.41118  1.0000
  S   S310      1.0  0.28610  0.16622  0.45319  1.0000
  Fe  Fe161     1.0  0.28717  0.15970  0.39495  1.0000
  S   S311      1.0  0.28395  0.18537  0.37916  1.0000
  S   S312      1.0  0.28898  0.13950  0.38193  1.0000
  Fe  Fe162     1.0  0.30362  0.18797  0.39028  1.0000
  S   S313      1.0  0.32440  0.20032  0.37411  1.0000
  Fe  Fe163     1.0  0.26610  0.19276  0.40166  1.0000
  C   C1367     1.0  0.31196  0.19907  0.29525  1.0000
  S   S314      1.0  0.30800  0.16177  0.40504  1.0000
  S   S315      1.0  0.26784  0.16681  0.41673  1.0000
  Fe  Fe164     1.0  0.42747  0.16011  0.30331  1.0000
  S   S316      1.0  0.40674  0.18272  0.30332  1.0000
  S   S317      1.0  0.44317  0.15830  0.32122  1.0000
  Fe  Fe165     1.0  0.41687  0.14976  0.27685  1.0000
  S   S318      1.0  0.39619  0.17224  0.27444  1.0000
  S   S319      1.0  0.42020  0.12958  0.26313  1.0000
  Fe  Fe166     1.0  0.41443  0.18587  0.27584  1.0000
  S   S320      1.0  0.42137  0.20958  0.26051  1.0000
  Fe  Fe167     1.0  0.39072  0.16660  0.30219  1.0000
  S   S321      1.0  0.36505  0.16334  0.31651  1.0000
  S   S322      1.0  0.43582  0.16392  0.27575  1.0000
  S   S323      1.0  0.41073  0.14347  0.30468  1.0000
  Fe  Fe168     1.0  0.30134  0.01367  0.13636  1.0000
  S   S324      1.0  0.28554  0.03460  0.12146  1.0000
  H   H2405     1.0  0.35776  0.08827  0.11676  1.0000
  Fe  Fe169     1.0  0.31090  0.03731  0.15161  1.0000
  S   S325      1.0  0.29553  0.06002  0.13845  1.0000
  S   S326      1.0  0.32479  0.03680  0.17063  1.0000
  Fe  Fe170     1.0  0.27649  0.04465  0.14460  1.0000
  H   H2406     1.0  0.38377  0.16704  0.12554  1.0000
  Fe  Fe171     1.0  0.30601  0.04820  0.11643  1.0000
  S   S327      1.0  0.31642  0.06417  0.09217  1.0000
  S   S328      1.0  0.29076  0.02292  0.15987  1.0000
  S   S329      1.0  0.32288  0.02630  0.12925  1.0000
  Fe  Fe172     1.0  0.29679  0.16409  0.03122  1.0000
  S   S330      1.0  0.27414  0.16172  0.05140  1.0000
  S   S331      1.0  0.31906  0.17056  0.03528  1.0000
  Fe  Fe173     1.0  0.27963  0.16198  0.00459  1.0000
  H   H2407     1.0  0.29530  0.00280  0.20874  1.0000
  Fe  Fe174     1.0  0.26035  0.17961  0.03291  1.0000
  C   C1368     1.0  0.30360  0.04443  0.26848  1.0000
  Fe  Fe175     1.0  0.27203  0.14227  0.03972  1.0000
  S   S332      1.0  0.26417  0.11892  0.05565  1.0000
  S   S333      1.0  0.28302  0.18300  0.01319  1.0000
  S   S334      1.0  0.29596  0.14303  0.02071  1.0000
  Fe  Fe176     1.0  0.36188  0.12176  0.21094  1.0000
  S   S335      1.0  0.33601  0.12220  0.22609  1.0000
  S   S336      1.0  0.37375  0.14138  0.21307  1.0000
  Fe  Fe177     1.0  0.35950  0.09644  0.19303  1.0000
  S   S337      1.0  0.33387  0.09468  0.20740  1.0000
  S   S338      1.0  0.37046  0.08221  0.17262  1.0000
  Fe  Fe178     1.0  0.32916  0.12219  0.20294  1.0000
  S   S339      1.0  0.30655  0.13763  0.19374  1.0000
  Fe  Fe179     1.0  0.34332  0.09457  0.22918  1.0000
  S   S340      1.0  0.33467  0.07854  0.25384  1.0000
  S   S341      1.0  0.35428  0.12424  0.18727  1.0000
  S   S342      1.0  0.36977  0.09387  0.21537  1.0000
  H   H2408     1.0  0.34108  0.05927  0.20394  1.0000
  H   H2409     1.0  0.40172  0.22688  0.32929  1.0000
  C   C1369     1.0  0.30360  0.04289  0.23945  1.0000
  H   H2410     1.0  0.36137  0.11910  0.15532  1.0000
  S   S343      1.0  0.28700  0.13336  0.29057  1.0000
  S   S344      1.0  0.25585  0.10784  0.32351  1.0000
  H   H2411     1.0  0.28382  0.21477  0.01958  1.0000
  Fe  Fe180     1.0  0.33252  0.19511  0.11126  1.0000
  H   H2412     1.0  0.43613  0.21732  0.31617  1.0000
  S   S345      1.0  0.32297  0.17512  0.10643  1.0000
  Fe  Fe181     1.0  0.32914  0.21170  0.13956  1.0000
  S   S346      1.0  0.31919  0.21001  0.16672  1.0000
  S   S347      1.0  0.34675  0.18957  0.13116  1.0000
  C   C1370     1.0  0.30995  0.15777  0.18619  1.0000
  C   C1371     1.0  0.32153  0.16253  0.19159  1.0000
  C   C1372     1.0  0.32402  0.17877  0.18596  1.0000
  C   C1373     1.0  0.31535  0.19007  0.17447  1.0000
  C   C1374     1.0  0.30414  0.18518  0.16867  1.0000
  C   C1375     1.0  0.30116  0.16911  0.17481  1.0000
  H   H2413     1.0  0.32856  0.15373  0.20016  1.0000
  H   H2414     1.0  0.33300  0.18242  0.19013  1.0000
  H   H2415     1.0  0.29765  0.19385  0.15954  1.0000
  H   H2416     1.0  0.29238  0.16537  0.17044  1.0000
  C   C1376     1.0  0.32250  0.09214  0.26665  1.0000
  C   C1377     1.0  0.32769  0.10638  0.26610  1.0000
  C   C1378     1.0  0.31692  0.11872  0.27407  1.0000
  C   C1379     1.0  0.30099  0.11680  0.28272  1.0000
  C   C1380     1.0  0.29605  0.10216  0.28407  1.0000
  C   C1381     1.0  0.30687  0.08976  0.27609  1.0000
  H   H2417     1.0  0.33986  0.10810  0.25909  1.0000
  H   H2418     1.0  0.32068  0.13004  0.27298  1.0000
  H   H2419     1.0  0.28375  0.10058  0.29083  1.0000
  H   H2420     1.0  0.30279  0.07878  0.27654  1.0000
  C   C1382     1.0  0.31925  0.17305  0.05495  1.0000
  C   C1383     1.0  0.33219  0.17906  0.05668  1.0000
  C   C1384     1.0  0.33292  0.18076  0.07226  1.0000
  C   C1385     1.0  0.32095  0.17601  0.08631  1.0000
  C   C1386     1.0  0.30786  0.17033  0.08453  1.0000
  C   C1387     1.0  0.30696  0.16892  0.06893  1.0000
  H   H2421     1.0  0.34176  0.18230  0.04595  1.0000
  H   H2422     1.0  0.34309  0.18514  0.07348  1.0000
  H   H2423     1.0  0.29842  0.16693  0.09528  1.0000
  H   H2424     1.0  0.29700  0.16421  0.06786  1.0000
  H   H2425     1.0  0.26973  0.04897  0.17710  1.0000
  C   C1388     1.0  0.33744  0.05103  0.16714  1.0000
  C   C1389     1.0  0.35460  0.04507  0.16540  1.0000
  C   C1390     1.0  0.36465  0.05505  0.16631  1.0000
  C   C1391     1.0  0.35758  0.07085  0.16970  1.0000
  C   C1392     1.0  0.34043  0.07705  0.17105  1.0000
  C   C1393     1.0  0.33041  0.06723  0.16956  1.0000
  H   H2426     1.0  0.36008  0.03247  0.16389  1.0000
  H   H2427     1.0  0.37786  0.05016  0.16522  1.0000
  H   H2428     1.0  0.33485  0.08925  0.17357  1.0000
  H   H2429     1.0  0.31713  0.07183  0.17115  1.0000
  C   C1394     1.0  0.30181  0.07919  0.08198  1.0000
  C   C1395     1.0  0.28486  0.07934  0.08735  1.0000
  C   C1396     1.0  0.27340  0.09160  0.07918  1.0000
  C   C1397     1.0  0.27880  0.10395  0.06582  1.0000
  C   C1398     1.0  0.29575  0.10386  0.06047  1.0000
  C   C1399     1.0  0.30725  0.09133  0.06837  1.0000
  H   H2430     1.0  0.28058  0.06995  0.09775  1.0000
  H   H2431     1.0  0.26030  0.09158  0.08331  1.0000
  H   H2432     1.0  0.30003  0.11326  0.05010  1.0000
  H   H2433     1.0  0.32038  0.09113  0.06404  1.0000
  S   S348      1.0  0.24929  0.05424  0.15362  1.0000
  H   H2434     1.0  0.25475  0.21620  0.42922  1.0000
  H   H2435     1.0  0.25726  0.17425  0.31322  1.0000
  C   C1400     1.0  0.43859  0.15714  0.37372  1.0000
  H   H2436     1.0  0.30847  0.22061  0.34517  1.0000
  C   C1401     1.0  0.40770  0.13289  0.24880  1.0000
  C   C1402     1.0  0.40639  0.11938  0.24338  1.0000
  C   C1403     1.0  0.39568  0.12163  0.23276  1.0000
  C   C1404     1.0  0.38672  0.13754  0.22703  1.0000
  C   C1405     1.0  0.38845  0.15105  0.23206  1.0000
  C   C1406     1.0  0.39881  0.14874  0.24293  1.0000
  H   H2437     1.0  0.41340  0.10708  0.24770  1.0000
  H   H2438     1.0  0.39461  0.11115  0.22877  1.0000
  H   H2439     1.0  0.38154  0.16333  0.22768  1.0000
  H   H2440     1.0  0.39997  0.15927  0.24667  1.0000
  H   H2441     1.0  0.28592  0.20343  0.04762  1.0000
  C   C1407     1.0  0.27189  0.13922  0.37439  1.0000
  C   C1408     1.0  0.25583  0.14796  0.38007  1.0000
  C   C1409     1.0  0.25890  0.00158  0.15990  1.0000
  H   H2442     1.0  0.26174  0.06435  0.98747  1.0000
  C   C1410     1.0  0.26117  0.12927  0.35631  1.0000
  C   C1411     1.0  0.27447  0.12986  0.36253  1.0000
  C   C1412     1.0  0.26721  0.18532  0.21422  1.0000
  H   H2443     1.0  0.30108  0.09188  0.11229  1.0000
  H   H2444     1.0  0.26338  0.12199  0.34720  1.0000
  H   H2445     1.0  0.28681  0.12295  0.35817  1.0000
  C   C1413     1.0  0.33720  0.18963  0.35882  1.0000
  C   C1414     1.0  0.34615  0.19821  0.34429  1.0000
  C   C1415     1.0  0.35535  0.19006  0.33143  1.0000
  C   C1416     1.0  0.35573  0.17329  0.33315  1.0000
  C   C1417     1.0  0.34727  0.16462  0.34789  1.0000
  C   C1418     1.0  0.33795  0.17277  0.36064  1.0000
  H   H2446     1.0  0.34550  0.21129  0.34278  1.0000
  H   H2447     1.0  0.36162  0.19689  0.31995  1.0000
  H   H2448     1.0  0.34765  0.15161  0.34937  1.0000
  H   H2449     1.0  0.33109  0.16605  0.37178  1.0000
  H   H2450     1.0  0.43719  0.19968  0.30804  1.0000
  H   H2451     1.0  0.26373  0.21225  0.20635  1.0000
  C   C1419     1.0  0.47155  0.16628  0.32273  1.0000
  C   C1420     1.0  0.46388  0.16078  0.31340  1.0000
  C   C1421     1.0  0.47300  0.15681  0.29830  1.0000
  H   H2452     1.0  0.28750  0.09592  0.02817  1.0000
  C   C1422     1.0  0.26644  0.20129  0.20081  1.0000
  H   H2453     1.0  0.46463  0.16923  0.33449  1.0000
  H   H2454     1.0  0.46734  0.15225  0.29118  1.0000
  H   H2455     1.0  0.27975  0.10730  0.98458  1.0000
  C   C1423     1.0  0.34114  0.04893  0.21499  1.0000
  H   H2456     1.0  0.25703  0.07168  0.27412  1.0000
  C   C1424     1.0  0.29037  0.14837  0.13602  1.0000
  H   H2457     1.0  0.30039  0.20104  0.29098  1.0000
  C   C1425     1.0  0.27379  0.07706  0.04026  1.0000
  H   H2458     1.0  0.29241  0.16500  0.31091  1.0000
  S   S349      1.0  0.28273  0.16527  0.97675  1.0000
  C   C1426     1.0  0.28962  0.12091  0.23933  1.0000
  C   C1427     1.0  0.29064  0.17901  0.46365  1.0000
  H   H2459     1.0  0.45104  0.15120  0.36729  1.0000
  H   H2460     1.0  0.35350  0.21120  0.37705  1.0000
  H   H2461     1.0  0.24435  0.17841  0.27905  1.0000
  C   C1428     1.0  0.29831  0.19230  0.45517  1.0000
  C   C1429     1.0  0.26046  0.11038  0.01555  1.0000
  H   H2462     1.0  0.26657  0.06940  0.03795  1.0000
  C   C1430     1.0  0.25549  0.21907  0.44079  1.0000
  H   H2463     1.0  0.30805  0.21206  0.45741  1.0000
  H   H2464     1.0  0.30159  0.19505  0.44179  1.0000
  H   H2465     1.0  0.30526  0.02923  0.24398  1.0000
  H   H2466     1.0  0.29325  0.18005  0.21283  1.0000
  N   N81       1.0  0.39706  0.17934  0.35901  1.0000
  C   C1431     1.0  0.40263  0.19404  0.34644  1.0000
  C   C1432     1.0  0.40933  0.17180  0.37008  1.0000
  C   C1433     1.0  0.39623  0.16709  0.34976  1.0000
  C   C1434     1.0  0.38013  0.18442  0.36962  1.0000
  C   C1435     1.0  0.37851  0.19764  0.37948  1.0000
  C   C1436     1.0  0.38955  0.20594  0.33676  1.0000
  C   C1437     1.0  0.39183  0.15051  0.36058  1.0000
  C   C1438     1.0  0.42694  0.16348  0.36167  1.0000
  C   C1439     1.0  0.36034  0.20432  0.38700  1.0000
  C   C1440     1.0  0.24505  0.13770  0.36221  1.0000
  C   C1441     1.0  0.39390  0.13820  0.34992  1.0000
  H   H2467     1.0  0.41371  0.18970  0.33703  1.0000
  H   H2468     1.0  0.40693  0.20163  0.35233  1.0000
  H   H2469     1.0  0.41097  0.18148  0.37546  1.0000
  H   H2470     1.0  0.40449  0.16254  0.38097  1.0000
  H   H2471     1.0  0.40810  0.16419  0.34066  1.0000
  H   H2472     1.0  0.38673  0.17265  0.34211  1.0000
  H   H2473     1.0  0.37053  0.18879  0.36207  1.0000
  H   H2474     1.0  0.37639  0.17354  0.37903  1.0000
  H   H2475     1.0  0.38378  0.20836  0.37164  1.0000
  H   H2476     1.0  0.38513  0.19202  0.38979  1.0000
  H   H2477     1.0  0.38491  0.19913  0.33043  1.0000
  H   H2478     1.0  0.37877  0.21215  0.34512  1.0000
  H   H2479     1.0  0.37869  0.15268  0.36745  1.0000
  H   H2480     1.0  0.39990  0.14445  0.36959  1.0000
  H   H2481     1.0  0.42655  0.15267  0.35721  1.0000
  H   H2482     1.0  0.43248  0.17245  0.35104  1.0000
  H   H2483     1.0  0.25546  0.10780  0.11397  1.0000
  H   H2484     1.0  0.24594  0.13020  0.97685  1.0000
  C   C1442     1.0  0.24327  0.18820  0.26762  1.0000
  H   H2485     1.0  0.27818  0.13626  0.25696  1.0000
  H   H2486     1.0  0.44306  0.22485  0.28598  1.0000
  H   H2487     1.0  0.39037  0.12659  0.35792  1.0000
  H   H2488     1.0  0.38580  0.14344  0.34084  1.0000
  H   H2489     1.0  0.40704  0.13508  0.34321  1.0000
  C   C1443     1.0  0.37300  0.14743  0.14431  1.0000
  C   C1444     1.0  0.39624  0.11486  0.14696  1.0000
  C   C1445     1.0  0.38655  0.15784  0.13688  1.0000
  C   C1446     1.0  0.38717  0.16749  0.14913  1.0000
  C   C1447     1.0  0.41064  0.10020  0.14365  1.0000
  H   H2490     1.0  0.36106  0.15659  0.14617  1.0000
  H   H2491     1.0  0.37433  0.14047  0.15701  1.0000
  H   H2492     1.0  0.39840  0.12926  0.12180  1.0000
  H   H2493     1.0  0.26215  0.05009  0.20680  1.0000
  H   H2494     1.0  0.40108  0.12369  0.15067  1.0000
  H   H2495     1.0  0.37499  0.17597  0.15243  1.0000
  H   H2496     1.0  0.39046  0.15885  0.16056  1.0000
  H   H2497     1.0  0.39669  0.17512  0.14338  1.0000
  H   H2498     1.0  0.42053  0.10433  0.13310  1.0000
  H   H2499     1.0  0.41599  0.09465  0.15482  1.0000
  H   H2500     1.0  0.40618  0.09048  0.14091  1.0000
  C   C1448     1.0  0.30582  0.12137  0.98064  1.0000
  H   H2501     1.0  0.25924  0.99626  0.14942  1.0000
  H   H2502     1.0  0.35427  0.19403  0.39481  1.0000
  H   H2503     1.0  0.30051  0.11168  0.00677  1.0000
  H   H2504     1.0  0.24911  0.16486  0.33434  1.0000
  H   H2505     1.0  0.24628  0.12899  0.22801  1.0000
  C   C1449     1.0  0.39690  0.21957  0.32358  1.0000
  C   C1450     1.0  0.24541  0.99625  0.17474  1.0000
  C   C1451     1.0  0.48820  0.16789  0.31696  1.0000
  H   H2506     1.0  0.26530  0.08581  0.04788  1.0000
  H   H2507     1.0  0.36186  0.03276  0.20188  1.0000
  H   H2508     1.0  0.26873  0.19001  0.26126  1.0000
  H   H2509     1.0  0.26550  0.21520  0.98937  1.0000
  H   H2510     1.0  0.24689  0.13070  0.24803  1.0000
  H   H2511     1.0  0.31065  0.13171  0.98166  1.0000
  H   H2512     1.0  0.29648  0.09212  0.99191  1.0000
  C   C1452     1.0  0.28590  0.06525  0.05065  1.0000
  H   H2513     1.0  0.45132  0.21067  0.19104  1.0000
  N   N82       1.0  0.30980  0.11388  0.11016  1.0000
  C   C1453     1.0  0.31496  0.11633  0.09159  1.0000
  C   C1454     1.0  0.29649  0.10392  0.11629  1.0000
  C   C1455     1.0  0.30357  0.13073  0.11451  1.0000
  C   C1456     1.0  0.32422  0.10458  0.11824  1.0000
  C   C1457     1.0  0.33356  0.08762  0.11368  1.0000
  C   C1458     1.0  0.33003  0.12459  0.08320  1.0000
  C   C1459     1.0  0.28015  0.11210  0.11007  1.0000
  C   C1460     1.0  0.30200  0.20189  0.46406  1.0000
  C   C1461     1.0  0.34865  0.08015  0.12156  1.0000
  C   C1462     1.0  0.33356  0.12700  0.06439  1.0000
  H   H2514     1.0  0.30448  0.12418  0.08579  1.0000
  H   H2515     1.0  0.31773  0.10430  0.08784  1.0000
  H   H2516     1.0  0.29347  0.10049  0.13006  1.0000
  H   H2517     1.0  0.29522  0.13913  0.10638  1.0000
  H   H2518     1.0  0.31410  0.13693  0.11200  1.0000
  H   H2519     1.0  0.33343  0.11242  0.11558  1.0000
  H   H2520     1.0  0.33812  0.08880  0.10013  1.0000
  H   H2521     1.0  0.32537  0.07859  0.11826  1.0000
  H   H2522     1.0  0.32767  0.13698  0.08603  1.0000
  H   H2523     1.0  0.34141  0.11684  0.08737  1.0000
  H   H2524     1.0  0.27523  0.12504  0.11169  1.0000
  H   H2525     1.0  0.28231  0.11228  0.09671  1.0000
  H   H2526     1.0  0.27096  0.08917  0.11839  1.0000
  H   H2527     1.0  0.42163  0.18070  0.15552  1.0000
  H   H2528     1.0  0.34482  0.07844  0.13522  1.0000
  H   H2529     1.0  0.35478  0.06779  0.11859  1.0000
  H   H2530     1.0  0.34400  0.13344  0.05859  1.0000
  H   H2531     1.0  0.33697  0.11482  0.06080  1.0000
  H   H2532     1.0  0.32250  0.13474  0.05952  1.0000
  H   H2533     1.0  0.29366  0.05514  0.04434  1.0000
  H   H2534     1.0  0.39907  0.15000  0.13352  1.0000
  H   H2535     1.0  0.43997  0.16755  0.37818  1.0000
  H   H2536     1.0  0.30201  0.15268  0.13391  1.0000
  H   H2537     1.0  0.33102  0.02660  0.22463  1.0000
  H   H2538     1.0  0.45192  0.21960  0.25633  1.0000
  H   H2539     1.0  0.38017  0.15145  0.11020  1.0000
  N   N83       1.0  0.27369  0.09570  0.01066  1.0000
  C   C1463     1.0  0.30329  0.02133  0.21572  1.0000
  H   H2540     1.0  0.25644  0.20268  0.19433  1.0000
  H   H2541     1.0  0.25176  0.20057  0.36315  1.0000
  C   C1464     1.0  0.27199  0.17270  0.33078  1.0000
  C   C1465     1.0  0.30784  0.16479  0.33539  1.0000
  C   C1466     1.0  0.25685  0.05249  0.18310  1.0000
  C   C1467     1.0  0.26111  0.14652  0.97684  1.0000
  C   C1468     1.0  0.24441  0.05632  0.17418  1.0000
  H   H2542     1.0  0.26264  0.19711  0.98486  1.0000
  H   H2543     1.0  0.31091  0.20958  0.30090  1.0000
  H   H2544     1.0  0.46231  0.19378  0.24905  1.0000
  C   C1469     1.0  0.28867  0.09419  0.20996  1.0000
  Fe  Fe182     1.0  0.36125  0.20812  0.11419  1.0000
  H   H2545     1.0  0.31029  0.04805  0.27584  1.0000
  H   H2546     1.0  0.26699  0.15334  0.32234  1.0000
  H   H2547     1.0  0.32396  0.21247  0.27169  1.0000
  C   C1470     1.0  0.30010  0.04051  0.21306  1.0000
  C   C1471     1.0  0.28499  0.98671  0.11840  1.0000
  C   C1472     1.0  0.29643  0.16838  0.24528  1.0000
  H   H2548     1.0  0.26800  0.16104  0.26241  1.0000
  C   C1473     1.0  0.26475  0.20983  0.97934  1.0000
  N   N84       1.0  0.47455  0.21026  0.26554  1.0000
  H   H2549     1.0  0.29438  0.18043  0.24876  1.0000
  C   C1474     1.0  0.29419  0.19429  0.33029  1.0000
  C   C1475     1.0  0.28758  0.17574  0.31708  1.0000
  H   H2550     1.0  0.28798  0.21646  0.35074  1.0000
  N   N85       1.0  0.42659  0.19022  0.20553  1.0000
  C   C1476     1.0  0.40894  0.18877  0.21384  1.0000
  C   C1477     1.0  0.43797  0.17369  0.21044  1.0000
  C   C1478     1.0  0.43039  0.20376  0.21102  1.0000
  C   C1479     1.0  0.42898  0.19459  0.18694  1.0000
  C   C1480     1.0  0.42422  0.18261  0.17930  1.0000
  C   C1481     1.0  0.44851  0.20625  0.20469  1.0000
  C   C1482     1.0  0.43923  0.16839  0.22888  1.0000
  C   C1483     1.0  0.45022  0.15104  0.23249  1.0000
  H   H2551     1.0  0.43729  0.19167  0.15411  1.0000
  H   H2552     1.0  0.28302  0.18629  0.30743  1.0000
  H   H2553     1.0  0.40681  0.18787  0.22739  1.0000
  H   H2554     1.0  0.40655  0.17705  0.21277  1.0000
  H   H2555     1.0  0.43382  0.16362  0.20789  1.0000
  H   H2556     1.0  0.45074  0.17337  0.20266  1.0000
  H   H2557     1.0  0.42725  0.20172  0.22476  1.0000
  H   H2558     1.0  0.42230  0.21593  0.20683  1.0000
  H   H2559     1.0  0.42216  0.20753  0.18269  1.0000
  H   H2560     1.0  0.44222  0.19471  0.18096  1.0000
  C   C1484     1.0  0.28837  0.13619  0.24578  1.0000
  H   H2561     1.0  0.43310  0.17040  0.18065  1.0000
  H   H2562     1.0  0.29416  0.07202  0.05278  1.0000
  H   H2563     1.0  0.45761  0.19459  0.20803  1.0000
  H   H2564     1.0  0.44473  0.17702  0.23213  1.0000
  H   H2565     1.0  0.42685  0.16810  0.23722  1.0000
  H   H2566     1.0  0.45099  0.14746  0.24571  1.0000
  H   H2567     1.0  0.44488  0.14175  0.23008  1.0000
  H   H2568     1.0  0.46297  0.15071  0.22474  1.0000
  C   C1485     1.0  0.30371  0.22130  0.02670  1.0000
  H   H2569     1.0  0.36863  0.21229  0.21429  1.0000
  C   C1486     1.0  0.28583  0.10227  0.99539  1.0000
  S   S350      1.0  0.30395  0.98586  0.14006  1.0000
  H   H2570     1.0  0.45398  0.20034  0.31654  1.0000
  C   C1487     1.0  0.37230  0.20659  0.16982  1.0000
  H   H2571     1.0  0.28707  0.07237  0.98855  1.0000
  C   C1488     1.0  0.31519  0.18221  0.30778  1.0000
  H   H2572     1.0  0.26471  0.18459  0.33419  1.0000
  H   H2573     1.0  0.33101  0.03627  0.20353  1.0000
  H   H2574     1.0  0.25132  0.10324  0.24369  1.0000
  C   C1489     1.0  0.30678  0.20009  0.33607  1.0000
  S   S351      1.0  0.34879  0.21159  0.09327  1.0000
  H   H2575     1.0  0.46724  0.17791  0.26671  1.0000
  C   C1490     1.0  0.31193  0.14747  0.33113  1.0000
  C   C1491     1.0  0.32290  0.13451  0.34200  1.0000
  H   H2576     1.0  0.29726  0.21641  0.99014  1.0000
  N   N86       1.0  0.30118  0.17929  0.32266  1.0000
  H   H2577     1.0  0.25708  0.20132  0.08928  1.0000
  H   H2578     1.0  0.31835  0.17224  0.30076  1.0000
  H   H2579     1.0  0.32686  0.18123  0.31166  1.0000
  C   C1492     1.0  0.28318  0.08688  0.02414  1.0000
  H   H2580     1.0  0.29580  0.02184  0.19336  1.0000
  H   H2581     1.0  0.36731  0.22373  0.18549  1.0000
  H   H2582     1.0  0.27817  0.12181  0.23525  1.0000
  H   H2583     1.0  0.25645  0.01532  0.15575  1.0000
  H   H2584     1.0  0.24748  0.07780  0.24066  1.0000
  H   H2585     1.0  0.31835  0.20111  0.32653  1.0000
  H   H2586     1.0  0.31013  0.19103  0.34722  1.0000
  H   H2587     1.0  0.38567  0.20254  0.17008  1.0000
  H   H2588     1.0  0.27523  0.16379  0.34206  1.0000
  N   N87       1.0  0.28252  0.16836  0.23774  1.0000
  C   C1493     1.0  0.24243  0.14707  0.37410  1.0000
  H   H2589     1.0  0.30026  0.14326  0.33315  1.0000
  H   H2590     1.0  0.31851  0.14776  0.31806  1.0000
  H   H2591     1.0  0.32345  0.12190  0.34062  1.0000
  H   H2592     1.0  0.33570  0.13670  0.33826  1.0000
  H   H2593     1.0  0.31787  0.13496  0.35525  1.0000
  H   H2594     1.0  0.28636  0.99935  0.11299  1.0000
  H   H2595     1.0  0.25630  0.07966  0.01629  1.0000
  H   H2596     1.0  0.24604  0.15753  0.22724  1.0000
  H   H2597     1.0  0.48775  0.18046  0.23107  1.0000
  H   H2598     1.0  0.41156  0.18049  0.18522  1.0000
  H   H2599     1.0  0.25922  0.00079  0.21639  1.0000
  H   H2600     1.0  0.27066  0.07626  0.25425  1.0000
  C   C1494     1.0  0.24794  0.01255  0.23684  1.0000
  C   C1495     1.0  0.29931  0.21699  0.34069  1.0000
  C   C1496     1.0  0.31408  0.16572  0.23403  1.0000
  C   C1497     1.0  0.32729  0.16484  0.24319  1.0000
  H   H2601     1.0  0.31513  0.17612  0.22306  1.0000
  H   H2602     1.0  0.31715  0.15403  0.22975  1.0000
  H   H2603     1.0  0.34035  0.22068  0.17977  1.0000
  H   H2604     1.0  0.32512  0.17660  0.24727  1.0000
  H   H2605     1.0  0.32716  0.15432  0.25409  1.0000
  H   H2606     1.0  0.33977  0.16282  0.23481  1.0000
  N   N88       1.0  0.36558  0.11674  0.29070  1.0000
  C   C1498     1.0  0.37772  0.10810  0.30177  1.0000
  C   C1499     1.0  0.37049  0.10899  0.27582  1.0000
  C   C1500     1.0  0.36735  0.13459  0.28448  1.0000
  C   C1501     1.0  0.34776  0.11647  0.29948  1.0000
  C   C1502     1.0  0.34444  0.10091  0.31323  1.0000
  C   C1503     1.0  0.37602  0.11630  0.31631  1.0000
  C   C1504     1.0  0.35678  0.14563  0.27182  1.0000
  C   C1505     1.0  0.36939  0.09065  0.27897  1.0000
  C   C1506     1.0  0.37620  0.08420  0.26298  1.0000
  C   C1507     1.0  0.32627  0.09969  0.31694  1.0000
  C   C1508     1.0  0.38513  0.10448  0.32941  1.0000
  C   C1509     1.0  0.35749  0.16383  0.26872  1.0000
  H   H2607     1.0  0.39072  0.10760  0.29438  1.0000
  H   H2608     1.0  0.37699  0.09494  0.30696  1.0000
  H   H2609     1.0  0.36254  0.11577  0.26680  1.0000
  H   H2610     1.0  0.38340  0.10995  0.26925  1.0000
  H   H2611     1.0  0.38060  0.13515  0.27875  1.0000
  H   H2612     1.0  0.36376  0.14096  0.29499  1.0000
  H   H2613     1.0  0.34206  0.12726  0.30549  1.0000
  H   H2614     1.0  0.34029  0.11813  0.29026  1.0000
  H   H2615     1.0  0.34719  0.10167  0.32483  1.0000
  H   H2616     1.0  0.35217  0.08915  0.30999  1.0000
  H   H2617     1.0  0.38162  0.12738  0.31161  1.0000
  H   H2618     1.0  0.36285  0.12043  0.32233  1.0000
  H   H2619     1.0  0.34358  0.14474  0.27635  1.0000
  H   H2620     1.0  0.36154  0.14200  0.25967  1.0000
  H   H2621     1.0  0.37663  0.08248  0.28813  1.0000
  H   H2622     1.0  0.35623  0.08954  0.28329  1.0000
  H   H2623     1.0  0.36925  0.09184  0.25332  1.0000
  H   H2624     1.0  0.38957  0.08444  0.25824  1.0000
  H   H2625     1.0  0.37479  0.07121  0.26537  1.0000
  H   H2626     1.0  0.32377  0.08959  0.32795  1.0000
  H   H2627     1.0  0.31773  0.11151  0.31945  1.0000
  H   H2628     1.0  0.32359  0.09676  0.30628  1.0000
  H   H2629     1.0  0.39853  0.10057  0.32386  1.0000
  H   H2630     1.0  0.38398  0.11090  0.33937  1.0000
  H   H2631     1.0  0.37967  0.09335  0.33501  1.0000
  H   H2632     1.0  0.37041  0.16539  0.26346  1.0000
  H   H2633     1.0  0.34991  0.17148  0.25963  1.0000
  H   H2634     1.0  0.35275  0.16836  0.28042  1.0000
  H   H2635     1.0  0.26652  0.20992  0.44466  1.0000
  H   H2636     1.0  0.31994  0.10186  0.13194  1.0000
  C   C1510     1.0  0.25258  0.05316  0.19988  1.0000
  H   H2637     1.0  0.47148  0.19382  0.28969  1.0000
  H   H2638     1.0  0.37708  0.19698  0.23052  1.0000
  H   H2639     1.0  0.36128  0.14081  0.08174  1.0000
  H   H2640     1.0  0.29654  0.15889  0.25709  1.0000
  H   H2641     1.0  0.33818  0.19785  0.28357  1.0000
  H   H2642     1.0  0.27447  0.15207  0.22788  1.0000
  H   H2643     1.0  0.45458  0.19784  0.27990  1.0000
  H   H2644     1.0  0.25726  0.99653  0.19338  1.0000
  H   H2645     1.0  0.24382  0.09727  0.03661  1.0000
  H   H2646     1.0  0.35295  0.13371  0.11167  1.0000
  C   C1511     1.0  0.26886  0.05753  0.99723  1.0000
  H   H2647     1.0  0.29000  0.04786  0.24272  1.0000
  C   C1512     1.0  0.25998  0.18750  0.25536  1.0000
  H   H2648     1.0  0.27170  0.98611  0.10071  1.0000
  H   H2649     1.0  0.29134  0.10960  0.24929  1.0000
  C   C1513     1.0  0.36552  0.14710  0.08898  1.0000
  H   H2650     1.0  0.29589  0.15138  0.22164  1.0000
  C   C1514     1.0  0.26067  0.16590  0.32472  1.0000
  H   H2651     1.0  0.27933  0.02110  0.21174  1.0000
  C   C1515     1.0  0.24309  0.10725  0.02537  1.0000
  H   H2652     1.0  0.29349  0.09797  0.21873  1.0000
  H   H2653     1.0  0.26885  0.17491  0.20819  1.0000
  H   H2654     1.0  0.47459  0.16606  0.24237  1.0000
  H   H2655     1.0  0.31646  0.11088  0.97823  1.0000
  H   H2656     1.0  0.25683  0.14637  0.98990  1.0000
  H   H2657     1.0  0.28788  0.20486  0.32174  1.0000
  H   H2658     1.0  0.28534  0.06130  0.00988  1.0000
  C   C1516     1.0  0.29358  0.11607  0.99671  1.0000
  H   H2659     1.0  0.27837  0.20097  0.19152  1.0000
  H   H2660     1.0  0.26310  0.10293  0.13266  1.0000
  S   S352      1.0  0.24136  0.14761  0.30831  1.0000
  C   C1517     1.0  0.26606  0.08427  0.00595  1.0000
  H   H2661     1.0  0.26498  0.11665  0.02264  1.0000
  H   H2662     1.0  0.41553  0.20147  0.15901  1.0000
  H   H2663     1.0  0.28577  0.20421  0.07542  1.0000
  H   H2664     1.0  0.29911  0.16413  0.34773  1.0000
  H   H2665     1.0  0.27783  0.04664  0.99299  1.0000
  C   C1518     1.0  0.29348  0.22219  0.01405  1.0000
  C   C1519     1.0  0.47262  0.18553  0.25479  1.0000
  H   H2666     1.0  0.28203  0.19419  0.22556  1.0000
  H   H2667     1.0  0.35704  0.15939  0.08942  1.0000
  H   H2668     1.0  0.25808  0.19768  0.24443  1.0000
  H   H2669     1.0  0.47000  0.22214  0.24090  1.0000
  C   C1520     1.0  0.40754  0.22193  0.24810  1.0000
  C   C1521     1.0  0.26095  0.20367  0.07558  1.0000
  H   H2670     1.0  0.26471  0.19157  0.07176  1.0000
  H   H2671     1.0  0.34178  0.22088  0.20565  1.0000
  H   H2672     1.0  0.31106  0.20830  0.02953  1.0000
  H   H2673     1.0  0.25950  0.09133  0.99576  1.0000
  H   H2674     1.0  0.29617  0.22664  0.32975  1.0000
  H   H2675     1.0  0.28372  0.14824  0.14909  1.0000
  H   H2676     1.0  0.24597  0.98965  0.23324  1.0000
  C   C1522     1.0  0.26653  0.17028  0.25065  1.0000
  H   H2677     1.0  0.38835  0.20804  0.25925  1.0000
  H   H2678     1.0  0.24860  0.18102  0.36207  1.0000
  C   C1523     1.0  0.29423  0.13094  0.13270  1.0000
  H   H2679     1.0  0.43382  0.14775  0.38445  1.0000
  C   C1524     1.0  0.38876  0.12345  0.13141  1.0000
  H   H2680     1.0  0.37481  0.19084  0.21285  1.0000
  H   H2681     1.0  0.28242  0.15731  0.12780  1.0000
  H   H2682     1.0  0.31114  0.06212  0.24664  1.0000
  N   N89       1.0  0.37248  0.13592  0.13411  1.0000
  H   H2683     1.0  0.39651  0.21512  0.20922  1.0000
  C   C1525     1.0  0.39520  0.20329  0.20756  1.0000
  H   H2684     1.0  0.39578  0.20470  0.19424  1.0000
  H   H2685     1.0  0.29477  0.07834  0.01926  1.0000
  H   H2686     1.0  0.37094  0.20633  0.15743  1.0000
  H   H2687     1.0  0.27570  0.10119  0.21011  1.0000
  C   C1526     1.0  0.28529  0.15232  0.23241  1.0000
  C   C1527     1.0  0.36926  0.14606  0.11751  1.0000
  H   H2688     1.0  0.35879  0.15699  0.11903  1.0000
  H   H2689     1.0  0.38692  0.11010  0.15769  1.0000
  H   H2690     1.0  0.30165  0.12242  0.14154  1.0000
  H   H2691     1.0  0.31209  0.21016  0.05594  1.0000
  S   S353      1.0  0.38898  0.20210  0.11140  1.0000
  H   H2692     1.0  0.29625  0.09754  0.19727  1.0000
  H   H2693     1.0  0.38734  0.11340  0.12640  1.0000
  H   H2694     1.0  0.42300  0.19810  0.11042  1.0000
  C   C1528     1.0  0.27542  0.21250  0.06971  1.0000
  H   H2695     1.0  0.28226  0.12711  0.13543  1.0000
  H   H2696     1.0  0.25785  0.00596  0.24381  1.0000
  H   H2697     1.0  0.28389  0.12727  0.99909  1.0000
  H   H2698     1.0  0.37470  0.12484  0.10550  1.0000
  Fe  Fe183     1.0  0.26196  0.12705  0.30054  1.0000
  H   H2699     1.0  0.36555  0.19768  0.17940  1.0000
  H   H2700     1.0  0.33868  0.05443  0.22585  1.0000
  C   C1529     1.0  0.36543  0.13661  0.10649  1.0000
  C   C1530     1.0  0.26664  0.10238  0.11937  1.0000
  C   C1531     1.0  0.35895  0.12653  0.14316  1.0000
  H   H2701     1.0  0.33967  0.14553  0.15483  1.0000
  H   H2702     1.0  0.25791  0.11981  0.00429  1.0000
  H   H2703     1.0  0.30046  0.11956  0.22882  1.0000
  H   H2704     1.0  0.30005  0.01542  0.22902  1.0000
  H   H2705     1.0  0.30401  0.03091  0.27285  1.0000
  C   C1532     1.0  0.45122  0.21929  0.21210  1.0000
  H   H2706     1.0  0.29050  0.05140  0.27074  1.0000
  C   C1533     1.0  0.34101  0.13719  0.14651  1.0000
  H   H2707     1.0  0.35908  0.11704  0.13652  1.0000
  H   H2708     1.0  0.31436  0.22305  0.99271  1.0000
  H   H2709     1.0  0.33736  0.14489  0.13489  1.0000
  H   H2710     1.0  0.28149  0.07275  0.22747  1.0000
  C   C1534     1.0  0.28930  0.07553  0.21492  1.0000
  C   C1535     1.0  0.48368  0.19560  0.25768  1.0000
  H   H2711     1.0  0.31332  0.07127  0.22054  1.0000
  H   H2712     1.0  0.32684  0.19061  0.27300  1.0000
  S   S354      1.0  0.24759  0.12007  0.28641  1.0000
  H   H2713     1.0  0.30023  0.13471  0.24932  1.0000
  C   C1536     1.0  0.28188  0.18238  0.22266  1.0000
  H   H2714     1.0  0.28381  0.07254  0.20612  1.0000
  C   C1537     1.0  0.42475  0.18954  0.16086  1.0000
  H   H2715     1.0  0.31389  0.06811  0.20100  1.0000
  H   H2716     1.0  0.32509  0.04187  0.24902  1.0000
  C   C1538     1.0  0.30745  0.06557  0.21424  1.0000
  C   C1539     1.0  0.35871  0.03815  0.21299  1.0000
  H   H2717     1.0  0.24435  0.00690  0.11979  1.0000
  C   C1540     1.0  0.31192  0.04855  0.25014  1.0000
  H   H2718     1.0  0.36772  0.04590  0.21136  1.0000
  C   C1541     1.0  0.32814  0.03889  0.21613  1.0000
  H   H2719     1.0  0.31646  0.01590  0.21071  1.0000
  C   C1542     1.0  0.32858  0.12611  0.15514  1.0000
  H   H2720     1.0  0.31583  0.13392  0.15728  1.0000
  C   C1543     1.0  0.29274  0.01652  0.20686  1.0000
  H   H2721     1.0  0.32922  0.11735  0.14751  1.0000
  C   C1544     1.0  0.32616  0.19998  0.27997  1.0000
  C   C1545     1.0  0.24717  0.00210  0.22544  1.0000
  H   H2722     1.0  0.37823  0.14895  0.08258  1.0000
  H   H2723     1.0  0.25369  0.15513  0.38929  1.0000
  H   H2724     1.0  0.27889  0.05962  0.06288  1.0000
  N   N90       1.0  0.30996  0.04707  0.22093  1.0000
  H   H2725     1.0  0.28654  0.04482  0.21778  1.0000
  H   H2726     1.0  0.30247  0.04567  0.19944  1.0000
  H   H2727     1.0  0.35986  0.02800  0.22414  1.0000
  H   H2728     1.0  0.33116  0.11896  0.16737  1.0000
  C   C1546     1.0  0.37791  0.20058  0.21695  1.0000
  C   C1547     1.0  0.27823  0.06875  0.00032  1.0000
  C   C1548     1.0  0.39900  0.21273  0.11925  1.0000
  C   C1549     1.0  0.41629  0.20792  0.11694  1.0000
  H   H2729     1.0  0.25019  0.21142  0.07025  1.0000
  H   H2730     1.0  0.31933  0.16660  0.33757  1.0000
  H   H2731     1.0  0.25100  0.19103  0.46223  1.0000
  C   C1550     1.0  0.31444  0.12488  0.47321  1.0000
  H   H2732     1.0  0.28433  0.19171  0.34157  1.0000
  C   C1551     1.0  0.46420  0.22277  0.25406  1.0000
  S   S355      1.0  0.31347  0.21569  0.12149  1.0000
  C   C1552     1.0  0.39225  0.21818  0.24965  1.0000
  H   H2733     1.0  0.25507  0.18641  0.22313  1.0000
  S   S356      1.0  0.25562  0.16006  0.02304  1.0000
  C   C1553     1.0  0.48271  0.17353  0.24359  1.0000
  H   H2734     1.0  0.46424  0.22084  0.20743  1.0000
  H   H2735     1.0  0.30957  0.13345  0.46251  1.0000
  H   H2736     1.0  0.40707  0.21414  0.31414  1.0000
  C   C1554     1.0  0.44456  0.20791  0.30928  1.0000
  H   H2737     1.0  0.26018  0.05294  0.00877  1.0000
  C   C1555     1.0  0.28108  0.21602  0.05056  1.0000
  H   H2738     1.0  0.44875  0.21548  0.22582  1.0000
  H   H2739     1.0  0.27128  0.99702  0.16312  1.0000
  H   H2740     1.0  0.25650  0.16733  0.24683  1.0000
  H   H2741     1.0  0.35951  0.21298  0.39483  1.0000
  C   C1556     1.0  0.45301  0.21658  0.29225  1.0000
  H   H2742     1.0  0.26268  0.05749  0.26054  1.0000
  C   C1557     1.0  0.42502  0.21571  0.12294  1.0000
  H   H2743     1.0  0.43839  0.21178  0.12105  1.0000
  C   C1558     1.0  0.30477  0.21561  0.99904  1.0000
  H   H2744     1.0  0.31102  0.20240  0.00288  1.0000
  C   C1559     1.0  0.24526  0.00297  0.18972  1.0000
  H   H2745     1.0  0.26660  0.21861  0.46772  1.0000
  C   C1560     1.0  0.24464  0.07987  0.25342  1.0000
  H   H2746     1.0  0.24767  0.19194  0.43466  1.0000
  H   H2747     1.0  0.26978  0.22143  0.04527  1.0000
  S   S357      1.0  0.24443  0.20360  0.03904  1.0000
  N   N91       1.0  0.29388  0.22664  0.04258  1.0000
  H   H2748     1.0  0.24728  0.16570  0.45578  1.0000
  H   H2749     1.0  0.24612  0.01627  0.18519  1.0000
  H   H2750     1.0  0.24654  0.10443  0.21882  1.0000
  H   H2751     1.0  0.24840  0.98250  0.17783  1.0000
  C   C1561     1.0  0.30594  0.22355  0.05353  1.0000
  H   H2752     1.0  0.33810  0.21603  0.05973  1.0000
  H   H2753     1.0  0.25090  0.02457  0.22948  1.0000
  H   H2754     1.0  0.29946  0.22607  0.06594  1.0000
  H   H2755     1.0  0.27148  0.22398  0.07453  1.0000
  H   H2756     1.0  0.46049  0.22416  0.29433  1.0000
  C   C1562     1.0  0.39045  0.22557  0.12765  1.0000
  N   N92       1.0  0.23992  0.21694  0.45386  1.0000
  C   C1563     1.0  0.23976  0.22231  0.46917  1.0000
  H   H2757     1.0  0.28609  0.22806  0.42867  1.0000
  H   H2758     1.0  0.37036  0.22453  0.23956  1.0000
  H   H2759     1.0  0.31287  0.22911  0.01987  1.0000
  H   H2760     1.0  0.38713  0.22810  0.31720  1.0000
  H   H2761     1.0  0.48159  0.22825  0.27429  1.0000
  C   C1564     1.0  0.48741  0.21713  0.26890  1.0000
  H   H2762     1.0  0.24182  0.10040  0.26496  1.0000
  H   H2763     1.0  0.33020  0.22487  0.23403  1.0000
  H   H2764     1.0  0.26414  0.22817  0.38740  1.0000
  C   C1565     1.0  0.41662  0.22835  0.13149  1.0000
  C   C1566     1.0  0.33125  0.22916  0.05891  1.0000
  C   C1567     1.0  0.38205  0.22756  0.23857  1.0000
  S   S358      1.0  0.34450  0.22994  0.12389  1.0000
  C   C1568     1.0  0.24078  0.09872  0.25291  1.0000
  C   C1569     1.0  0.24255  0.19264  0.36653  1.0000
  H   H2765     1.0  0.37713  0.22948  0.12939  1.0000
  C   C1570     1.0  0.23925  0.19880  0.45871  1.0000
  S   S359      1.0  0.23995  0.20758  0.40278  1.0000
  H   H2766     1.0  0.34686  0.23060  0.15900  1.0000
  C   C1571     1.0  0.34714  0.23041  0.17187  1.0000
  H   H2767     1.0  0.32413  0.23087  0.07141  1.0000
  H   H2768     1.0  0.32758  0.23147  0.03494  1.0000
  S   S360      1.0  0.23929  0.07738  0.30703  1.0000
  H   H2769     1.0  0.23930  0.10794  0.19191  1.0000
  H   H2770     1.0  0.44290  0.23149  0.20842  1.0000
  C   C1572     1.0  0.24634  0.18077  0.64947  1.0000
  H   H2771     1.0  0.31172  0.15643  0.50235  1.0000
  H   H2772     1.0  0.31125  0.14611  0.64683  1.0000
  H   H2773     1.0  0.23980  0.98929  0.79923  1.0000
  Fe  Fe184     1.0  0.31078  0.17584  0.54899  1.0000
  S   S361      1.0  0.32353  0.14918  0.55569  1.0000
  S   S362      1.0  0.32520  0.19389  0.53065  1.0000
  Fe  Fe185     1.0  0.40949  0.21621  0.63233  1.0000
  C   C1573     1.0  0.45052  0.21320  0.63449  1.0000
  H   H2774     1.0  0.26381  0.99241  0.74933  1.0000
  C   C1574     1.0  0.28786  0.13872  0.52218  1.0000
  S   S363      1.0  0.35336  0.20447  0.66687  1.0000
  C   C1575     1.0  0.30436  0.12950  0.52760  1.0000
  S   S364      1.0  0.24049  0.08645  0.88983  1.0000
  H   H2775     1.0  0.30647  0.11568  0.47903  1.0000
  H   H2776     1.0  0.27430  0.14539  0.54575  1.0000
  S   S365      1.0  0.39341  0.20114  0.62926  1.0000
  H   H2777     1.0  0.27118  0.19374  0.82336  1.0000
  H   H2778     1.0  0.29796  0.11201  0.83531  1.0000
  Fe  Fe186     1.0  0.37277  0.21484  0.64603  1.0000
  C   C1576     1.0  0.33878  0.17086  0.57710  1.0000
  C   C1577     1.0  0.27143  0.01011  0.75723  1.0000
  H   H2779     1.0  0.24559  0.18064  0.59432  1.0000
  S   S366      1.0  0.27722  0.03275  0.78702  1.0000
  S   S367      1.0  0.25312  0.20884  0.56827  1.0000
  H   H2780     1.0  0.31535  0.11248  0.50508  1.0000
  Fe  Fe187     1.0  0.25975  0.13913  0.87949  1.0000
  S   S368      1.0  0.26613  0.11470  0.89704  1.0000
  S   S369      1.0  0.27661  0.14406  0.85442  1.0000
  C   C1578     1.0  0.24519  0.14123  0.71736  1.0000
  H   H2781     1.0  0.25163  0.21463  0.96009  1.0000
  H   H2782     1.0  0.25218  0.21775  0.89508  1.0000
  H   H2783     1.0  0.37839  0.20250  0.56157  1.0000
  S   S370      1.0  0.27684  0.09933  0.59471  1.0000
  C   C1579     1.0  0.35272  0.21332  0.56041  1.0000
  H   H2784     1.0  0.24022  0.09896  0.66601  1.0000
  Fe  Fe188     1.0  0.25121  0.12859  0.91715  1.0000
  H   H2785     1.0  0.24916  0.98851  0.73455  1.0000
  C   C1580     1.0  0.25553  0.21461  0.47645  1.0000
  H   H2786     1.0  0.25529  0.21066  0.81596  1.0000
  S   S371      1.0  0.23988  0.13456  0.61072  1.0000
  C   C1581     1.0  0.41194  0.19932  0.73795  1.0000
  H   H2787     1.0  0.26987  0.21733  0.59257  1.0000
  Fe  Fe189     1.0  0.34062  0.21424  0.76542  1.0000
  S   S372      1.0  0.32153  0.21259  0.75296  1.0000
  C   C1582     1.0  0.36706  0.21877  0.57864  1.0000
  Fe  Fe190     1.0  0.31771  0.20816  0.79972  1.0000
  S   S373      1.0  0.29679  0.20680  0.78969  1.0000
  S   S374      1.0  0.31251  0.20417  0.82747  1.0000
  Fe  Fe191     1.0  0.31658  0.19126  0.77393  1.0000
  S   S375      1.0  0.31261  0.16708  0.77257  1.0000
  H   H2788     1.0  0.25479  0.06544  0.81692  1.0000
  H   H2789     1.0  0.37970  0.13818  0.72301  1.0000
  S   S376      1.0  0.33733  0.19114  0.78507  1.0000
  H   H2790     1.0  0.46468  0.20236  0.72039  1.0000
  Fe  Fe192     1.0  0.32674  0.12358  0.69523  1.0000
  S   S377      1.0  0.30226  0.13382  0.68775  1.0000
  S   S378      1.0  0.35024  0.12939  0.67752  1.0000
  Fe  Fe193     1.0  0.31097  0.10659  0.73009  1.0000
  S   S379      1.0  0.28530  0.11554  0.72548  1.0000
  S   S380      1.0  0.31569  0.09117  0.75475  1.0000
  Fe  Fe194     1.0  0.29713  0.10866  0.70091  1.0000
  S   S381      1.0  0.28636  0.09328  0.69113  1.0000
  Fe  Fe195     1.0  0.29303  0.13965  0.71297  1.0000
  S   S382      1.0  0.27831  0.16444  0.71788  1.0000
  S   S383      1.0  0.32242  0.09779  0.70641  1.0000
  S   S384      1.0  0.31799  0.13128  0.71947  1.0000
  H   H2791     1.0  0.27778  0.16310  0.79520  1.0000
  C   C1583     1.0  0.30151  0.16730  0.75821  1.0000
  C   C1584     1.0  0.29776  0.15249  0.75815  1.0000
  C   C1585     1.0  0.28980  0.15194  0.74625  1.0000
  C   C1586     1.0  0.28558  0.16618  0.73430  1.0000
  C   C1587     1.0  0.28869  0.18122  0.73471  1.0000
  C   C1588     1.0  0.29669  0.18178  0.74670  1.0000
  H   H2792     1.0  0.30137  0.14127  0.76707  1.0000
  H   H2793     1.0  0.28736  0.14030  0.74605  1.0000
  H   H2794     1.0  0.28555  0.19220  0.72537  1.0000
  H   H2795     1.0  0.29934  0.19329  0.74690  1.0000
  H   H2796     1.0  0.34437  0.20390  0.71846  1.0000
  H   H2797     1.0  0.26547  0.21586  0.49658  1.0000
  H   H2798     1.0  0.37555  0.18245  0.59890  1.0000
  C   C1589     1.0  0.25484  0.13757  0.96936  1.0000
  C   C1590     1.0  0.46447  0.20557  0.64147  1.0000
  H   H2799     1.0  0.28915  0.22415  0.58453  1.0000
  H   H2800     1.0  0.29843  0.06625  0.87522  1.0000
  H   H2801     1.0  0.46715  0.22528  0.66986  1.0000
  C   C1591     1.0  0.26022  0.09633  0.67771  1.0000
  C   C1592     1.0  0.26923  0.10462  0.68274  1.0000
  C   C1593     1.0  0.26471  0.12186  0.68071  1.0000
  N   N93       1.0  0.25459  0.22333  0.85956  1.0000
  C   C1594     1.0  0.42105  0.21182  0.70738  1.0000
  H   H2802     1.0  0.26358  0.08295  0.67950  1.0000
  H   H2803     1.0  0.27170  0.12828  0.68453  1.0000
  H   H2804     1.0  0.48876  0.20716  0.64272  1.0000
  C   C1595     1.0  0.26011  0.13798  0.95229  1.0000
  C   C1596     1.0  0.27144  0.14775  0.94269  1.0000
  C   C1597     1.0  0.27800  0.15637  0.95028  1.0000
  C   C1598     1.0  0.24529  0.08180  0.74219  1.0000
  H   H2805     1.0  0.24679  0.20623  0.63785  1.0000
  H   H2806     1.0  0.25378  0.08421  0.74852  1.0000
  C   C1599     1.0  0.28750  0.16004  0.84799  1.0000
  C   C1600     1.0  0.28768  0.16963  0.85869  1.0000
  C   C1601     1.0  0.29624  0.18266  0.85265  1.0000
  C   C1602     1.0  0.30416  0.18633  0.83588  1.0000
  C   C1603     1.0  0.30438  0.17631  0.82547  1.0000
  C   C1604     1.0  0.29609  0.16323  0.83149  1.0000
  H   H2807     1.0  0.28131  0.16697  0.87153  1.0000
  H   H2808     1.0  0.29647  0.19006  0.86085  1.0000
  H   H2809     1.0  0.31087  0.17864  0.81268  1.0000
  H   H2810     1.0  0.29614  0.15573  0.82322  1.0000
  S   S385      1.0  0.29990  0.19181  0.56764  1.0000
  C   C1605     1.0  0.28729  0.04945  0.77813  1.0000
  C   C1606     1.0  0.27901  0.06516  0.77089  1.0000
  C   C1607     1.0  0.28767  0.07802  0.76334  1.0000
  C   C1608     1.0  0.30452  0.07529  0.76346  1.0000
  C   C1609     1.0  0.31261  0.05972  0.77112  1.0000
  C   C1610     1.0  0.30411  0.04679  0.77815  1.0000
  H   H2811     1.0  0.26603  0.06727  0.77094  1.0000
  H   H2812     1.0  0.28127  0.09010  0.75771  1.0000
  H   H2813     1.0  0.32558  0.05756  0.77134  1.0000
  H   H2814     1.0  0.31058  0.03470  0.78375  1.0000
  C   C1611     1.0  0.25063  0.22675  0.53760  1.0000
  H   H2815     1.0  0.30357  0.22627  0.85497  1.0000
  H   H2816     1.0  0.33215  0.22495  0.62052  1.0000
  H   H2817     1.0  0.48607  0.20376  0.73429  1.0000
  H   H2818     1.0  0.26541  0.05053  0.74727  1.0000
  C   C1612     1.0  0.25127  0.13087  0.67346  1.0000
  H   H2819     1.0  0.30330  0.11633  0.53225  1.0000
  N   N94       1.0  0.32025  0.13098  0.51476  1.0000
  H   H2820     1.0  0.37889  0.13650  0.69503  1.0000
  C   C1613     1.0  0.35051  0.16790  0.58855  1.0000
  H   H2821     1.0  0.35285  0.11935  0.75618  1.0000
  H   H2822     1.0  0.31647  0.12893  0.81341  1.0000
  C   C1614     1.0  0.25635  0.12024  0.82346  1.0000
  H   H2823     1.0  0.40358  0.15259  0.60712  1.0000
  H   H2824     1.0  0.27858  0.22360  0.72297  1.0000
  C   C1615     1.0  0.42148  0.17222  0.68334  1.0000
  C   C1616     1.0  0.35271  0.18361  0.66947  1.0000
  C   C1617     1.0  0.36668  0.17216  0.66353  1.0000
  C   C1618     1.0  0.36585  0.15550  0.66599  1.0000
  C   C1619     1.0  0.35114  0.15022  0.67461  1.0000
  C   C1620     1.0  0.33722  0.16167  0.68067  1.0000
  C   C1621     1.0  0.33801  0.17832  0.67804  1.0000
  H   H2825     1.0  0.37819  0.17606  0.65729  1.0000
  H   H2826     1.0  0.37670  0.14663  0.66146  1.0000
  H   H2827     1.0  0.32578  0.15774  0.68727  1.0000
  H   H2828     1.0  0.32712  0.18715  0.68253  1.0000
  C   C1622     1.0  0.31010  0.13596  0.56712  1.0000
  C   C1623     1.0  0.29315  0.14210  0.57286  1.0000
  C   C1624     1.0  0.28264  0.13100  0.58128  1.0000
  C   C1625     1.0  0.28910  0.11384  0.58376  1.0000
  C   C1626     1.0  0.30595  0.10785  0.57767  1.0000
  C   C1627     1.0  0.31647  0.11886  0.56965  1.0000
  H   H2829     1.0  0.28813  0.15535  0.57077  1.0000
  H   H2830     1.0  0.26957  0.13573  0.58562  1.0000
  H   H2831     1.0  0.31089  0.09461  0.57929  1.0000
  H   H2832     1.0  0.32953  0.11410  0.56514  1.0000
  H   H2833     1.0  0.34420  0.16253  0.56824  1.0000
  S   S386      1.0  0.38537  0.21498  0.58599  1.0000
  Fe  Fe196     1.0  0.25029  0.10869  0.60666  1.0000
  H   H2834     1.0  0.26143  0.14435  0.53286  1.0000
  S   S387      1.0  0.38932  0.22800  0.65098  1.0000
  H   H2835     1.0  0.43157  0.16092  0.68271  1.0000
  H   H2836     1.0  0.31983  0.17188  0.62986  1.0000
  Fe  Fe197     1.0  0.30374  0.22823  0.76991  1.0000
  C   C1628     1.0  0.32142  0.12330  0.50051  1.0000
  C   C1629     1.0  0.32785  0.21593  0.63188  1.0000
  H   H2837     1.0  0.27266  0.12545  0.54387  1.0000
  H   H2838     1.0  0.43410  0.22212  0.66513  1.0000
  H   H2839     1.0  0.43399  0.20484  0.70801  1.0000
  H   H2840     1.0  0.25369  0.10686  0.71714  1.0000
  H   H2841     1.0  0.27214  0.21718  0.76114  1.0000
  H   H2842     1.0  0.32917  0.17351  0.48023  1.0000
  Fe  Fe198     1.0  0.27927  0.20158  0.55416  1.0000
  C   C1630     1.0  0.29818  0.19823  0.48146  1.0000
  C   C1631     1.0  0.40967  0.20099  0.72051  1.0000
  H   H2843     1.0  0.33103  0.18318  0.60333  1.0000
  H   H2844     1.0  0.34751  0.19441  0.70144  1.0000
  H   H2845     1.0  0.34721  0.14978  0.50691  1.0000
  H   H2846     1.0  0.35661  0.15756  0.70757  1.0000
  N   N95       1.0  0.35575  0.16779  0.72824  1.0000
  C   C1632     1.0  0.35230  0.15336  0.74242  1.0000
  C   C1633     1.0  0.36503  0.17797  0.73273  1.0000
  C   C1634     1.0  0.37959  0.16860  0.74166  1.0000
  C   C1635     1.0  0.37488  0.16831  0.76021  1.0000
  C   C1636     1.0  0.34059  0.12737  0.75445  1.0000
  H   H2847     1.0  0.34511  0.15805  0.75373  1.0000
  H   H2848     1.0  0.36379  0.14520  0.74591  1.0000
  H   H2849     1.0  0.37028  0.18653  0.72138  1.0000
  H   H2850     1.0  0.35624  0.18645  0.74063  1.0000
  H   H2851     1.0  0.33107  0.18119  0.73772  1.0000
  H   H2852     1.0  0.39095  0.15469  0.71397  1.0000
  H   H2853     1.0  0.38498  0.15578  0.73998  1.0000
  H   H2854     1.0  0.38991  0.17523  0.73621  1.0000
  H   H2855     1.0  0.37146  0.18116  0.76227  1.0000
  H   H2856     1.0  0.36433  0.16215  0.76655  1.0000
  H   H2857     1.0  0.38564  0.16142  0.76590  1.0000
  H   H2858     1.0  0.33397  0.13202  0.76587  1.0000
  H   H2859     1.0  0.33313  0.11972  0.75237  1.0000
  N   N96       1.0  0.30327  0.10143  0.63563  1.0000
  C   C1637     1.0  0.29851  0.08500  0.64428  1.0000
  C   C1638     1.0  0.31191  0.10636  0.64607  1.0000
  C   C1639     1.0  0.28743  0.11437  0.63375  1.0000
  C   C1640     1.0  0.31384  0.10095  0.61847  1.0000
  C   C1641     1.0  0.33115  0.08912  0.61734  1.0000
  C   C1642     1.0  0.28821  0.07891  0.63584  1.0000
  C   C1643     1.0  0.28880  0.13283  0.62962  1.0000
  C   C1644     1.0  0.32365  0.09227  0.65589  1.0000
  C   C1645     1.0  0.33481  0.09930  0.66200  1.0000
  C   C1646     1.0  0.33968  0.08816  0.59943  1.0000
  C   C1647     1.0  0.28348  0.06265  0.64622  1.0000
  C   C1648     1.0  0.27313  0.14454  0.62468  1.0000
  H   H2860     1.0  0.29127  0.08570  0.65708  1.0000
  H   H2861     1.0  0.30958  0.07488  0.64591  1.0000
  H   H2862     1.0  0.31896  0.11596  0.63829  1.0000
  H   H2863     1.0  0.30255  0.11223  0.65586  1.0000
  H   H2864     1.0  0.27766  0.11269  0.64532  1.0000
  H   H2865     1.0  0.28228  0.11281  0.62385  1.0000
  H   H2866     1.0  0.30707  0.09784  0.61086  1.0000
  H   H2867     1.0  0.31610  0.11345  0.61180  1.0000
  H   H2868     1.0  0.33033  0.07633  0.62433  1.0000
  H   H2869     1.0  0.33927  0.09389  0.62211  1.0000
  H   H2870     1.0  0.27648  0.08804  0.63432  1.0000
  H   H2871     1.0  0.29538  0.07663  0.62351  1.0000
  H   H2872     1.0  0.29947  0.13536  0.61933  1.0000
  H   H2873     1.0  0.29027  0.13614  0.64063  1.0000
  H   H2874     1.0  0.31615  0.08529  0.66689  1.0000
  H   H2875     1.0  0.33176  0.08310  0.64870  1.0000
  H   H2876     1.0  0.34379  0.10492  0.65141  1.0000
  H   H2877     1.0  0.32728  0.10885  0.66911  1.0000
  H   H2878     1.0  0.34191  0.08920  0.67023  1.0000
  H   H2879     1.0  0.34068  0.10071  0.59173  1.0000
  H   H2880     1.0  0.35239  0.08026  0.59896  1.0000
  H   H2881     1.0  0.33266  0.08251  0.59421  1.0000
  H   H2882     1.0  0.27576  0.06439  0.65856  1.0000
  H   H2883     1.0  0.27613  0.05861  0.63986  1.0000
  H   H2884     1.0  0.29476  0.05276  0.64782  1.0000
  H   H2885     1.0  0.27425  0.15761  0.62232  1.0000
  H   H2886     1.0  0.27148  0.14239  0.61316  1.0000
  H   H2887     1.0  0.26200  0.14266  0.63471  1.0000
  H   H2888     1.0  0.30122  0.14126  0.48955  1.0000
  S   S388      1.0  0.36491  0.21892  0.74808  1.0000
  C   C1649     1.0  0.33836  0.15243  0.49874  1.0000
  C   C1650     1.0  0.28165  0.20833  0.96727  1.0000
  H   H2889     1.0  0.33122  0.17897  0.49833  1.0000
  H   H2890     1.0  0.38344  0.22633  0.70562  1.0000
  S   S389      1.0  0.25322  0.12505  0.94389  1.0000
  C   C1651     1.0  0.26129  0.21725  0.75639  1.0000
  S   S390      1.0  0.32018  0.22886  0.55834  1.0000
  S   S391      1.0  0.29100  0.22166  0.53605  1.0000
  H   H2891     1.0  0.34940  0.17288  0.48296  1.0000
  C   C1652     1.0  0.25639  0.07198  0.72887  1.0000
  C   C1653     1.0  0.26047  0.21653  0.84394  1.0000
  C   C1654     1.0  0.38721  0.23080  0.69217  1.0000
  H   H2892     1.0  0.27380  0.21012  0.84240  1.0000
  C   C1655     1.0  0.28059  0.08920  0.82020  1.0000
  H   H2893     1.0  0.32660  0.16812  0.58436  1.0000
  C   C1656     1.0  0.47784  0.22838  0.62594  1.0000
  H   H2894     1.0  0.24036  0.16820  0.61473  1.0000
  H   H2895     1.0  0.25801  0.20090  0.47932  1.0000
  C   C1657     1.0  0.31388  0.12403  0.80392  1.0000
  H   H2896     1.0  0.40867  0.21168  0.74113  1.0000
  H   H2897     1.0  0.38459  0.22238  0.68598  1.0000
  C   C1658     1.0  0.24191  0.21545  0.89115  1.0000
  C   C1659     1.0  0.24273  0.12266  0.66776  1.0000
  H   H2898     1.0  0.27716  0.05092  0.72627  1.0000
  H   H2899     1.0  0.31369  0.13394  0.79253  1.0000
  H   H2900     1.0  0.36293  0.16904  0.58051  1.0000
  H   H2901     1.0  0.25597  0.17952  0.67084  1.0000
  H   H2902     1.0  0.25103  0.19017  0.82495  1.0000
  C   C1660     1.0  0.29712  0.11901  0.80994  1.0000
  H   H2903     1.0  0.28562  0.13244  0.51360  1.0000
  H   H2904     1.0  0.40376  0.17412  0.60519  1.0000
  H   H2905     1.0  0.33695  0.18389  0.56990  1.0000
  H   H2906     1.0  0.24892  0.06559  0.72504  1.0000
  C   C1661     1.0  0.24614  0.01667  0.74478  1.0000
  H   H2907     1.0  0.32262  0.20105  0.61871  1.0000
  H   H2908     1.0  0.27961  0.01399  0.74504  1.0000
  H   H2909     1.0  0.48381  0.19630  0.70596  1.0000
  H   H2910     1.0  0.46482  0.19367  0.65006  1.0000
  C   C1662     1.0  0.27313  0.15549  0.96744  1.0000
  C   C1663     1.0  0.33451  0.12162  0.52312  1.0000
  C   C1664     1.0  0.33476  0.10302  0.53127  1.0000
  C   C1665     1.0  0.35118  0.09422  0.53651  1.0000
  H   H2911     1.0  0.33476  0.12778  0.53285  1.0000
  H   H2912     1.0  0.34659  0.12196  0.51410  1.0000
  H   H2913     1.0  0.26206  0.08023  0.71771  1.0000
  H   H2914     1.0  0.33308  0.09642  0.52265  1.0000
  H   H2915     1.0  0.32476  0.10175  0.54261  1.0000
  H   H2916     1.0  0.36167  0.09418  0.52553  1.0000
  H   H2917     1.0  0.35341  0.10045  0.54517  1.0000
  H   H2918     1.0  0.35075  0.08115  0.54291  1.0000
  C   C1666     1.0  0.29027  0.18512  0.48990  1.0000
  C   C1667     1.0  0.40027  0.16275  0.61389  1.0000
  H   H2919     1.0  0.27337  0.07929  0.85392  1.0000
  Fe  Fe199     1.0  0.24946  0.03848  0.79582  1.0000
  H   H2920     1.0  0.29505  0.07451  0.84507  1.0000
  C   C1668     1.0  0.28445  0.08490  0.84821  1.0000
  H   H2921     1.0  0.35138  0.15503  0.59607  1.0000
  Fe  Fe200     1.0  0.38612  0.22271  0.60896  1.0000
  H   H2922     1.0  0.31452  0.22080  0.63691  1.0000
  H   H2923     1.0  0.24525  0.18993  0.90555  1.0000
  H   H2924     1.0  0.25111  0.11161  0.73636  1.0000
  C   C1669     1.0  0.25766  0.19930  0.82564  1.0000
  C   C1670     1.0  0.34270  0.14187  0.73959  1.0000
  H   H2925     1.0  0.37940  0.17582  0.62880  1.0000
  H   H2926     1.0  0.33463  0.11808  0.49515  1.0000
  H   H2927     1.0  0.43351  0.18234  0.69601  1.0000
  S   S392      1.0  0.32297  0.23135  0.78121  1.0000
  C   C1671     1.0  0.47804  0.21318  0.63731  1.0000
  H   H2928     1.0  0.35516  0.14983  0.62482  1.0000
  H   H2929     1.0  0.32817  0.15514  0.61932  1.0000
  H   H2930     1.0  0.26605  0.02094  0.76314  1.0000
  H   H2931     1.0  0.26726  0.16394  0.65907  1.0000
  C   C1672     1.0  0.28827  0.07708  0.87782  1.0000
  H   H2932     1.0  0.39642  0.20615  0.72051  1.0000
  H   H2933     1.0  0.25974  0.21649  0.53321  1.0000
  H   H2934     1.0  0.25773  0.19885  0.87540  1.0000
  C   C1673     1.0  0.37119  0.17184  0.60838  1.0000
  H   H2935     1.0  0.26498  0.19262  0.79465  1.0000
  H   H2936     1.0  0.42496  0.19327  0.73894  1.0000
  H   H2937     1.0  0.25996  0.22684  0.83276  1.0000
  H   H2938     1.0  0.25837  0.08494  0.80361  1.0000
  H   H2939     1.0  0.28691  0.18243  0.50326  1.0000
  H   H2940     1.0  0.27793  0.09811  0.80871  1.0000
  C   C1674     1.0  0.24399  0.11074  0.72775  1.0000
  H   H2941     1.0  0.25549  0.16632  0.80117  1.0000
  S   S393      1.0  0.30308  0.21051  0.49222  1.0000
  C   C1675     1.0  0.24346  0.13531  0.82843  1.0000
  H   H2942     1.0  0.43867  0.18818  0.67386  1.0000
  H   H2943     1.0  0.25583  0.08441  0.83346  1.0000
  H   H2944     1.0  0.28775  0.15191  0.51621  1.0000
  C   C1676     1.0  0.24458  0.22597  0.55452  1.0000
  C   C1677     1.0  0.26608  0.16881  0.79071  1.0000
  H   H2945     1.0  0.30824  0.09569  0.82450  1.0000
  C   C1678     1.0  0.33010  0.19904  0.62796  1.0000
  H   H2946     1.0  0.24963  0.11197  0.82129  1.0000
  C   C1679     1.0  0.25350  0.21989  0.49253  1.0000
  H   H2947     1.0  0.29988  0.09451  0.85851  1.0000
  Fe  Fe201     1.0  0.30223  0.20294  0.51997  1.0000
  H   H2948     1.0  0.31857  0.15457  0.52036  1.0000
  H   H2949     1.0  0.37887  0.15469  0.63054  1.0000
  H   H2950     1.0  0.25718  0.10523  0.84779  1.0000
  H   H2951     1.0  0.35429  0.18876  0.63258  1.0000
  Fe  Fe202     1.0  0.24217  0.11078  0.89450  1.0000
  H   H2952     1.0  0.27239  0.06632  0.83458  1.0000
  H   H2953     1.0  0.27537  0.06689  0.80492  1.0000
  H   H2954     1.0  0.28010  0.16569  0.48767  1.0000
  H   H2955     1.0  0.27606  0.18943  0.77461  1.0000
  C   C1680     1.0  0.27321  0.13842  0.53711  1.0000
  H   H2956     1.0  0.39980  0.13367  0.69722  1.0000
  N   N97       1.0  0.24652  0.21447  0.77055  1.0000
  H   H2957     1.0  0.24419  0.21406  0.50249  1.0000
  H   H2958     1.0  0.46705  0.21176  0.69865  1.0000
  H   H2959     1.0  0.27941  0.06457  0.73761  1.0000
  C   C1681     1.0  0.32220  0.20524  0.71089  1.0000
  C   C1682     1.0  0.38783  0.14279  0.69671  1.0000
  C   C1683     1.0  0.38171  0.16622  0.62174  1.0000
  H   H2960     1.0  0.24947  0.00604  0.71810  1.0000
  H   H2961     1.0  0.34374  0.14449  0.48951  1.0000
  C   C1684     1.0  0.33689  0.17057  0.48953  1.0000
  C   C1685     1.0  0.24582  0.22263  0.78427  1.0000
  C   C1686     1.0  0.48028  0.22058  0.71149  1.0000
  H   H2962     1.0  0.32346  0.15286  0.65657  1.0000
  H   H2963     1.0  0.48766  0.22597  0.69936  1.0000
  H   H2964     1.0  0.25848  0.22051  0.78652  1.0000
  C   C1687     1.0  0.34867  0.19148  0.62171  1.0000
  C   C1688     1.0  0.43502  0.21966  0.67830  1.0000
  H   H2965     1.0  0.28163  0.20277  0.95706  1.0000
  H   H2966     1.0  0.32402  0.11330  0.80097  1.0000
  H   H2967     1.0  0.44538  0.20865  0.68000  1.0000
  H   H2968     1.0  0.29136  0.20002  0.97385  1.0000
  H   H2969     1.0  0.27824  0.21486  0.86683  1.0000
  C   C1689     1.0  0.26759  0.07814  0.82634  1.0000
  C   C1690     1.0  0.32134  0.14901  0.50935  1.0000
  H   H2970     1.0  0.37484  0.16125  0.60215  1.0000
  H   H2971     1.0  0.25442  0.02191  0.73323  1.0000
  C   C1691     1.0  0.32383  0.14788  0.64583  1.0000
  H   H2972     1.0  0.40751  0.15897  0.62371  1.0000
  C   C1692     1.0  0.27040  0.05867  0.73548  1.0000
  C   C1693     1.0  0.24706  0.10537  0.67005  1.0000
  H   H2973     1.0  0.29512  0.11462  0.79984  1.0000
  C   C1694     1.0  0.29675  0.10562  0.82622  1.0000
  C   C1695     1.0  0.36713  0.21074  0.56642  1.0000
  H   H2974     1.0  0.40307  0.19921  0.69328  1.0000
  C   C1696     1.0  0.31416  0.13478  0.48561  1.0000
  C   C1697     1.0  0.36487  0.16232  0.71227  1.0000
  C   C1698     1.0  0.26483  0.18749  0.78427  1.0000
  C   C1699     1.0  0.33910  0.17874  0.72567  1.0000
  H   H2975     1.0  0.41198  0.20690  0.67236  1.0000
  H   H2976     1.0  0.41659  0.17573  0.67187  1.0000
  H   H2977     1.0  0.34875  0.16222  0.63972  1.0000
  H   H2978     1.0  0.27569  0.14810  0.92957  1.0000
  C   C1700     1.0  0.38128  0.14912  0.71275  1.0000
  H   H2979     1.0  0.32320  0.21657  0.70093  1.0000
  C   C1701     1.0  0.25770  0.00315  0.75522  1.0000
  H   H2980     1.0  0.33012  0.14875  0.73792  1.0000
  C   C1702     1.0  0.26069  0.17717  0.65812  1.0000
  H   H2981     1.0  0.35440  0.20142  0.61248  1.0000
  C   C1703     1.0  0.33952  0.19590  0.71362  1.0000
  H   H2982     1.0  0.36811  0.17307  0.70233  1.0000
  H   H2983     1.0  0.34936  0.13659  0.72855  1.0000
  H   H2984     1.0  0.24962  0.14422  0.83037  1.0000
  H   H2985     1.0  0.32152  0.14435  0.47888  1.0000
  H   H2986     1.0  0.33270  0.13568  0.64636  1.0000
  C   C1704     1.0  0.25166  0.20354  0.84265  1.0000
  H   H2987     1.0  0.33235  0.17239  0.72084  1.0000
  H   H2988     1.0  0.41142  0.16932  0.69423  1.0000
  H   H2989     1.0  0.29053  0.08170  0.88766  1.0000
  H   H2990     1.0  0.27630  0.07301  0.88250  1.0000
  H   H2991     1.0  0.25161  0.17710  0.63740  1.0000
  S   S394      1.0  0.24106  0.09610  0.63301  1.0000
  H   H2992     1.0  0.32504  0.19079  0.63961  1.0000
  H   H2993     1.0  0.29960  0.12581  0.97001  1.0000
  S   S395      1.0  0.28875  0.18365  0.53724  1.0000
  H   H2994     1.0  0.27781  0.10168  0.86546  1.0000
  H   H2995     1.0  0.24545  0.19605  0.61439  1.0000
  H   H2996     1.0  0.31619  0.19742  0.70708  1.0000
  H   H2997     1.0  0.26976  0.18503  0.65101  1.0000
  N   N98       1.0  0.35254  0.17629  0.61450  1.0000
  H   H2998     1.0  0.30453  0.13395  0.53850  1.0000
  C   C1705     1.0  0.33820  0.22420  0.56639  1.0000
  C   C1706     1.0  0.42830  0.18631  0.68475  1.0000
  H   H2999     1.0  0.35297  0.20722  0.55087  1.0000
  C   C1707     1.0  0.26619  0.11087  0.83721  1.0000
  C   C1708     1.0  0.47356  0.20690  0.70901  1.0000
  H   H3000     1.0  0.29285  0.08105  0.81610  1.0000
  H   H3001     1.0  0.26924  0.12024  0.84192  1.0000
  C   C1709     1.0  0.35248  0.22949  0.58474  1.0000
  N   N99       1.0  0.28171  0.09795  0.83273  1.0000
  H   H3002     1.0  0.34740  0.19271  0.59167  1.0000
  H   H3003     1.0  0.25449  0.19178  0.85186  1.0000
  H   H3004     1.0  0.40359  0.19163  0.74712  1.0000
  H   H3005     1.0  0.25711  0.13789  0.70861  1.0000
  H   H3006     1.0  0.38995  0.15321  0.68592  1.0000
  H   H3007     1.0  0.31421  0.20903  0.72233  1.0000
  Fe  Fe203     1.0  0.31253  0.21072  0.54856  1.0000
  S   S396      1.0  0.43383  0.20311  0.64001  1.0000
  H   H3008     1.0  0.28726  0.16336  0.94287  1.0000
  N   N100      1.0  0.41884  0.21629  0.68973  1.0000
  C   C1710     1.0  0.41466  0.20254  0.68499  1.0000
  C   C1711     1.0  0.34704  0.16182  0.62749  1.0000
  H   H3009     1.0  0.26445  0.12464  0.81151  1.0000
  H   H3010     1.0  0.46854  0.22710  0.74404  1.0000
  H   H3011     1.0  0.33493  0.21484  0.64127  1.0000
  H   H3012     1.0  0.26627  0.16289  0.78068  1.0000
  H   H3013     1.0  0.28758  0.13039  0.81210  1.0000
  C   C1712     1.0  0.26384  0.07364  0.81201  1.0000
  C   C1713     1.0  0.34475  0.18076  0.59970  1.0000
  H   H3014     1.0  0.26544  0.20678  0.74987  1.0000
  C   C1714     1.0  0.32902  0.16000  0.62968  1.0000
  C   C1715     1.0  0.28770  0.09090  0.86222  1.0000
  H   H3015     1.0  0.41274  0.18829  0.71821  1.0000
  H   H3016     1.0  0.24428  0.17683  0.55723  1.0000
  C   C1716     1.0  0.24797  0.21055  0.87408  1.0000
  C   C1717     1.0  0.26942  0.22677  0.86322  1.0000
  C   C1718     1.0  0.27559  0.22826  0.58926  1.0000
  H   H3017     1.0  0.24073  0.99934  0.69602  1.0000
  H   H3018     1.0  0.46950  0.23045  0.71517  1.0000
  C   C1719     1.0  0.24883  0.19596  0.77752  1.0000
  H   H3019     1.0  0.27913  0.00048  0.76527  1.0000
  H   H3020     1.0  0.24781  0.14421  0.67183  1.0000
  C   C1720     1.0  0.45016  0.22859  0.62340  1.0000
  C   C1721     1.0  0.28648  0.17562  0.48103  1.0000
  H   H3021     1.0  0.41960  0.22326  0.71182  1.0000
  H   H3022     1.0  0.24874  0.18947  0.76796  1.0000
  H   H3023     1.0  0.47958  0.22981  0.76628  1.0000
  H   H3024     1.0  0.25064  0.99856  0.76780  1.0000
  C   C1722     1.0  0.25076  0.22061  0.97033  1.0000
  H   H3025     1.0  0.28487  0.22068  0.96205  1.0000
  H   H3026     1.0  0.24014  0.04026  0.71674  1.0000
  S   S397      1.0  0.24676  0.15347  0.89959  1.0000
  C   C1723     1.0  0.24096  0.99984  0.72883  1.0000
  H   H3027     1.0  0.24789  0.14210  0.72895  1.0000
  H   H3028     1.0  0.24163  0.05791  0.87779  1.0000
  H   H3029     1.0  0.24054  0.02695  0.75157  1.0000
  H   H3030     1.0  0.24488  0.26039  0.47345  1.0000
  C   C1724     1.0  0.27157  0.27224  0.04665  1.0000
  C   C1725     1.0  0.27682  0.47131  0.14141  1.0000
  H   H3031     1.0  0.25603  0.34025  0.11274  1.0000
  C   C1726     1.0  0.48546  0.24588  0.15887  1.0000
  C   C1727     1.0  0.34287  0.29086  0.10311  1.0000
  S   S398      1.0  0.24455  0.26620  0.09627  1.0000
  H   H3032     1.0  0.47255  0.24608  0.24906  1.0000
  C   C1728     1.0  0.28093  0.46393  0.22736  1.0000
  Fe  Fe204     1.0  0.25958  0.37789  0.16818  1.0000
  S   S399      1.0  0.26680  0.39912  0.14792  1.0000
  C   C1729     1.0  0.26522  0.27258  0.46174  1.0000
  Fe  Fe205     1.0  0.29569  0.36074  0.16933  1.0000
  S   S400      1.0  0.30555  0.38083  0.14930  1.0000
  S   S401      1.0  0.31163  0.33928  0.18369  1.0000
  Fe  Fe206     1.0  0.28522  0.39885  0.16235  1.0000
  S   S402      1.0  0.28498  0.42004  0.17375  1.0000
  Fe  Fe207     1.0  0.28611  0.37894  0.13716  1.0000
  S   S403      1.0  0.29147  0.37834  0.11018  1.0000
  S   S404      1.0  0.27666  0.37858  0.18325  1.0000
  S   S405      1.0  0.27760  0.35774  0.15644  1.0000
  Fe  Fe208     1.0  0.42825  0.27130  0.17782  1.0000
  S   S406      1.0  0.40203  0.28484  0.18679  1.0000
  S   S407      1.0  0.44945  0.26752  0.19061  1.0000
  Fe  Fe209     1.0  0.41731  0.25574  0.15543  1.0000
  S   S408      1.0  0.39048  0.26773  0.16262  1.0000
  H   H3033     1.0  0.24519  0.25460  0.04101  1.0000
  Fe  Fe210     1.0  0.39987  0.29039  0.16027  1.0000
  S   S409      1.0  0.38596  0.31469  0.14726  1.0000
  Fe  Fe211     1.0  0.39462  0.26131  0.18836  1.0000
  H   H3034     1.0  0.30089  0.23335  0.09485  1.0000
  S   S410      1.0  0.42681  0.27891  0.15094  1.0000
  C   C1730     1.0  0.24710  0.48012  0.28986  1.0000
  H   H3035     1.0  0.34372  0.37912  0.19470  1.0000
  H   H3036     1.0  0.32724  0.31576  0.08063  1.0000
  H   H3037     1.0  0.29589  0.25747  0.14686  1.0000
  H   H3038     1.0  0.47553  0.25490  0.13644  1.0000
  H   H3039     1.0  0.26859  0.29076  0.13131  1.0000
  S   S411      1.0  0.32289  0.47895  0.15672  1.0000
  S   S412      1.0  0.24027  0.30750  0.11142  1.0000
  H   H3040     1.0  0.27031  0.39191  0.25539  1.0000
  S   S413      1.0  0.32118  0.25705  0.08950  1.0000
  C   C1731     1.0  0.41236  0.23529  0.23589  1.0000
  C   C1732     1.0  0.26600  0.26366  0.09306  1.0000
  C   C1733     1.0  0.27605  0.24771  0.09536  1.0000
  C   C1734     1.0  0.29318  0.24566  0.09343  1.0000
  C   C1735     1.0  0.30022  0.25950  0.08951  1.0000
  C   C1736     1.0  0.29028  0.27545  0.08627  1.0000
  C   C1737     1.0  0.27313  0.27754  0.08820  1.0000
  H   H3041     1.0  0.26380  0.40460  0.27955  1.0000
  S   S414      1.0  0.42071  0.24724  0.18147  1.0000
  H   H3042     1.0  0.29574  0.28617  0.08255  1.0000
  H   H3043     1.0  0.26545  0.28990  0.08592  1.0000
  H   H3044     1.0  0.25979  0.24102  0.44648  1.0000
  H   H3045     1.0  0.24618  0.28109  0.43735  1.0000
  C   C1738     1.0  0.26350  0.35432  0.08806  1.0000
  H   H3046     1.0  0.26471  0.44172  0.21735  1.0000
  S   S415      1.0  0.42851  0.23682  0.13949  1.0000
  H   H3047     1.0  0.45152  0.25028  0.23191  1.0000
  H   H3048     1.0  0.29669  0.39119  0.20103  1.0000
  H   H3049     1.0  0.27862  0.44550  0.14163  1.0000
  C   C1739     1.0  0.30911  0.38265  0.19999  1.0000
  H   H3050     1.0  0.40651  0.25437  0.21494  1.0000
  C   C1740     1.0  0.28049  0.36867  0.10236  1.0000
  C   C1741     1.0  0.28103  0.37324  0.08537  1.0000
  C   C1742     1.0  0.36494  0.42653  0.15132  1.0000
  H   H3051     1.0  0.27907  0.46697  0.21452  1.0000
  H   H3052     1.0  0.34005  0.30361  0.15253  1.0000
  C   C1743     1.0  0.27140  0.35675  0.11232  1.0000
  H   H3053     1.0  0.28802  0.38236  0.07758  1.0000
  H   H3054     1.0  0.26425  0.27523  0.03702  1.0000
  H   H3055     1.0  0.24686  0.40512  0.17819  1.0000
  H   H3056     1.0  0.27101  0.35303  0.12545  1.0000
  C   C1744     1.0  0.36505  0.32068  0.15716  1.0000
  C   C1745     1.0  0.35915  0.31340  0.17367  1.0000
  C   C1746     1.0  0.34268  0.31907  0.18165  1.0000
  C   C1747     1.0  0.33196  0.33189  0.17312  1.0000
  C   C1748     1.0  0.33770  0.33879  0.15643  1.0000
  C   C1749     1.0  0.35425  0.33329  0.14852  1.0000
  H   H3057     1.0  0.36738  0.30362  0.18041  1.0000
  H   H3058     1.0  0.33830  0.31359  0.19453  1.0000
  H   H3059     1.0  0.32942  0.34841  0.14966  1.0000
  H   H3060     1.0  0.35874  0.33881  0.13569  1.0000
  C   C1750     1.0  0.47136  0.25489  0.14986  1.0000
  C   C1751     1.0  0.27678  0.25346  0.05281  1.0000
  C   C1752     1.0  0.24330  0.32696  0.46326  1.0000
  H   H3061     1.0  0.26377  0.27798  0.05714  1.0000
  H   H3062     1.0  0.39277  0.24334  0.14013  1.0000
  C   C1753     1.0  0.26202  0.41643  0.22864  1.0000
  C   C1754     1.0  0.26292  0.34952  0.10515  1.0000
  H   H3063     1.0  0.34734  0.29845  0.10879  1.0000
  H   H3064     1.0  0.29758  0.46756  0.18483  1.0000
  H   H3065     1.0  0.36629  0.27273  0.10270  1.0000
  C   C1755     1.0  0.25922  0.23673  0.43569  1.0000
  H   H3066     1.0  0.27549  0.23439  0.41167  1.0000
  C   C1756     1.0  0.32132  0.39049  0.18537  1.0000
  H   H3067     1.0  0.32554  0.24714  0.22684  1.0000
  H   H3068     1.0  0.26038  0.25884  0.37821  1.0000
  H   H3069     1.0  0.33944  0.32430  0.09629  1.0000
  H   H3070     1.0  0.27845  0.24976  0.42049  1.0000
  H   H3071     1.0  0.28980  0.47090  0.22792  1.0000
  H   H3072     1.0  0.34684  0.23569  0.22453  1.0000
  C   C1757     1.0  0.46477  0.27939  0.18569  1.0000
  H   H3073     1.0  0.48027  0.24560  0.17224  1.0000
  H   H3074     1.0  0.24347  0.43970  0.22530  1.0000
  H   H3075     1.0  0.27469  0.24620  0.47125  1.0000
  C   C1758     1.0  0.27251  0.36623  0.07832  1.0000
  H   H3076     1.0  0.31327  0.38033  0.21170  1.0000
  C   C1759     1.0  0.31966  0.23379  0.04697  1.0000
  H   H3077     1.0  0.32130  0.40266  0.18754  1.0000
  H   H3078     1.0  0.26686  0.46412  0.25214  1.0000
  C   C1760     1.0  0.33902  0.37922  0.18382  1.0000
  C   C1761     1.0  0.28728  0.35067  0.22867  1.0000
  C   C1762     1.0  0.31310  0.46192  0.16193  1.0000
  C   C1763     1.0  0.31734  0.45095  0.15117  1.0000
  C   C1764     1.0  0.30921  0.43774  0.15468  1.0000
  C   C1765     1.0  0.29667  0.43551  0.16896  1.0000
  H   H3079     1.0  0.32069  0.28181  0.10660  1.0000
  H   H3080     1.0  0.39448  0.34716  0.17819  1.0000
  H   H3081     1.0  0.32676  0.45286  0.13993  1.0000
  H   H3082     1.0  0.31235  0.42957  0.14618  1.0000
  H   H3083     1.0  0.34953  0.26501  0.10092  1.0000
  H   H3084     1.0  0.29857  0.35524  0.22740  1.0000
  C   C1766     1.0  0.48818  0.28451  0.19304  1.0000
  C   C1767     1.0  0.29488  0.30563  0.11229  1.0000
  H   H3085     1.0  0.24207  0.26146  0.00601  1.0000
  H   H3086     1.0  0.35257  0.24724  0.19344  1.0000
  H   H3087     1.0  0.24899  0.30280  0.44668  1.0000
  H   H3088     1.0  0.37330  0.43190  0.13992  1.0000
  H   H3089     1.0  0.29733  0.34378  0.05639  1.0000
  H   H3090     1.0  0.31944  0.26632  0.15085  1.0000
  H   H3091     1.0  0.26874  0.28437  0.46077  1.0000
  C   C1768     1.0  0.27163  0.29929  0.13712  1.0000
  H   H3092     1.0  0.44680  0.26539  0.24440  1.0000
  N   N101      1.0  0.31243  0.30820  0.10522  1.0000
  H   H3093     1.0  0.24364  0.33231  0.47349  1.0000
  C   C1769     1.0  0.25201  0.40017  0.28401  1.0000
  H   H3094     1.0  0.27583  0.35710  0.25219  1.0000
  C   C1770     1.0  0.33371  0.23312  0.20732  1.0000
  C   C1771     1.0  0.35279  0.27302  0.10717  1.0000
  H   H3095     1.0  0.24972  0.38908  0.12571  1.0000
  H   H3096     1.0  0.35032  0.26787  0.12071  1.0000
  H   H3097     1.0  0.31851  0.33920  0.05856  1.0000
  H   H3098     1.0  0.28573  0.31741  0.10924  1.0000
  H   H3099     1.0  0.46682  0.26789  0.15148  1.0000
  H   H3100     1.0  0.46080  0.24852  0.15507  1.0000
  H   H3101     1.0  0.35967  0.28901  0.14970  1.0000
  C   C1772     1.0  0.32404  0.29181  0.11016  1.0000
  H   H3102     1.0  0.24305  0.36986  0.22573  1.0000
  H   H3103     1.0  0.39184  0.34571  0.15847  1.0000
  H   H3104     1.0  0.24393  0.24009  0.01713  1.0000
  C   C1773     1.0  0.30744  0.33387  0.06105  1.0000
  H   H3105     1.0  0.29005  0.32311  0.08139  1.0000
  H   H3106     1.0  0.29024  0.26566  0.16536  1.0000
  H   H3107     1.0  0.31046  0.32376  0.05426  1.0000
  H   H3108     1.0  0.31512  0.30179  0.08187  1.0000
  H   H3109     1.0  0.29882  0.33768  0.08597  1.0000
  C   C1774     1.0  0.29816  0.25532  0.15945  1.0000
  H   H3110     1.0  0.24396  0.41882  0.09673  1.0000
  C   C1775     1.0  0.24341  0.39571  0.11532  1.0000
  H   H3111     1.0  0.33214  0.25920  0.19663  1.0000
  H   H3112     1.0  0.34144  0.28033  0.17692  1.0000
  C   C1776     1.0  0.31652  0.25427  0.15822  1.0000
  H   H3113     1.0  0.35992  0.25800  0.16467  1.0000
  C   C1777     1.0  0.35157  0.37832  0.12402  1.0000
  C   C1778     1.0  0.30170  0.32731  0.07960  1.0000
  C   C1779     1.0  0.35190  0.40175  0.16588  1.0000
  H   H3114     1.0  0.24957  0.24580  0.42954  1.0000
  C   C1780     1.0  0.36411  0.40921  0.15052  1.0000
  H   H3115     1.0  0.24706  0.32683  0.21324  1.0000
  H   H3116     1.0  0.28268  0.27778  0.04147  1.0000
  C   C1781     1.0  0.27585  0.23717  0.42340  1.0000
  H   H3117     1.0  0.33747  0.36635  0.18545  1.0000
  Fe  Fe212     1.0  0.33057  0.23194  0.10463  1.0000
  H   H3118     1.0  0.36128  0.35032  0.16903  1.0000
  S   S416      1.0  0.37660  0.24981  0.20986  1.0000
  H   H3119     1.0  0.26438  0.41794  0.24010  1.0000
  C   C1782     1.0  0.34568  0.38156  0.15372  1.0000
  H   H3120     1.0  0.27309  0.36996  0.06513  1.0000
  C   C1783     1.0  0.25183  0.23604  0.38933  1.0000
  H   H3121     1.0  0.31410  0.24728  0.04559  1.0000
  H   H3122     1.0  0.35474  0.40341  0.17713  1.0000
  C   C1784     1.0  0.24682  0.27319  0.47088  1.0000
  C   C1785     1.0  0.46700  0.29165  0.17118  1.0000
  H   H3123     1.0  0.28493  0.25149  0.06143  1.0000
  H   H3124     1.0  0.26851  0.29485  0.15076  1.0000
  H   H3125     1.0  0.28646  0.45045  0.23064  1.0000
  C   C1786     1.0  0.46100  0.24135  0.25464  1.0000
  H   H3126     1.0  0.25617  0.46071  0.23854  1.0000
  C   C1787     1.0  0.28569  0.24478  0.03822  1.0000
  H   H3127     1.0  0.33875  0.37139  0.15797  1.0000
  H   H3128     1.0  0.28306  0.44467  0.19085  1.0000
  C   C1788     1.0  0.27685  0.25845  0.47100  1.0000
  H   H3129     1.0  0.27930  0.38316  0.23060  1.0000
  C   C1789     1.0  0.24923  0.41199  0.10775  1.0000
  C   C1790     1.0  0.33889  0.27835  0.16571  1.0000
  H   H3130     1.0  0.36816  0.38545  0.13398  1.0000
  H   H3131     1.0  0.32380  0.24457  0.15130  1.0000
  H   H3132     1.0  0.30799  0.37077  0.19806  1.0000
  H   H3133     1.0  0.45665  0.24336  0.26743  1.0000
  H   H3134     1.0  0.34484  0.39124  0.11980  1.0000
  H   H3135     1.0  0.25218  0.24326  0.98631  1.0000
  H   H3136     1.0  0.24283  0.40881  0.29137  1.0000
  H   H3137     1.0  0.25984  0.37578  0.26640  1.0000
  H   H3138     1.0  0.24324  0.33700  0.14543  1.0000
  H   H3139     1.0  0.24762  0.38805  0.10588  1.0000
  C   C1791     1.0  0.36818  0.37297  0.16990  1.0000
  C   C1792     1.0  0.31470  0.32149  0.11234  1.0000
  C   C1793     1.0  0.32761  0.33196  0.10171  1.0000
  C   C1794     1.0  0.29009  0.29955  0.13134  1.0000
  C   C1795     1.0  0.33151  0.34176  0.11201  1.0000
  H   H3140     1.0  0.32265  0.28820  0.12380  1.0000
  H   H3141     1.0  0.30279  0.33073  0.11485  1.0000
  H   H3142     1.0  0.31792  0.31591  0.12467  1.0000
  H   H3143     1.0  0.24744  0.40506  0.22030  1.0000
  H   H3144     1.0  0.29271  0.30772  0.13785  1.0000
  H   H3145     1.0  0.29701  0.28671  0.13522  1.0000
  H   H3146     1.0  0.31999  0.34979  0.11768  1.0000
  H   H3147     1.0  0.33757  0.33315  0.12195  1.0000
  H   H3148     1.0  0.34010  0.34979  0.10398  1.0000
  H   H3149     1.0  0.28984  0.33710  0.23396  1.0000
  C   C1796     1.0  0.34681  0.26020  0.16374  1.0000
  H   H3150     1.0  0.43569  0.24891  0.25091  1.0000
  C   C1797     1.0  0.30087  0.45937  0.17637  1.0000
  H   H3151     1.0  0.34388  0.28940  0.13929  1.0000
  H   H3152     1.0  0.36990  0.42592  0.16215  1.0000
  H   H3153     1.0  0.25113  0.46653  0.29064  1.0000
  H   H3154     1.0  0.29458  0.24348  0.16674  1.0000
  H   H3155     1.0  0.26537  0.24887  0.05963  1.0000
  C   C1798     1.0  0.27247  0.35944  0.24008  1.0000
  H   H3156     1.0  0.35971  0.41060  0.13915  1.0000
  H   H3157     1.0  0.26389  0.31194  0.13386  1.0000
  H   H3158     1.0  0.28469  0.35270  0.21623  1.0000
  C   C1799     1.0  0.26442  0.46815  0.23947  1.0000
  H   H3159     1.0  0.36149  0.37458  0.11349  1.0000
  H   H3160     1.0  0.24239  0.33876  0.19366  1.0000
  C   C1800     1.0  0.44797  0.25207  0.24484  1.0000
  H   H3161     1.0  0.29249  0.29660  0.10656  1.0000
  N   N102      1.0  0.25336  0.38829  0.24280  1.0000
  H   H3162     1.0  0.42405  0.23836  0.23475  1.0000
  H   H3163     1.0  0.32527  0.28141  0.16690  1.0000
  C   C1801     1.0  0.33410  0.23538  0.22419  1.0000
  C   C1802     1.0  0.26796  0.37836  0.23263  1.0000
  C   C1803     1.0  0.34611  0.29078  0.15086  1.0000
  C   C1804     1.0  0.47995  0.30014  0.16754  1.0000
  H   H3164     1.0  0.33955  0.41003  0.16480  1.0000
  H   H3165     1.0  0.36358  0.35071  0.18895  1.0000
  H   H3166     1.0  0.25570  0.32577  0.45471  1.0000
  H   H3167     1.0  0.28997  0.25873  0.46467  1.0000
  C   C1805     1.0  0.47540  0.27591  0.19659  1.0000
  H   H3168     1.0  0.48169  0.30950  0.15624  1.0000
  C   C1806     1.0  0.32043  0.25022  0.17565  1.0000
  H   H3169     1.0  0.26200  0.35346  0.24191  1.0000
  C   C1807     1.0  0.39928  0.23339  0.13378  1.0000
  H   H3170     1.0  0.28730  0.23519  0.00942  1.0000
  H   H3171     1.0  0.27059  0.23696  0.09882  1.0000
  H   H3172     1.0  0.31661  0.39271  0.17402  1.0000
  N   N103      1.0  0.35139  0.38383  0.16791  1.0000
  H   H3173     1.0  0.33655  0.39288  0.14931  1.0000
  H   H3174     1.0  0.32260  0.34105  0.09133  1.0000
  H   H3175     1.0  0.34759  0.25932  0.15088  1.0000
  H   H3176     1.0  0.37264  0.37635  0.17926  1.0000
  H   H3177     1.0  0.25525  0.43324  0.20630  1.0000
  H   H3178     1.0  0.29493  0.25196  0.02980  1.0000
  H   H3179     1.0  0.34279  0.36990  0.12772  1.0000
  S   S417      1.0  0.25385  0.34565  0.07783  1.0000
  C   C1808     1.0  0.24970  0.25336  0.38414  1.0000
  H   H3180     1.0  0.32078  0.23280  0.20773  1.0000
  C   C1809     1.0  0.25592  0.43383  0.21881  1.0000
  H   H3181     1.0  0.35245  0.43495  0.15225  1.0000
  H   H3182     1.0  0.47371  0.26655  0.20790  1.0000
  H   H3183     1.0  0.26299  0.40929  0.10377  1.0000
  H   H3184     1.0  0.36651  0.36429  0.14154  1.0000
  C   C1810     1.0  0.38742  0.24031  0.22572  1.0000
  C   C1811     1.0  0.24907  0.40560  0.23251  1.0000
  C   C1812     1.0  0.38651  0.34378  0.17200  1.0000
  H   H3185     1.0  0.27526  0.46858  0.15503  1.0000
  C   C1813     1.0  0.27104  0.45792  0.13725  1.0000
  C   C1814     1.0  0.35927  0.37719  0.13843  1.0000
  C   C1815     1.0  0.40241  0.24436  0.22463  1.0000
  C   C1816     1.0  0.36877  0.35403  0.17542  1.0000
  C   C1817     1.0  0.33965  0.24733  0.19319  1.0000
  H   H3186     1.0  0.38647  0.33037  0.17682  1.0000
  H   H3187     1.0  0.26599  0.38002  0.21997  1.0000
  N   N104      1.0  0.33853  0.24707  0.17610  1.0000
  H   H3188     1.0  0.27248  0.45989  0.12367  1.0000
  H   H3189     1.0  0.34586  0.29504  0.08947  1.0000
  C   C1818     1.0  0.31494  0.31271  0.08660  1.0000
  H   H3190     1.0  0.26751  0.27047  0.44909  1.0000
  H   H3191     1.0  0.27612  0.24653  0.03108  1.0000
  H   H3192     1.0  0.27397  0.41083  0.22114  1.0000
  C   C1819     1.0  0.29270  0.44630  0.17981  1.0000
  H   H3193     1.0  0.37775  0.37508  0.15834  1.0000
  H   H3194     1.0  0.37689  0.40151  0.14947  1.0000
  H   H3195     1.0  0.31286  0.26044  0.18195  1.0000
  H   H3196     1.0  0.45884  0.29452  0.16272  1.0000
  C   C1820     1.0  0.25807  0.38847  0.25838  1.0000
  H   H3197     1.0  0.34040  0.23723  0.05450  1.0000
  H   H3198     1.0  0.25784  0.45794  0.14349  1.0000
  H   H3199     1.0  0.24552  0.41990  0.11700  1.0000
  H   H3200     1.0  0.24018  0.36883  0.25701  1.0000
  H   H3201     1.0  0.31528  0.23913  0.18283  1.0000
  C   C1821     1.0  0.24530  0.39986  0.26944  1.0000
  H   H3202     1.0  0.37334  0.23227  0.16381  1.0000
  H   H3203     1.0  0.25414  0.38760  0.29216  1.0000
  H   H3204     1.0  0.29022  0.47022  0.13564  1.0000
  H   H3205     1.0  0.24226  0.41284  0.26247  1.0000
  C   C1822     1.0  0.25225  0.45687  0.71870  1.0000
  C   C1823     1.0  0.40673  0.37808  0.73963  1.0000
  H   H3206     1.0  0.42401  0.33372  0.64001  1.0000
  C   C1824     1.0  0.27981  0.25398  0.79221  1.0000
  Fe  Fe213     1.0  0.32966  0.40508  0.70770  1.0000
  S   S418      1.0  0.30467  0.41948  0.71808  1.0000
  S   S419      1.0  0.34552  0.38916  0.72545  1.0000
  Fe  Fe214     1.0  0.32336  0.41384  0.67326  1.0000
  S   S420      1.0  0.29788  0.42880  0.68076  1.0000
  S   S421      1.0  0.33484  0.41069  0.64724  1.0000
  Fe  Fe215     1.0  0.30948  0.43912  0.69499  1.0000
  S   S422      1.0  0.30058  0.46682  0.69354  1.0000
  Fe  Fe216     1.0  0.29531  0.40808  0.70300  1.0000
  S   S423      1.0  0.27264  0.39712  0.71117  1.0000
  S   S424      1.0  0.33544  0.42563  0.68576  1.0000
  S   S425      1.0  0.31999  0.39209  0.69431  1.0000
  Fe  Fe217     1.0  0.42603  0.29103  0.68800  1.0000
  S   S426      1.0  0.42868  0.27586  0.71331  1.0000
  S   S427      1.0  0.43267  0.27937  0.66601  1.0000
  Fe  Fe218     1.0  0.41723  0.32363  0.69861  1.0000
  S   S428      1.0  0.41894  0.31156  0.72489  1.0000
  S   S429      1.0  0.41202  0.35079  0.68700  1.0000
  Fe  Fe219     1.0  0.44207  0.29479  0.71381  1.0000
  S   S430      1.0  0.46530  0.28633  0.72410  1.0000
  Fe  Fe220     1.0  0.40543  0.29377  0.72214  1.0000
  S   S431      1.0  0.38370  0.28703  0.74229  1.0000
  S   S432      1.0  0.44137  0.30836  0.68782  1.0000
  S   S433      1.0  0.40169  0.30745  0.69672  1.0000
  S   S434      1.0  0.29891  0.38176  0.60993  1.0000
  H   H3207     1.0  0.27426  0.44452  0.55457  1.0000
  H   H3208     1.0  0.24506  0.43388  0.75173  1.0000
  H   H3209     1.0  0.39669  0.35592  0.65862  1.0000
  C   C1825     1.0  0.33253  0.39801  0.62252  1.0000
  C   C1826     1.0  0.30814  0.38998  0.62088  1.0000
  H   H3210     1.0  0.30403  0.39413  0.77179  1.0000
  C   C1827     1.0  0.37921  0.26773  0.74417  1.0000
  C   C1828     1.0  0.36678  0.26224  0.75737  1.0000
  H   H3211     1.0  0.36060  0.26957  0.76663  1.0000
  C   C1829     1.0  0.24981  0.27724  0.56563  1.0000
  H   H3212     1.0  0.48430  0.30567  0.61296  1.0000
  H   H3213     1.0  0.46378  0.33241  0.66430  1.0000
  H   H3214     1.0  0.45678  0.36336  0.71549  1.0000
  H   H3215     1.0  0.37770  0.34051  0.68312  1.0000
  C   C1830     1.0  0.32622  0.46883  0.70594  1.0000
  C   C1831     1.0  0.42557  0.37182  0.73542  1.0000
  S   S435      1.0  0.37634  0.27334  0.63495  1.0000
  H   H3216     1.0  0.40692  0.24153  0.69265  1.0000
  H   H3217     1.0  0.33071  0.45567  0.70640  1.0000
  C   C1832     1.0  0.26654  0.39082  0.73272  1.0000
  H   H3218     1.0  0.24827  0.30198  0.47725  1.0000
  H   H3219     1.0  0.24714  0.24847  0.84607  1.0000
  C   C1833     1.0  0.36470  0.37923  0.71516  1.0000
  C   C1834     1.0  0.37140  0.38600  0.69872  1.0000
  C   C1835     1.0  0.38643  0.37753  0.69040  1.0000
  C   C1836     1.0  0.39426  0.36191  0.69820  1.0000
  C   C1837     1.0  0.38762  0.35517  0.71467  1.0000
  C   C1838     1.0  0.37306  0.36404  0.72328  1.0000
  H   H3220     1.0  0.36510  0.39782  0.69247  1.0000
  H   H3221     1.0  0.39173  0.38288  0.67776  1.0000
  H   H3222     1.0  0.39372  0.34319  0.72081  1.0000
  H   H3223     1.0  0.36804  0.35897  0.73609  1.0000
  C   C1839     1.0  0.32426  0.40254  0.63760  1.0000
  C   C1840     1.0  0.30783  0.40084  0.64436  1.0000
  C   C1841     1.0  0.29971  0.39473  0.63589  1.0000
  H   H3224     1.0  0.30130  0.40449  0.65593  1.0000
  H   H3225     1.0  0.28699  0.39376  0.64098  1.0000
  H   H3226     1.0  0.27389  0.29688  0.70935  1.0000
  C   C1842     1.0  0.42031  0.26697  0.64712  1.0000
  C   C1843     1.0  0.41663  0.27771  0.65791  1.0000
  C   C1844     1.0  0.40043  0.28708  0.66173  1.0000
  C   C1845     1.0  0.38812  0.28599  0.65441  1.0000
  H   H3227     1.0  0.26971  0.23595  0.56536  1.0000
  H   H3228     1.0  0.39747  0.29533  0.67007  1.0000
  H   H3229     1.0  0.37569  0.29335  0.65719  1.0000
  H   H3230     1.0  0.35533  0.31418  0.74936  1.0000
  H   H3231     1.0  0.35235  0.23588  0.59399  1.0000
  H   H3232     1.0  0.24872  0.41902  0.68760  1.0000
  H   H3233     1.0  0.45558  0.23992  0.65531  1.0000
  C   C1846     1.0  0.48204  0.28322  0.67005  1.0000
  C   C1847     1.0  0.31645  0.44695  0.61482  1.0000
  H   H3234     1.0  0.46602  0.28746  0.60247  1.0000
  C   C1848     1.0  0.24839  0.44452  0.62085  1.0000
  C   C1849     1.0  0.24972  0.45710  0.75425  1.0000
  H   H3235     1.0  0.32707  0.24088  0.58306  1.0000
  S   S436      1.0  0.28424  0.24957  0.76099  1.0000
  C   C1850     1.0  0.32478  0.26451  0.73461  1.0000
  H   H3236     1.0  0.47318  0.31311  0.69559  1.0000
  N   N105      1.0  0.30008  0.46851  0.63265  1.0000
  C   C1851     1.0  0.31675  0.45823  0.62604  1.0000
  C   C1852     1.0  0.25531  0.44879  0.70407  1.0000
  C   C1853     1.0  0.28853  0.45670  0.64114  1.0000
  H   H3237     1.0  0.24245  0.46001  0.55657  1.0000
  C   C1854     1.0  0.27130  0.46404  0.65115  1.0000
  C   C1855     1.0  0.25736  0.37846  0.73932  1.0000
  C   C1856     1.0  0.44649  0.34766  0.70676  1.0000
  C   C1857     1.0  0.24467  0.41523  0.67828  1.0000
  S   S437      1.0  0.25735  0.38516  0.64261  1.0000
  H   H3238     1.0  0.32236  0.44993  0.63650  1.0000
  H   H3239     1.0  0.32575  0.46613  0.61906  1.0000
  H   H3240     1.0  0.29845  0.46357  0.74119  1.0000
  H   H3241     1.0  0.30578  0.46656  0.65614  1.0000
  H   H3242     1.0  0.29462  0.44589  0.64955  1.0000
  H   H3243     1.0  0.28594  0.45140  0.63192  1.0000
  S   S438      1.0  0.24791  0.32977  0.78228  1.0000
  H   H3244     1.0  0.40027  0.35779  0.63704  1.0000
  C   C1858     1.0  0.26738  0.47545  0.73501  1.0000
  H   H3245     1.0  0.28914  0.25224  0.56474  1.0000
  H   H3246     1.0  0.27352  0.23305  0.60056  1.0000
  H   H3247     1.0  0.28824  0.35384  0.77936  1.0000
  Fe  Fe221     1.0  0.24028  0.38426  0.60552  1.0000
  S   S439      1.0  0.25446  0.37076  0.78841  1.0000
  C   C1859     1.0  0.45950  0.25058  0.76240  1.0000
  H   H3248     1.0  0.32370  0.26810  0.70822  1.0000
  H   H3249     1.0  0.24528  0.27568  0.48330  1.0000
  H   H3250     1.0  0.35397  0.33617  0.70585  1.0000
  C   C1860     1.0  0.24512  0.28046  0.58339  1.0000
  C   C1861     1.0  0.26060  0.45110  0.65825  1.0000
  H   H3251     1.0  0.27720  0.25829  0.81634  1.0000
  H   H3252     1.0  0.25250  0.32923  0.57578  1.0000
  H   H3253     1.0  0.26580  0.45885  0.60422  1.0000
  H   H3254     1.0  0.39091  0.40264  0.62070  1.0000
  H   H3255     1.0  0.25389  0.23292  0.96412  1.0000
  H   H3256     1.0  0.30949  0.26502  0.76694  1.0000
  C   C1862     1.0  0.31102  0.43865  0.74964  1.0000
  C   C1863     1.0  0.30531  0.35859  0.72973  1.0000
  C   C1864     1.0  0.37905  0.39018  0.64506  1.0000
  C   C1865     1.0  0.27500  0.23408  0.72935  1.0000
  C   C1866     1.0  0.31182  0.47728  0.70008  1.0000
  H   H3257     1.0  0.27083  0.39677  0.76869  1.0000
  C   C1867     1.0  0.32234  0.28468  0.75123  1.0000
  H   H3258     1.0  0.47726  0.26998  0.69565  1.0000
  H   H3259     1.0  0.26358  0.25664  0.54462  1.0000
  Fe  Fe222     1.0  0.23978  0.35105  0.79504  1.0000
  H   H3260     1.0  0.33878  0.45138  0.59621  1.0000
  C   C1868     1.0  0.27122  0.39754  0.74334  1.0000
  H   H3261     1.0  0.33115  0.38802  0.60272  1.0000
  H   H3262     1.0  0.25012  0.24164  0.51321  1.0000
  H   H3263     1.0  0.37908  0.25313  0.67423  1.0000
  H   H3264     1.0  0.25989  0.29544  0.68082  1.0000
  H   H3265     1.0  0.32532  0.32358  0.76229  1.0000
  C   C1869     1.0  0.40790  0.26546  0.64029  1.0000
  H   H3266     1.0  0.26813  0.43632  0.73185  1.0000
  C   C1870     1.0  0.27071  0.43720  0.56733  1.0000
  Fe  Fe223     1.0  0.38273  0.24781  0.62938  1.0000
  C   C1871     1.0  0.24199  0.23949  0.85707  1.0000
  H   H3267     1.0  0.25507  0.43309  0.61699  1.0000
  Fe  Fe224     1.0  0.27125  0.38374  0.61685  1.0000
  H   H3268     1.0  0.26643  0.45195  0.69469  1.0000
  H   H3269     1.0  0.45593  0.26177  0.75289  1.0000
  H   H3270     1.0  0.25116  0.29009  0.58398  1.0000
  H   H3271     1.0  0.25398  0.38925  0.68669  1.0000
  H   H3272     1.0  0.25401  0.37305  0.73113  1.0000
  H   H3273     1.0  0.33470  0.25776  0.74161  1.0000
  C   C1872     1.0  0.45072  0.32627  0.74128  1.0000
  C   C1873     1.0  0.24616  0.47388  0.61900  1.0000
  S   S440      1.0  0.26013  0.36358  0.61513  1.0000
  H   H3274     1.0  0.26347  0.28528  0.50276  1.0000
  H   H3275     1.0  0.43280  0.25975  0.64403  1.0000
  C   C1874     1.0  0.44532  0.31835  0.75990  1.0000
  C   C1875     1.0  0.44853  0.29946  0.76275  1.0000
  C   C1876     1.0  0.27765  0.29720  0.72059  1.0000
  H   H3276     1.0  0.42972  0.37584  0.72184  1.0000
  H   H3277     1.0  0.42577  0.35004  0.75500  1.0000
  H   H3278     1.0  0.42298  0.34695  0.73660  1.0000
  H   H3279     1.0  0.44353  0.32244  0.73461  1.0000
  H   H3280     1.0  0.46379  0.32020  0.73684  1.0000
  C   C1877     1.0  0.29527  0.23882  0.85330  1.0000
  C   C1878     1.0  0.24576  0.43959  0.76154  1.0000
  N   N106      1.0  0.44864  0.34487  0.73695  1.0000
  H   H3281     1.0  0.28407  0.32901  0.77276  1.0000
  C   C1879     1.0  0.47907  0.28331  0.65306  1.0000
  H   H3282     1.0  0.33324  0.43213  0.59776  1.0000
  H   H3283     1.0  0.30825  0.45350  0.60600  1.0000
  H   H3284     1.0  0.38955  0.23558  0.72488  1.0000
  H   H3285     1.0  0.45227  0.32120  0.76749  1.0000
  H   H3286     1.0  0.43185  0.32287  0.76453  1.0000
  H   H3287     1.0  0.24964  0.23357  0.49067  1.0000
  H   H3288     1.0  0.44450  0.29408  0.77612  1.0000
  H   H3289     1.0  0.44145  0.29586  0.75577  1.0000
  H   H3290     1.0  0.28315  0.23379  0.83726  1.0000
  H   H3291     1.0  0.35353  0.27575  0.72581  1.0000
  H   H3292     1.0  0.27189  0.25108  0.84675  1.0000
  H   H3293     1.0  0.30041  0.44972  0.72827  1.0000
  N   N107      1.0  0.30200  0.32470  0.64844  1.0000
  C   C1880     1.0  0.31435  0.31390  0.65866  1.0000
  C   C1881     1.0  0.28865  0.31554  0.65026  1.0000
  C   C1882     1.0  0.31114  0.32722  0.63049  1.0000
  C   C1883     1.0  0.29440  0.34153  0.65283  1.0000
  C   C1884     1.0  0.29236  0.34253  0.67107  1.0000
  C   C1885     1.0  0.33060  0.32000  0.65552  1.0000
  C   C1886     1.0  0.30027  0.33631  0.61762  1.0000
  C   C1887     1.0  0.27912  0.30933  0.66805  1.0000
  C   C1888     1.0  0.24377  0.34072  0.57248  1.0000
  C   C1889     1.0  0.28159  0.35918  0.67447  1.0000
  C   C1890     1.0  0.33976  0.31161  0.66956  1.0000
  C   C1891     1.0  0.31095  0.34042  0.60022  1.0000
  H   H3294     1.0  0.31810  0.30111  0.65624  1.0000
  H   H3295     1.0  0.30868  0.31222  0.67207  1.0000
  H   H3296     1.0  0.27892  0.32358  0.64349  1.0000
  H   H3297     1.0  0.29408  0.30455  0.64445  1.0000
  H   H3298     1.0  0.31808  0.31505  0.62727  1.0000
  H   H3299     1.0  0.32061  0.33466  0.62824  1.0000
  H   H3300     1.0  0.30185  0.35086  0.64512  1.0000
  H   H3301     1.0  0.28199  0.34658  0.64956  1.0000
  H   H3302     1.0  0.30463  0.34131  0.67370  1.0000
  H   H3303     1.0  0.28661  0.33265  0.68007  1.0000
  H   H3304     1.0  0.33907  0.31683  0.64393  1.0000
  H   H3305     1.0  0.32810  0.33365  0.65412  1.0000
  H   H3306     1.0  0.29245  0.34808  0.62080  1.0000
  H   H3307     1.0  0.29214  0.32848  0.61714  1.0000
  H   H3308     1.0  0.28757  0.30110  0.67607  1.0000
  H   H3309     1.0  0.27174  0.32000  0.67360  1.0000
  C   C1892     1.0  0.26387  0.27545  0.77427  1.0000
  H   H3310     1.0  0.29235  0.24356  0.86478  1.0000
  H   H3311     1.0  0.46132  0.24705  0.67025  1.0000
  H   H3312     1.0  0.28719  0.36959  0.66620  1.0000
  H   H3313     1.0  0.26895  0.36079  0.67249  1.0000
  H   H3314     1.0  0.28044  0.35968  0.68750  1.0000
  H   H3315     1.0  0.35166  0.31564  0.66658  1.0000
  H   H3316     1.0  0.33218  0.31509  0.68132  1.0000
  H   H3317     1.0  0.34260  0.29789  0.67115  1.0000
  H   H3318     1.0  0.31903  0.34872  0.59977  1.0000
  H   H3319     1.0  0.31878  0.32890  0.59631  1.0000
  H   H3320     1.0  0.30278  0.34699  0.59134  1.0000
  H   H3321     1.0  0.24857  0.29603  0.78486  1.0000
  C   C1893     1.0  0.27333  0.26298  0.80471  1.0000
  H   H3322     1.0  0.44692  0.35343  0.68053  1.0000
  C   C1894     1.0  0.39184  0.27511  0.64372  1.0000
  H   H3323     1.0  0.39694  0.26223  0.72216  1.0000
  H   H3324     1.0  0.47572  0.29517  0.67377  1.0000
  C   C1895     1.0  0.27523  0.26030  0.77692  1.0000
  H   H3325     1.0  0.30200  0.24723  0.84302  1.0000
  H   H3326     1.0  0.33247  0.33708  0.76946  1.0000
  C   C1896     1.0  0.31742  0.38818  0.76859  1.0000
  H   H3327     1.0  0.27860  0.47627  0.72479  1.0000
  C   C1897     1.0  0.24169  0.35395  0.58010  1.0000
  H   H3328     1.0  0.27840  0.45147  0.71820  1.0000
  H   H3329     1.0  0.26586  0.26374  0.51317  1.0000
  H   H3330     1.0  0.46709  0.34909  0.68521  1.0000
  H   H3331     1.0  0.34609  0.47089  0.71556  1.0000
  H   H3332     1.0  0.28307  0.27384  0.50799  1.0000
  H   H3333     1.0  0.29220  0.32069  0.80715  1.0000
  C   C1898     1.0  0.35648  0.32733  0.74476  1.0000
  H   H3334     1.0  0.25770  0.30717  0.66043  1.0000
  Fe  Fe225     1.0  0.23980  0.31457  0.80764  1.0000
  H   H3335     1.0  0.36707  0.33807  0.64976  1.0000
  H   H3336     1.0  0.48410  0.27039  0.65110  1.0000
  H   H3337     1.0  0.36609  0.36391  0.61714  1.0000
  C   C1899     1.0  0.36234  0.24728  0.75870  1.0000
  H   H3338     1.0  0.24890  0.26896  0.59248  1.0000
  H   H3339     1.0  0.28350  0.26113  0.53792  1.0000
  C   C1900     1.0  0.37039  0.23764  0.74690  1.0000
  H   H3340     1.0  0.31905  0.28754  0.78352  1.0000
  H   H3341     1.0  0.30408  0.33430  0.74615  1.0000
  C   C1901     1.0  0.32676  0.33658  0.75952  1.0000
  H   H3342     1.0  0.39120  0.38445  0.64856  1.0000
  H   H3343     1.0  0.31889  0.37072  0.74536  1.0000
  C   C1902     1.0  0.26781  0.24161  0.57602  1.0000
  H   H3344     1.0  0.27888  0.31187  0.80077  1.0000
  H   H3345     1.0  0.27346  0.28818  0.66294  1.0000
  C   C1903     1.0  0.29936  0.34366  0.77708  1.0000
  H   H3346     1.0  0.45270  0.36873  0.68713  1.0000
  H   H3347     1.0  0.31165  0.43588  0.62257  1.0000
  C   C1904     1.0  0.48057  0.29830  0.71805  1.0000
  H   H3348     1.0  0.37258  0.29204  0.70565  1.0000
  C   C1905     1.0  0.45578  0.35014  0.71871  1.0000
  H   H3349     1.0  0.24726  0.24841  0.77208  1.0000
  C   C1906     1.0  0.38737  0.25807  0.73241  1.0000
  C   C1907     1.0  0.30180  0.47641  0.64557  1.0000
  H   H3350     1.0  0.32949  0.26633  0.78229  1.0000
  H   H3351     1.0  0.30310  0.31673  0.77828  1.0000
  H   H3352     1.0  0.30847  0.27081  0.79394  1.0000
  H   H3353     1.0  0.33315  0.36397  0.76781  1.0000
  H   H3354     1.0  0.35051  0.29564  0.73035  1.0000
  C   C1908     1.0  0.27938  0.23819  0.84898  1.0000
  H   H3355     1.0  0.32385  0.39030  0.77713  1.0000
  C   C1909     1.0  0.35943  0.29493  0.70460  1.0000
  H   H3356     1.0  0.28080  0.43520  0.57390  1.0000
  C   C1910     1.0  0.37590  0.24783  0.68772  1.0000
  H   H3357     1.0  0.41089  0.25703  0.63207  1.0000
  H   H3358     1.0  0.25674  0.45827  0.57761  1.0000
  Fe  Fe226     1.0  0.24482  0.36660  0.64024  1.0000
  H   H3359     1.0  0.30898  0.43985  0.76261  1.0000
  C   C1911     1.0  0.46314  0.32073  0.64511  1.0000
  H   H3360     1.0  0.24671  0.36515  0.70826  1.0000
  H   H3361     1.0  0.28779  0.35125  0.75156  1.0000
  C   C1912     1.0  0.32460  0.39154  0.61435  1.0000
  H   H3362     1.0  0.45020  0.24277  0.76562  1.0000
  C   C1913     1.0  0.45965  0.33598  0.65242  1.0000
  H   H3363     1.0  0.46360  0.24786  0.61025  1.0000
  C   C1914     1.0  0.45382  0.35519  0.68883  1.0000
  C   C1915     1.0  0.36575  0.33846  0.61969  1.0000
  H   H3364     1.0  0.28082  0.43417  0.75234  1.0000
  H   H3365     1.0  0.29717  0.27564  0.71935  1.0000
  H   H3366     1.0  0.24613  0.36295  0.76149  1.0000
  H   H3367     1.0  0.46618  0.29980  0.62642  1.0000
  H   H3368     1.0  0.46548  0.28533  0.65421  1.0000
  H   H3369     1.0  0.23936  0.24558  0.86765  1.0000
  H   H3370     1.0  0.30617  0.34189  0.78692  1.0000
  H   H3371     1.0  0.45868  0.32484  0.63337  1.0000
  H   H3372     1.0  0.45571  0.31197  0.65374  1.0000
  C   C1916     1.0  0.25451  0.44643  0.57670  1.0000
  C   C1917     1.0  0.38304  0.24303  0.73387  1.0000
  H   H3373     1.0  0.27548  0.31032  0.72142  1.0000
  H   H3374     1.0  0.33631  0.23976  0.70515  1.0000
  C   C1918     1.0  0.31080  0.27734  0.76733  1.0000
  C   C1919     1.0  0.30154  0.34741  0.74734  1.0000
  H   H3375     1.0  0.45926  0.25467  0.77364  1.0000
  H   H3376     1.0  0.47946  0.24988  0.57007  1.0000
  H   H3377     1.0  0.37992  0.37767  0.62626  1.0000
  H   H3378     1.0  0.45739  0.36386  0.74206  1.0000
  H   H3379     1.0  0.25329  0.33602  0.69303  1.0000
  C   C1920     1.0  0.25888  0.23310  0.74247  1.0000
  H   H3380     1.0  0.24468  0.28903  0.55754  1.0000
  H   H3381     1.0  0.28837  0.24218  0.79447  1.0000
  H   H3382     1.0  0.34509  0.39962  0.61702  1.0000
  N   N108      1.0  0.26810  0.27160  0.55877  1.0000
  C   C1921     1.0  0.27023  0.26669  0.54267  1.0000
  H   H3383     1.0  0.40177  0.37477  0.75319  1.0000
  H   H3384     1.0  0.27243  0.46806  0.66191  1.0000
  C   C1922     1.0  0.27649  0.28570  0.55628  1.0000
  C   C1923     1.0  0.29464  0.28361  0.54604  1.0000
  C   C1924     1.0  0.26352  0.28072  0.52880  1.0000
  H   H3385     1.0  0.25951  0.44578  0.64835  1.0000
  C   C1925     1.0  0.27596  0.25685  0.57051  1.0000
  C   C1926     1.0  0.25454  0.45907  0.61377  1.0000
  C   C1927     1.0  0.30207  0.29810  0.54534  1.0000
  C   C1928     1.0  0.26938  0.27553  0.51218  1.0000
  H   H3386     1.0  0.25447  0.41585  0.66671  1.0000
  C   C1929     1.0  0.24191  0.39753  0.68458  1.0000
  H   H3387     1.0  0.25158  0.43880  0.58931  1.0000
  N   N109      1.0  0.26598  0.45760  0.74188  1.0000
  C   C1930     1.0  0.25734  0.28439  0.78686  1.0000
  C   C1931     1.0  0.47531  0.26946  0.68360  1.0000
  H   H3388     1.0  0.26919  0.29770  0.55040  1.0000
  H   H3389     1.0  0.27676  0.28762  0.56845  1.0000
  H   H3390     1.0  0.29520  0.28330  0.53310  1.0000
  H   H3391     1.0  0.26609  0.44091  0.66761  1.0000
  H   H3392     1.0  0.24973  0.28352  0.53184  1.0000
  H   H3393     1.0  0.26762  0.29233  0.52716  1.0000
  S   S441      1.0  0.25436  0.28949  0.81762  1.0000
  S   S442      1.0  0.25293  0.40433  0.60471  1.0000
  H   H3394     1.0  0.35972  0.38345  0.63834  1.0000
  H   H3395     1.0  0.35199  0.34062  0.62297  1.0000
  H   H3396     1.0  0.37113  0.32579  0.62616  1.0000
  N   N110      1.0  0.37429  0.36043  0.64967  1.0000
  H   H3397     1.0  0.37011  0.36938  0.67200  1.0000
  H   H3398     1.0  0.29464  0.31004  0.53958  1.0000
  H   H3399     1.0  0.30246  0.29863  0.55797  1.0000
  H   H3400     1.0  0.31496  0.29643  0.53778  1.0000
  N   N111      1.0  0.31978  0.28274  0.73523  1.0000
  C   C1932     1.0  0.30161  0.28953  0.73498  1.0000
  H   H3401     1.0  0.24950  0.46214  0.76494  1.0000
  H   H3402     1.0  0.29900  0.37447  0.75838  1.0000
  C   C1933     1.0  0.26699  0.39171  0.76050  1.0000
  H   H3403     1.0  0.24794  0.45697  0.66428  1.0000
  H   H3404     1.0  0.36193  0.33567  0.67616  1.0000
  C   C1934     1.0  0.36575  0.35123  0.64308  1.0000
  H   H3405     1.0  0.29375  0.28251  0.74563  1.0000
  H   H3406     1.0  0.32278  0.39417  0.75578  1.0000
  H   H3407     1.0  0.29933  0.37175  0.73017  1.0000
  H   H3408     1.0  0.43115  0.37805  0.74155  1.0000
  H   H3409     1.0  0.25626  0.33491  0.71333  1.0000
  H   H3410     1.0  0.35548  0.30851  0.70004  1.0000
  H   H3411     1.0  0.31403  0.36450  0.78327  1.0000
  H   H3412     1.0  0.39079  0.32687  0.66261  1.0000
  H   H3413     1.0  0.46181  0.27104  0.68464  1.0000
  C   C1935     1.0  0.29289  0.32752  0.78061  1.0000
  H   H3414     1.0  0.32336  0.44131  0.74279  1.0000
  C   C1936     1.0  0.37153  0.35161  0.62426  1.0000
  H   H3415     1.0  0.42013  0.31390  0.65199  1.0000
  H   H3416     1.0  0.26468  0.47475  0.64308  1.0000
  H   H3417     1.0  0.26973  0.29063  0.73158  1.0000
  H   H3418     1.0  0.27306  0.33350  0.80166  1.0000
  H   H3419     1.0  0.32510  0.30658  0.72142  1.0000
  H   H3420     1.0  0.33555  0.33498  0.73359  1.0000
  H   H3421     1.0  0.38524  0.34955  0.62020  1.0000
  H   H3422     1.0  0.36920  0.41192  0.62747  1.0000
  C   C1937     1.0  0.26684  0.29942  0.66798  1.0000
  C   C1938     1.0  0.25312  0.37259  0.75649  1.0000
  H   H3423     1.0  0.36991  0.39427  0.65592  1.0000
  N   N112      1.0  0.31009  0.34849  0.76009  1.0000
  H   H3424     1.0  0.30267  0.27201  0.55153  1.0000
  H   H3425     1.0  0.27501  0.25972  0.48390  1.0000
  H   H3426     1.0  0.33987  0.35182  0.69446  1.0000
  H   H3427     1.0  0.29788  0.30263  0.73649  1.0000
  C   C1939     1.0  0.43040  0.35268  0.74134  1.0000
  H   H3428     1.0  0.25492  0.24452  0.74736  1.0000
  C   C1940     1.0  0.28001  0.44773  0.75039  1.0000
  H   H3429     1.0  0.35209  0.35650  0.64543  1.0000
  C   C1941     1.0  0.29841  0.35382  0.71753  1.0000
  C   C1942     1.0  0.48152  0.31092  0.70371  1.0000
  S   S443      1.0  0.24387  0.34450  0.66143  1.0000
  C   C1943     1.0  0.31154  0.36616  0.75781  1.0000
  H   H3430     1.0  0.44610  0.34145  0.65489  1.0000
  H   H3431     1.0  0.45153  0.34872  0.75979  1.0000
  C   C1944     1.0  0.41632  0.32745  0.65138  1.0000
  H   H3432     1.0  0.36163  0.33079  0.75352  1.0000
  H   H3433     1.0  0.36536  0.32842  0.73258  1.0000
  C   C1945     1.0  0.31963  0.36954  0.77025  1.0000
  C   C1946     1.0  0.38106  0.40578  0.63153  1.0000
  H   H3434     1.0  0.34237  0.43408  0.61344  1.0000
  C   C1947     1.0  0.39249  0.35259  0.64905  1.0000
  C   C1948     1.0  0.36517  0.34527  0.68024  1.0000
  H   H3435     1.0  0.38463  0.41469  0.63641  1.0000
  H   H3436     1.0  0.33531  0.27876  0.75255  1.0000
  H   H3437     1.0  0.26942  0.42486  0.56674  1.0000
  C   C1949     1.0  0.37285  0.37786  0.63919  1.0000
  C   C1950     1.0  0.33003  0.29316  0.72125  1.0000
  H   H3438     1.0  0.39606  0.32953  0.64060  1.0000
  C   C1951     1.0  0.35279  0.34793  0.69637  1.0000
  C   C1952     1.0  0.28372  0.32319  0.79865  1.0000
  C   C1953     1.0  0.33382  0.44080  0.60496  1.0000
  H   H3439     1.0  0.27760  0.44991  0.76309  1.0000
  H   H3440     1.0  0.30468  0.34102  0.71592  1.0000
  C   C1954     1.0  0.26692  0.44997  0.72772  1.0000
  C   C1955     1.0  0.31742  0.27544  0.78266  1.0000
  H   H3441     1.0  0.34130  0.35164  0.73841  1.0000
  H   H3442     1.0  0.30055  0.36254  0.70532  1.0000
  H   H3443     1.0  0.30317  0.29506  0.70799  1.0000
  H   H3444     1.0  0.28482  0.35467  0.72196  1.0000
  H   H3445     1.0  0.31116  0.42571  0.74954  1.0000
  H   H3446     1.0  0.35177  0.36837  0.66707  1.0000
  H   H3447     1.0  0.31245  0.48013  0.59664  1.0000
  H   H3448     1.0  0.41877  0.32988  0.66239  1.0000
  C   C1956     1.0  0.39788  0.33344  0.65109  1.0000
  H   H3449     1.0  0.32075  0.29805  0.75111  1.0000
  C   C1957     1.0  0.29755  0.45090  0.74127  1.0000
  H   H3450     1.0  0.31868  0.35808  0.72459  1.0000
  H   H3451     1.0  0.36991  0.33918  0.60614  1.0000
  S   S444      1.0  0.40409  0.23688  0.61064  1.0000
  C   C1958     1.0  0.48195  0.31268  0.64171  1.0000
  H   H3452     1.0  0.35533  0.35756  0.70108  1.0000
  H   H3453     1.0  0.37703  0.25650  0.69463  1.0000
  C   C1959     1.0  0.24007  0.45001  0.56781  1.0000
  C   C1960     1.0  0.26214  0.27821  0.80203  1.0000
  H   H3454     1.0  0.28553  0.47597  0.61386  1.0000
  H   H3455     1.0  0.44757  0.33426  0.70773  1.0000
  N   N113      1.0  0.48651  0.29544  0.63841  1.0000
  H   H3456     1.0  0.27648  0.26051  0.58176  1.0000
  H   H3457     1.0  0.34416  0.26234  0.71194  1.0000
  C   C1961     1.0  0.45780  0.35032  0.74645  1.0000
  H   H3458     1.0  0.40063  0.37267  0.73318  1.0000
  H   H3459     1.0  0.32901  0.29215  0.70904  1.0000
  C   C1962     1.0  0.29597  0.28877  0.71967  1.0000
  H   H3460     1.0  0.31932  0.23958  0.72287  1.0000
  H   H3461     1.0  0.40356  0.39180  0.73548  1.0000
  C   C1963     1.0  0.47947  0.28189  0.60160  1.0000
  H   H3462     1.0  0.25713  0.43508  0.70823  1.0000
  C   C1964     1.0  0.33135  0.26034  0.71713  1.0000
  H   H3463     1.0  0.24137  0.43871  0.56319  1.0000
  C   C1965     1.0  0.36494  0.36173  0.66708  1.0000
  H   H3464     1.0  0.48686  0.29004  0.59174  1.0000
  C   C1966     1.0  0.25818  0.37904  0.76708  1.0000
  H   H3465     1.0  0.43313  0.35368  0.70933  1.0000
  H   H3466     1.0  0.46876  0.34311  0.71545  1.0000
  C   C1967     1.0  0.33960  0.33869  0.74295  1.0000
  H   H3467     1.0  0.26011  0.28028  0.76255  1.0000
  H   H3468     1.0  0.25540  0.43117  0.76812  1.0000
  H   H3469     1.0  0.35871  0.28823  0.69557  1.0000
  H   H3470     1.0  0.29826  0.28568  0.76891  1.0000
  H   H3471     1.0  0.27814  0.40713  0.73840  1.0000
  H   H3472     1.0  0.27400  0.47749  0.75755  1.0000
  H   H3473     1.0  0.31422  0.25838  0.74119  1.0000
  H   H3474     1.0  0.24102  0.36690  0.68951  1.0000
  C   C1968     1.0  0.34874  0.28923  0.72158  1.0000
  H   H3475     1.0  0.27317  0.24590  0.72001  1.0000
  C   C1969     1.0  0.47998  0.29599  0.62368  1.0000
  H   H3476     1.0  0.25431  0.24495  0.58123  1.0000
  H   H3477     1.0  0.46197  0.29414  0.75875  1.0000
  C   C1970     1.0  0.33191  0.24226  0.71780  1.0000
  H   H3478     1.0  0.46621  0.34552  0.64370  1.0000
  C   C1971     1.0  0.29266  0.48142  0.61920  1.0000
  H   H3479     1.0  0.24278  0.26825  0.56534  1.0000
  H   H3480     1.0  0.36283  0.24654  0.69093  1.0000
  H   H3481     1.0  0.28528  0.23369  0.73501  1.0000
  C   C1972     1.0  0.48402  0.27932  0.61822  1.0000
  H   H3482     1.0  0.24446  0.45350  0.69813  1.0000
  H   H3483     1.0  0.25060  0.47042  0.71368  1.0000
  H   H3484     1.0  0.24892  0.24332  0.80195  1.0000
  H   H3485     1.0  0.43942  0.23460  0.61804  1.0000
  C   C1973     1.0  0.33491  0.47747  0.71113  1.0000
  H   H3486     1.0  0.35292  0.24307  0.76904  1.0000
  H   H3487     1.0  0.24046  0.45432  0.72716  1.0000
  H   H3488     1.0  0.48583  0.24867  0.75406  1.0000
  C   C1974     1.0  0.47786  0.23503  0.74024  1.0000
  C   C1975     1.0  0.24733  0.33447  0.70637  1.0000
  C   C1976     1.0  0.47644  0.34158  0.74525  1.0000
  H   H3489     1.0  0.47669  0.27070  0.62750  1.0000
  C   C1977     1.0  0.24500  0.24083  0.52624  1.0000
  H   H3490     1.0  0.24394  0.32216  0.71087  1.0000
  H   H3491     1.0  0.24879  0.35259  0.58917  1.0000
  C   C1978     1.0  0.46387  0.23607  0.61900  1.0000
  H   H3492     1.0  0.43163  0.24603  0.67801  1.0000
  H   H3493     1.0  0.26560  0.23288  0.87391  1.0000
  H   H3494     1.0  0.48216  0.26974  0.59812  1.0000
  H   H3495     1.0  0.48193  0.25710  0.68092  1.0000
  H   H3496     1.0  0.34062  0.23389  0.72552  1.0000
  H   H3497     1.0  0.47826  0.34608  0.76836  1.0000
  H   H3498     1.0  0.48724  0.31288  0.65207  1.0000
  C   C1979     1.0  0.47689  0.24076  0.75616  1.0000
  H   H3499     1.0  0.40767  0.23780  0.67315  1.0000
  H   H3500     1.0  0.47281  0.24621  0.73132  1.0000
  C   C1980     1.0  0.45725  0.23670  0.66824  1.0000
  H   H3501     1.0  0.23922  0.46546  0.74878  1.0000
  C   C1981     1.0  0.44089  0.23434  0.68041  1.0000
  S   S445      1.0  0.36433  0.23559  0.62573  1.0000
  C   C1982     1.0  0.48449  0.34830  0.75504  1.0000
  H   H3502     1.0  0.48355  0.34361  0.73225  1.0000
  H   H3503     1.0  0.47802  0.32801  0.75032  1.0000
  H   H3504     1.0  0.48389  0.36180  0.75012  1.0000
  H   H3505     1.0  0.44268  0.23232  0.69314  1.0000
  H   H3506     1.0  0.24944  0.23297  0.73594  1.0000
  H   H3507     1.0  0.48775  0.32138  0.63095  1.0000
  C   C1983     1.0  0.33817  0.23230  0.57853  1.0000
  C   C1984     1.0  0.40570  0.23208  0.68668  1.0000
  H   H3508     1.0  0.29066  0.64427  0.37519  1.0000
  H   H3509     1.0  0.48015  0.60023  0.26907  1.0000
  C   C1985     1.0  0.34477  0.67017  0.47065  1.0000
  Fe  Fe227     1.0  0.31050  0.50291  0.20801  1.0000
  H   H3510     1.0  0.25069  0.69832  0.45702  1.0000
  Fe  Fe228     1.0  0.28968  0.52607  0.18469  1.0000
  S   S446      1.0  0.31085  0.52545  0.16259  1.0000
  S   S447      1.0  0.26248  0.53688  0.18713  1.0000
  Fe  Fe229     1.0  0.31669  0.49778  0.17303  1.0000
  Fe  Fe230     1.0  0.32570  0.52771  0.17956  1.0000
  S   S448      1.0  0.34425  0.54457  0.17131  1.0000
  S   S449      1.0  0.29444  0.49854  0.19395  1.0000
  S   S450      1.0  0.30380  0.53061  0.20078  1.0000
  Fe  Fe231     1.0  0.37861  0.59771  0.21202  1.0000
  S   S451      1.0  0.39830  0.60144  0.18864  1.0000
  S   S452      1.0  0.35914  0.58204  0.21839  1.0000
  Fe  Fe232     1.0  0.38681  0.62364  0.22544  1.0000
  S   S453      1.0  0.40601  0.62996  0.20261  1.0000
  S   S454      1.0  0.38075  0.63585  0.24721  1.0000
  Fe  Fe233     1.0  0.38840  0.62853  0.18858  1.0000
  S   S455      1.0  0.38547  0.64817  0.16547  1.0000
  Fe  Fe234     1.0  0.41440  0.60250  0.20500  1.0000
  S   S456      1.0  0.36803  0.62499  0.21122  1.0000
  S   S457      1.0  0.39569  0.59603  0.22852  1.0000
  S   S458      1.0  0.43816  0.68391  0.29066  1.0000
  S   S459      1.0  0.39877  0.69566  0.28849  1.0000
  Fe  Fe235     1.0  0.41360  0.69124  0.30758  1.0000
  S   S460      1.0  0.40890  0.67310  0.33186  1.0000
  Fe  Fe236     1.0  0.42346  0.69076  0.27111  1.0000
  S   S461      1.0  0.43066  0.67610  0.25130  1.0000
  S   S462      1.0  0.32649  0.71162  0.38669  1.0000
  S   S463      1.0  0.32782  0.70068  0.42626  1.0000
  Fe  Fe237     1.0  0.34391  0.71069  0.40218  1.0000
  S   S464      1.0  0.37063  0.69721  0.39774  1.0000
  Fe  Fe238     1.0  0.30950  0.70388  0.41092  1.0000
  S   S465      1.0  0.29586  0.68346  0.41644  1.0000
  H   H3511     1.0  0.28409  0.69992  0.07538  1.0000
  H   H3512     1.0  0.26494  0.49369  0.23785  1.0000
  H   H3513     1.0  0.26997  0.70848  0.46390  1.0000
  H   H3514     1.0  0.42311  0.60128  0.15371  1.0000
  C   C1986     1.0  0.26664  0.57271  0.20736  1.0000
  C   C1987     1.0  0.47857  0.68492  0.21357  1.0000
  C   C1988     1.0  0.29384  0.52030  0.12902  1.0000
  S   S466      1.0  0.27754  0.62600  0.10055  1.0000
  H   H3515     1.0  0.25726  0.49089  0.22209  1.0000
  S   S467      1.0  0.33355  0.49995  0.18794  1.0000
  H   H3516     1.0  0.30902  0.68599  0.05733  1.0000
  Fe  Fe239     1.0  0.30037  0.68926  0.14461  1.0000
  S   S468      1.0  0.27249  0.69644  0.15033  1.0000
  S   S469      1.0  0.31086  0.66436  0.15929  1.0000
  Fe  Fe240     1.0  0.27593  0.70402  0.12278  1.0000
  S   S470      1.0  0.25996  0.69966  0.10862  1.0000
  S   S471      1.0  0.30358  0.69536  0.11698  1.0000
  C   C1989     1.0  0.27532  0.64696  0.10027  1.0000
  C   C1990     1.0  0.28316  0.65149  0.11007  1.0000
  C   C1991     1.0  0.27879  0.66784  0.11239  1.0000
  C   C1992     1.0  0.26665  0.67960  0.10483  1.0000
  C   C1993     1.0  0.35016  0.50802  0.22029  1.0000
  C   C1994     1.0  0.26387  0.65897  0.09204  1.0000
  H   H3517     1.0  0.29193  0.64218  0.11651  1.0000
  H   H3518     1.0  0.28427  0.67110  0.12060  1.0000
  H   H3519     1.0  0.25856  0.66782  0.46656  1.0000
  H   H3520     1.0  0.37327  0.70494  0.09707  1.0000
  H   H3521     1.0  0.31135  0.68214  0.07830  1.0000
  H   H3522     1.0  0.48551  0.62431  0.14305  1.0000
  H   H3523     1.0  0.31111  0.65078  0.12774  1.0000
  C   C1995     1.0  0.39665  0.68008  0.34965  1.0000
  C   C1996     1.0  0.38604  0.69584  0.34896  1.0000
  C   C1997     1.0  0.37709  0.70100  0.36375  1.0000
  C   C1998     1.0  0.37895  0.69043  0.37910  1.0000
  H   H3524     1.0  0.38492  0.70408  0.33710  1.0000
  H   H3525     1.0  0.36927  0.71333  0.36330  1.0000
  C   C1999     1.0  0.39445  0.64735  0.24815  1.0000
  C   C2000     1.0  0.39144  0.65427  0.26196  1.0000
  C   C2001     1.0  0.40226  0.66344  0.26297  1.0000
  C   C2002     1.0  0.41620  0.66563  0.25020  1.0000
  C   C2003     1.0  0.41921  0.65868  0.23648  1.0000
  C   C2004     1.0  0.40835  0.64965  0.23542  1.0000
  H   H3526     1.0  0.38073  0.65251  0.27190  1.0000
  H   H3527     1.0  0.39995  0.66856  0.27372  1.0000
  H   H3528     1.0  0.42998  0.66037  0.22664  1.0000
  H   H3529     1.0  0.41088  0.64434  0.22484  1.0000
  C   C2005     1.0  0.36508  0.65222  0.16283  1.0000
  C   C2006     1.0  0.35925  0.66616  0.15129  1.0000
  C   C2007     1.0  0.34255  0.67014  0.15000  1.0000
  C   C2008     1.0  0.33179  0.65999  0.16023  1.0000
  C   C2009     1.0  0.33779  0.64586  0.17146  1.0000
  C   C2010     1.0  0.35440  0.64191  0.17267  1.0000
  H   H3530     1.0  0.36772  0.67382  0.14350  1.0000
  H   H3531     1.0  0.33796  0.68094  0.14116  1.0000
  H   H3532     1.0  0.32950  0.63810  0.17952  1.0000
  H   H3533     1.0  0.35887  0.63089  0.18128  1.0000
  C   C2011     1.0  0.25359  0.54513  0.16982  1.0000
  C   C2012     1.0  0.31880  0.65522  0.37318  1.0000
  H   H3534     1.0  0.24514  0.65089  0.15023  1.0000
  C   C2013     1.0  0.46868  0.63906  0.16115  1.0000
  C   C2014     1.0  0.25188  0.56425  0.14339  1.0000
  C   C2015     1.0  0.26070  0.55591  0.15594  1.0000
  H   H3535     1.0  0.25333  0.59083  0.32547  1.0000
  C   C2016     1.0  0.47734  0.71463  0.29114  1.0000
  H   H3536     1.0  0.25717  0.57287  0.13280  1.0000
  H   H3537     1.0  0.27262  0.55836  0.15519  1.0000
  C   C2017     1.0  0.34855  0.55430  0.18490  1.0000
  C   C2018     1.0  0.33664  0.55842  0.19879  1.0000
  C   C2019     1.0  0.34000  0.56717  0.20869  1.0000
  C   C2020     1.0  0.35530  0.57184  0.20492  1.0000
  C   C2021     1.0  0.36718  0.56786  0.19096  1.0000
  C   C2022     1.0  0.36378  0.55915  0.18100  1.0000
  H   H3538     1.0  0.32469  0.55520  0.20165  1.0000
  H   H3539     1.0  0.33062  0.57052  0.21925  1.0000
  H   H3540     1.0  0.37903  0.57133  0.18793  1.0000
  H   H3541     1.0  0.37301  0.55618  0.17019  1.0000
  C   C2023     1.0  0.27736  0.67074  0.40389  1.0000
  C   C2024     1.0  0.28636  0.68299  0.40101  1.0000
  C   C2025     1.0  0.28811  0.69424  0.38572  1.0000
  C   C2026     1.0  0.28138  0.69282  0.37316  1.0000
  H   H3542     1.0  0.36006  0.55500  0.26117  1.0000
  H   H3543     1.0  0.29486  0.70385  0.38348  1.0000
  H   H3544     1.0  0.28294  0.70137  0.36127  1.0000
  C   C2027     1.0  0.27315  0.51564  0.27333  1.0000
  C   C2028     1.0  0.35379  0.66983  0.45270  1.0000
  H   H3545     1.0  0.44392  0.67245  0.38339  1.0000
  C   C2029     1.0  0.29516  0.49933  0.24907  1.0000
  H   H3546     1.0  0.30823  0.62775  0.37013  1.0000
  C   C2030     1.0  0.38643  0.69580  0.16753  1.0000
  H   H3547     1.0  0.46098  0.61572  0.14972  1.0000
  C   C2031     1.0  0.31025  0.69185  0.06681  1.0000
  H   H3548     1.0  0.33029  0.70668  0.32930  1.0000
  H   H3549     1.0  0.34730  0.70158  0.24783  1.0000
  N   N114      1.0  0.35741  0.72624  0.13840  1.0000
  C   C2032     1.0  0.25661  0.71350  0.06201  1.0000
  H   H3550     1.0  0.36141  0.50217  0.22550  1.0000
  H   H3551     1.0  0.33660  0.56813  0.12673  1.0000
  C   C2033     1.0  0.28282  0.51323  0.24460  1.0000
  C   C2034     1.0  0.36570  0.65350  0.36124  1.0000
  C   C2035     1.0  0.33704  0.65229  0.39835  1.0000
  C   C2036     1.0  0.37961  0.64380  0.34983  1.0000
  C   C2037     1.0  0.34354  0.65616  0.41139  1.0000
  Fe  Fe241     1.0  0.43898  0.71078  0.28484  1.0000
  H   H3552     1.0  0.34659  0.67272  0.38074  1.0000
  H   H3553     1.0  0.36756  0.64823  0.37406  1.0000
  H   H3554     1.0  0.36721  0.66644  0.35791  1.0000
  C   C2038     1.0  0.31882  0.52362  0.27442  1.0000
  H   H3555     1.0  0.34539  0.64100  0.39443  1.0000
  H   H3556     1.0  0.37916  0.64959  0.33667  1.0000
  H   H3557     1.0  0.39185  0.64397  0.35167  1.0000
  H   H3558     1.0  0.31563  0.53101  0.12087  1.0000
  H   H3559     1.0  0.34418  0.64539  0.42205  1.0000
  H   H3560     1.0  0.35616  0.65878  0.40615  1.0000
  H   H3561     1.0  0.24971  0.69979  0.39870  1.0000
  H   H3562     1.0  0.35814  0.67245  0.24841  1.0000
  C   C2039     1.0  0.34842  0.65223  0.35995  1.0000
  H   H3563     1.0  0.32779  0.48893  0.30601  1.0000
  C   C2040     1.0  0.32127  0.59736  0.16939  1.0000
  C   C2041     1.0  0.31694  0.60629  0.18394  1.0000
  C   C2042     1.0  0.30254  0.60065  0.19744  1.0000
  H   H3564     1.0  0.32630  0.58399  0.17417  1.0000
  H   H3565     1.0  0.30926  0.59792  0.16654  1.0000
  H   H3566     1.0  0.31121  0.62333  0.14933  1.0000
  H   H3567     1.0  0.32708  0.63047  0.15261  1.0000
  H   H3568     1.0  0.31328  0.61993  0.17961  1.0000
  H   H3569     1.0  0.32772  0.60332  0.18981  1.0000
  H   H3570     1.0  0.30533  0.58693  0.20178  1.0000
  H   H3571     1.0  0.30055  0.60634  0.20816  1.0000
  H   H3572     1.0  0.29094  0.60468  0.19274  1.0000
  C   C2043     1.0  0.29615  0.49339  0.26566  1.0000
  S   S472      1.0  0.26395  0.67903  0.36024  1.0000
  H   H3573     1.0  0.36216  0.70069  0.15234  1.0000
  H   H3574     1.0  0.30523  0.66469  0.35309  1.0000
  C   C2044     1.0  0.28866  0.50411  0.12979  1.0000
  H   H3575     1.0  0.48682  0.67487  0.27826  1.0000
  H   H3576     1.0  0.32307  0.64810  0.34926  1.0000
  S   S473      1.0  0.41541  0.71777  0.30336  1.0000
  C   C2045     1.0  0.42097  0.67578  0.40127  1.0000
  S   S474      1.0  0.44214  0.59165  0.20229  1.0000
  H   H3577     1.0  0.26334  0.66011  0.39385  1.0000
  H   H3578     1.0  0.34851  0.65419  0.34659  1.0000
  H   H3579     1.0  0.37627  0.61277  0.16182  1.0000
  H   H3580     1.0  0.34376  0.72171  0.17301  1.0000
  H   H3581     1.0  0.37856  0.63066  0.35255  1.0000
  H   H3582     1.0  0.32360  0.51044  0.30701  1.0000
  C   C2046     1.0  0.24303  0.60714  0.20085  1.0000
  H   H3583     1.0  0.42719  0.65918  0.19916  1.0000
  H   H3584     1.0  0.24259  0.59760  0.25993  1.0000
  H   H3585     1.0  0.26149  0.62380  0.17085  1.0000
  H   H3586     1.0  0.38330  0.59314  0.15547  1.0000
  H   H3587     1.0  0.32460  0.71458  0.34806  1.0000
  H   H3588     1.0  0.28185  0.51770  0.23181  1.0000
  H   H3589     1.0  0.41721  0.70448  0.34144  1.0000
  H   H3590     1.0  0.36903  0.54906  0.24145  1.0000
  Fe  Fe242     1.0  0.24730  0.66066  0.36929  1.0000
  H   H3591     1.0  0.25243  0.71479  0.07504  1.0000
  C   C2047     1.0  0.42512  0.66830  0.18756  1.0000
  C   C2048     1.0  0.33561  0.66724  0.38341  1.0000
  H   H3592     1.0  0.32616  0.49660  0.27680  1.0000
  H   H3593     1.0  0.34684  0.66503  0.44657  1.0000
  C   C2049     1.0  0.37862  0.60670  0.15132  1.0000
  H   H3594     1.0  0.36163  0.71834  0.47027  1.0000
  C   C2050     1.0  0.26665  0.55697  0.22104  1.0000
  H   H3595     1.0  0.47994  0.72394  0.32621  1.0000
  H   H3596     1.0  0.35418  0.51243  0.20670  1.0000
  H   H3597     1.0  0.25514  0.48391  0.29565  1.0000
  H   H3598     1.0  0.36633  0.66160  0.45237  1.0000
  H   H3599     1.0  0.24842  0.54386  0.09627  1.0000
  C   C2051     1.0  0.25936  0.67521  0.09450  1.0000
  H   H3600     1.0  0.35437  0.71920  0.09255  1.0000
  C   C2052     1.0  0.47214  0.71957  0.30628  1.0000
  H   H3601     1.0  0.26224  0.53214  0.25344  1.0000
  C   C2053     1.0  0.26051  0.67359  0.45313  1.0000
  C   C2054     1.0  0.24219  0.72187  0.40935  1.0000
  H   H3602     1.0  0.24765  0.51861  0.21701  1.0000
  C   C2055     1.0  0.45082  0.62190  0.15860  1.0000
  C   C2056     1.0  0.34871  0.60380  0.15886  1.0000
  C   C2057     1.0  0.32889  0.67982  0.35615  1.0000
  C   C2058     1.0  0.43846  0.64630  0.17054  1.0000
  H   H3603     1.0  0.34272  0.49859  0.22253  1.0000
  C   C2059     1.0  0.26986  0.50064  0.15706  1.0000
  H   H3604     1.0  0.34362  0.50823  0.25191  1.0000
  H   H3605     1.0  0.33173  0.55078  0.26255  1.0000
  H   H3606     1.0  0.31718  0.68750  0.36205  1.0000
  C   C2060     1.0  0.24008  0.59315  0.33045  1.0000
  C   C2061     1.0  0.32715  0.68158  0.47165  1.0000
  C   C2062     1.0  0.26413  0.72817  0.05053  1.0000
  H   H3607     1.0  0.35228  0.52732  0.27298  1.0000
  H   H3608     1.0  0.34476  0.71498  0.33463  1.0000
  H   H3609     1.0  0.29114  0.50250  0.11687  1.0000
  H   H3610     1.0  0.24226  0.49045  0.19481  1.0000
  H   H3611     1.0  0.25532  0.72318  0.40627  1.0000
  H   H3612     1.0  0.38840  0.61178  0.14129  1.0000
  H   H3613     1.0  0.43731  0.59379  0.16746  1.0000
  H   H3614     1.0  0.31274  0.60011  0.13568  1.0000
  N   N115      1.0  0.44520  0.62000  0.27241  1.0000
  C   C2063     1.0  0.45668  0.62759  0.25722  1.0000
  C   C2064     1.0  0.43166  0.61600  0.26710  1.0000
  C   C2065     1.0  0.43712  0.63309  0.28260  1.0000
  C   C2066     1.0  0.45413  0.60480  0.28292  1.0000
  C   C2067     1.0  0.46964  0.59381  0.27373  1.0000
  C   C2068     1.0  0.46955  0.63509  0.26071  1.0000
  C   C2069     1.0  0.42287  0.62901  0.29761  1.0000
  C   C2070     1.0  0.43713  0.60286  0.25634  1.0000
  C   C2071     1.0  0.42253  0.60142  0.25034  1.0000
  S   S475      1.0  0.48559  0.63970  0.20391  1.0000
  H   H3615     1.0  0.28030  0.49064  0.16107  1.0000
  C   C2072     1.0  0.41804  0.64165  0.30857  1.0000
  H   H3616     1.0  0.44937  0.63780  0.24914  1.0000
  H   H3617     1.0  0.46348  0.61857  0.24928  1.0000
  H   H3618     1.0  0.42252  0.61108  0.27801  1.0000
  H   H3619     1.0  0.42457  0.62756  0.26032  1.0000
  H   H3620     1.0  0.43201  0.64500  0.27470  1.0000
  H   H3621     1.0  0.44651  0.63586  0.28754  1.0000
  H   H3622     1.0  0.45856  0.60834  0.29220  1.0000
  H   H3623     1.0  0.44530  0.59676  0.29042  1.0000
  H   H3624     1.0  0.25112  0.59926  0.27634  1.0000
  H   H3625     1.0  0.46737  0.59090  0.26294  1.0000
  H   H3626     1.0  0.46332  0.64732  0.26393  1.0000
  H   H3627     1.0  0.35491  0.69731  0.09974  1.0000
  H   H3628     1.0  0.42653  0.61646  0.30528  1.0000
  H   H3629     1.0  0.41158  0.62966  0.29334  1.0000
  H   H3630     1.0  0.44688  0.60594  0.24524  1.0000
  H   H3631     1.0  0.44171  0.59046  0.26378  1.0000
  H   H3632     1.0  0.42684  0.59196  0.24261  1.0000
  H   H3633     1.0  0.41254  0.59763  0.26096  1.0000
  H   H3634     1.0  0.41733  0.61343  0.24267  1.0000
  C   C2073     1.0  0.33967  0.72666  0.14779  1.0000
  Fe  Fe243     1.0  0.25132  0.62259  0.10697  1.0000
  H   H3635     1.0  0.45910  0.72439  0.31086  1.0000
  C   C2074     1.0  0.24727  0.60593  0.26451  1.0000
  C   C2075     1.0  0.48103  0.71598  0.23758  1.0000
  H   H3636     1.0  0.46831  0.68109  0.36221  1.0000
  H   H3637     1.0  0.40763  0.63869  0.31905  1.0000
  H   H3638     1.0  0.42866  0.64138  0.31372  1.0000
  H   H3639     1.0  0.41396  0.65439  0.30139  1.0000
  H   H3640     1.0  0.26587  0.70166  0.06127  1.0000
  H   H3641     1.0  0.25849  0.72399  0.37655  1.0000
  C   C2076     1.0  0.33017  0.62784  0.12751  1.0000
  H   H3642     1.0  0.28740  0.61180  0.15329  1.0000
  C   C2077     1.0  0.31090  0.54173  0.24915  1.0000
  C   C2078     1.0  0.30044  0.55602  0.25802  1.0000
  C   C2079     1.0  0.28485  0.56485  0.25124  1.0000
  H   H3643     1.0  0.30239  0.53401  0.24912  1.0000
  H   H3644     1.0  0.31509  0.54777  0.23599  1.0000
  H   H3645     1.0  0.33998  0.54904  0.24187  1.0000
  H   H3646     1.0  0.30778  0.56546  0.25608  1.0000
  H   H3647     1.0  0.29630  0.55141  0.27152  1.0000
  H   H3648     1.0  0.27785  0.57515  0.25759  1.0000
  H   H3649     1.0  0.28821  0.57011  0.23775  1.0000
  H   H3650     1.0  0.26936  0.72480  0.08263  1.0000
  N   N116      1.0  0.27104  0.50309  0.13875  1.0000
  Fe  Fe244     1.0  0.27599  0.72179  0.14875  1.0000
  H   H3651     1.0  0.25208  0.56828  0.19283  1.0000
  C   C2080     1.0  0.25890  0.51882  0.13323  1.0000
  H   H3652     1.0  0.25658  0.55935  0.23199  1.0000
  H   H3653     1.0  0.32812  0.67641  0.25799  1.0000
  C   C2081     1.0  0.32138  0.50170  0.30086  1.0000
  C   C2082     1.0  0.25905  0.52360  0.11443  1.0000
  S   S476      1.0  0.31001  0.48938  0.23432  1.0000
  C   C2083     1.0  0.26217  0.59724  0.17613  1.0000
  C   C2084     1.0  0.25659  0.48702  0.23567  1.0000
  C   C2085     1.0  0.45974  0.66770  0.32456  1.0000
  C   C2086     1.0  0.34007  0.72158  0.22744  1.0000
  H   H3654     1.0  0.28693  0.53116  0.12133  1.0000
  H   H3655     1.0  0.30784  0.50215  0.30369  1.0000
  H   H3656     1.0  0.24883  0.68880  0.42561  1.0000
  H   H3657     1.0  0.29758  0.49359  0.13572  1.0000
  H   H3658     1.0  0.28797  0.72503  0.33643  1.0000
  H   H3659     1.0  0.24024  0.57545  0.21090  1.0000
  H   H3660     1.0  0.23980  0.63015  0.26966  1.0000
  C   C2087     1.0  0.32142  0.73153  0.46600  1.0000
  H   H3661     1.0  0.25383  0.51479  0.11112  1.0000
  H   H3662     1.0  0.27175  0.52351  0.10671  1.0000
  C   C2088     1.0  0.29501  0.70562  0.07051  1.0000
  C   C2089     1.0  0.44730  0.61821  0.21092  1.0000
  H   H3663     1.0  0.46743  0.63719  0.17473  1.0000
  H   H3664     1.0  0.37910  0.70580  0.13633  1.0000
  H   H3665     1.0  0.41288  0.69480  0.37142  1.0000
  H   H3666     1.0  0.37760  0.53774  0.25924  1.0000
  H   H3667     1.0  0.29662  0.71057  0.08048  1.0000
  H   H3668     1.0  0.31995  0.50895  0.12898  1.0000
  H   H3669     1.0  0.46735  0.66958  0.31172  1.0000
  H   H3670     1.0  0.34447  0.72353  0.44950  1.0000
  C   C2090     1.0  0.48348  0.63792  0.24551  1.0000
  H   H3671     1.0  0.47037  0.67408  0.25095  1.0000
  H   H3672     1.0  0.46746  0.69098  0.26059  1.0000
  H   H3673     1.0  0.27788  0.57013  0.19748  1.0000
  H   H3674     1.0  0.26619  0.71670  0.24257  1.0000
  H   H3675     1.0  0.29613  0.63967  0.35498  1.0000
  Fe  Fe245     1.0  0.30369  0.72107  0.11841  1.0000
  H   H3676     1.0  0.35529  0.68249  0.44566  1.0000
  H   H3677     1.0  0.40330  0.69741  0.22654  1.0000
  H   H3678     1.0  0.24162  0.63898  0.20518  1.0000
  C   C2091     1.0  0.46339  0.68361  0.20841  1.0000
  H   H3679     1.0  0.30559  0.48260  0.26916  1.0000
  C   C2092     1.0  0.33695  0.65059  0.25779  1.0000
  C   C2093     1.0  0.33724  0.59229  0.14242  1.0000
  H   H3680     1.0  0.43736  0.65279  0.13941  1.0000
  C   C2094     1.0  0.43432  0.62016  0.15583  1.0000
  C   C2095     1.0  0.27241  0.68054  0.37603  1.0000
  C   C2096     1.0  0.33491  0.70775  0.33972  1.0000
  H   H3681     1.0  0.42536  0.68072  0.18891  1.0000
  H   H3682     1.0  0.37702  0.68839  0.17482  1.0000
  H   H3683     1.0  0.38798  0.71977  0.15173  1.0000
  H   H3684     1.0  0.30800  0.66234  0.38079  1.0000
  C   C2097     1.0  0.46231  0.64479  0.12546  1.0000
  H   H3685     1.0  0.32399  0.50959  0.24842  1.0000
  H   H3686     1.0  0.48836  0.71558  0.24657  1.0000
  H   H3687     1.0  0.32488  0.67690  0.38788  1.0000
  C   C2098     1.0  0.27556  0.61464  0.14930  1.0000
  H   H3688     1.0  0.46252  0.69908  0.23157  1.0000
  C   C2099     1.0  0.34209  0.69060  0.34927  1.0000
  C   C2100     1.0  0.35424  0.53237  0.25944  1.0000
  C   C2101     1.0  0.47438  0.69966  0.22216  1.0000
  C   C2102     1.0  0.31258  0.65273  0.35891  1.0000
  C   C2103     1.0  0.32742  0.57998  0.12405  1.0000
  S   S477      1.0  0.30365  0.71397  0.14550  1.0000
  H   H3689     1.0  0.34779  0.63896  0.36523  1.0000
  H   H3690     1.0  0.32458  0.64951  0.40438  1.0000
  C   C2104     1.0  0.45034  0.65054  0.14089  1.0000
  C   C2105     1.0  0.25422  0.49311  0.18683  1.0000
  H   H3691     1.0  0.25057  0.48563  0.16669  1.0000
  C   C2106     1.0  0.47198  0.59906  0.20060  1.0000
  C   C2107     1.0  0.36280  0.61006  0.14493  1.0000
  C   C2108     1.0  0.33742  0.54147  0.25467  1.0000
  C   C2109     1.0  0.33863  0.72567  0.46181  1.0000
  H   H3692     1.0  0.24986  0.68418  0.08878  1.0000
  H   H3693     1.0  0.32632  0.67773  0.34501  1.0000
  C   C2110     1.0  0.36589  0.54431  0.25506  1.0000
  H   H3694     1.0  0.45738  0.70930  0.34248  1.0000
  H   H3695     1.0  0.42365  0.66291  0.40871  1.0000
  H   H3696     1.0  0.27409  0.62713  0.14095  1.0000
  H   H3697     1.0  0.30577  0.52239  0.27642  1.0000
  H   H3698     1.0  0.26186  0.48660  0.26552  1.0000
  H   H3699     1.0  0.35906  0.62370  0.14046  1.0000
  N   N117      1.0  0.32546  0.53080  0.25635  1.0000
  H   H3700     1.0  0.25801  0.65555  0.08423  1.0000
  H   H3701     1.0  0.47514  0.64539  0.12511  1.0000
  H   H3702     1.0  0.46749  0.65837  0.33275  1.0000
  H   H3703     1.0  0.33165  0.65292  0.12699  1.0000
  N   N118      1.0  0.43670  0.69752  0.35508  1.0000
  C   C2111     1.0  0.44298  0.68212  0.34796  1.0000
  C   C2112     1.0  0.42586  0.69380  0.37224  1.0000
  H   H3704     1.0  0.25863  0.66496  0.44662  1.0000
  C   C2113     1.0  0.24821  0.69025  0.45035  1.0000
  H   H3705     1.0  0.24596  0.51779  0.13968  1.0000
  C   C2114     1.0  0.45388  0.68419  0.33013  1.0000
  H   H3706     1.0  0.34796  0.53162  0.22527  1.0000
  C   C2115     1.0  0.43054  0.67633  0.38335  1.0000
  C   C2116     1.0  0.25337  0.49670  0.16866  1.0000
  C   C2117     1.0  0.24592  0.72139  0.37922  1.0000
  H   H3707     1.0  0.27874  0.55289  0.22484  1.0000
  C   C2118     1.0  0.27026  0.66962  0.39150  1.0000
  H   H3708     1.0  0.43227  0.67719  0.34799  1.0000
  H   H3709     1.0  0.45036  0.67192  0.35578  1.0000
  S   S478      1.0  0.42610  0.71718  0.26374  1.0000
  H   H3710     1.0  0.26760  0.58277  0.21260  1.0000
  H   H3711     1.0  0.26910  0.49023  0.12126  1.0000
  C   C2119     1.0  0.37811  0.71276  0.15850  1.0000
  C   C2120     1.0  0.45070  0.70482  0.35530  1.0000
  C   C2121     1.0  0.41577  0.72606  0.35056  1.0000
  H   H3712     1.0  0.40738  0.67975  0.40194  1.0000
  H   H3713     1.0  0.33204  0.72445  0.21844  1.0000
  H   H3714     1.0  0.44686  0.69309  0.32109  1.0000
  H   H3715     1.0  0.47173  0.66314  0.28002  1.0000
  H   H3716     1.0  0.47131  0.71098  0.21258  1.0000
  H   H3717     1.0  0.30392  0.72559  0.05246  1.0000
  H   H3718     1.0  0.42732  0.66696  0.37879  1.0000
  H   H3719     1.0  0.31706  0.71478  0.17688  1.0000
  H   H3720     1.0  0.48587  0.70123  0.34924  1.0000
  H   H3721     1.0  0.42474  0.68406  0.40678  1.0000
  H   H3722     1.0  0.48285  0.67303  0.22185  1.0000
  H   H3723     1.0  0.45074  0.66352  0.17548  1.0000
  Fe  Fe246     1.0  0.31706  0.72726  0.42764  1.0000
  H   H3724     1.0  0.24794  0.72131  0.25863  1.0000
  H   H3725     1.0  0.33504  0.66710  0.41595  1.0000
  N   N119      1.0  0.45233  0.63933  0.15744  1.0000
  H   H3726     1.0  0.42612  0.64777  0.16782  1.0000
  H   H3727     1.0  0.35269  0.68467  0.34050  1.0000
  C   C2122     1.0  0.45766  0.65617  0.10956  1.0000
  H   H3728     1.0  0.27143  0.51195  0.15986  1.0000
  H   H3729     1.0  0.31617  0.58009  0.14949  1.0000
  C   C2123     1.0  0.47669  0.68034  0.25630  1.0000
  H   H3730     1.0  0.26735  0.72518  0.25911  1.0000
  C   C2124     1.0  0.32496  0.62159  0.14654  1.0000
  H   H3731     1.0  0.24614  0.71361  0.37077  1.0000
  H   H3732     1.0  0.43848  0.63743  0.18270  1.0000
  H   H3733     1.0  0.48235  0.61310  0.16416  1.0000
  C   C2125     1.0  0.31232  0.51923  0.12138  1.0000
  H   H3734     1.0  0.43387  0.71478  0.33175  1.0000
  H   H3735     1.0  0.39640  0.73118  0.33679  1.0000
  C   C2126     1.0  0.33987  0.52271  0.22799  1.0000
  H   H3736     1.0  0.25365  0.55039  0.11197  1.0000
  C   C2127     1.0  0.47865  0.70102  0.36215  1.0000
  H   H3737     1.0  0.45361  0.68039  0.21948  1.0000
  H   H3738     1.0  0.34468  0.58006  0.14779  1.0000
  H   H3739     1.0  0.35384  0.59100  0.16523  1.0000
  S   S479      1.0  0.24653  0.61131  0.34880  1.0000
  H   H3740     1.0  0.32145  0.67837  0.46313  1.0000
  H   H3741     1.0  0.43163  0.62806  0.14391  1.0000
  H   H3742     1.0  0.32481  0.64762  0.26489  1.0000
  H   H3743     1.0  0.36015  0.69813  0.12643  1.0000
  H   H3744     1.0  0.27325  0.59534  0.18122  1.0000
  H   H3745     1.0  0.34267  0.64227  0.24890  1.0000
  H   H3746     1.0  0.29132  0.52275  0.14153  1.0000
  H   H3747     1.0  0.42500  0.70331  0.37919  1.0000
  C   C2128     1.0  0.30125  0.64033  0.36525  1.0000
  H   H3748     1.0  0.39557  0.68877  0.15857  1.0000
  C   C2129     1.0  0.25935  0.72545  0.25083  1.0000
  C   C2130     1.0  0.35406  0.70961  0.11892  1.0000
  H   H3749     1.0  0.26255  0.70029  0.42649  1.0000
  C   C2131     1.0  0.24848  0.54092  0.10965  1.0000
  H   H3750     1.0  0.29510  0.71404  0.04427  1.0000
  C   C2132     1.0  0.24750  0.66033  0.15537  1.0000
  H   H3751     1.0  0.25465  0.60995  0.20166  1.0000
  H   H3752     1.0  0.26080  0.52946  0.13698  1.0000
  H   H3753     1.0  0.46563  0.57004  0.28975  1.0000
  H   H3754     1.0  0.36074  0.52221  0.25281  1.0000
  N   N120      1.0  0.33307  0.60406  0.15390  1.0000
  Fe  Fe247     1.0  0.40242  0.72169  0.28267  1.0000
  H   H3755     1.0  0.34374  0.62463  0.12279  1.0000
  H   H3756     1.0  0.24284  0.50738  0.16661  1.0000
  H   H3757     1.0  0.41270  0.66871  0.18570  1.0000
  H   H3758     1.0  0.24859  0.72973  0.34192  1.0000
  H   H3759     1.0  0.26934  0.72472  0.03830  1.0000
  H   H3760     1.0  0.44893  0.66287  0.32472  1.0000
  H   H3761     1.0  0.25833  0.60930  0.25519  1.0000
  H   H3762     1.0  0.32673  0.65069  0.10879  1.0000
  H   H3763     1.0  0.32876  0.69458  0.46611  1.0000
  H   H3764     1.0  0.31811  0.53228  0.28226  1.0000
  C   C2133     1.0  0.46359  0.69345  0.36537  1.0000
  C   C2134     1.0  0.47444  0.62450  0.20611  1.0000
  H   H3765     1.0  0.46821  0.71581  0.24505  1.0000
  H   H3766     1.0  0.34158  0.50523  0.27993  1.0000
  H   H3767     1.0  0.42376  0.62360  0.16600  1.0000
  H   H3768     1.0  0.45129  0.64027  0.21505  1.0000
  C   C2135     1.0  0.32454  0.64670  0.12249  1.0000
  C   C2136     1.0  0.32214  0.58858  0.13861  1.0000
  H   H3769     1.0  0.34675  0.69259  0.35918  1.0000
  H   H3770     1.0  0.29021  0.68262  0.47348  1.0000
  H   H3771     1.0  0.31640  0.57715  0.12194  1.0000
  H   H3772     1.0  0.47510  0.62705  0.27117  1.0000
  H   H3773     1.0  0.36980  0.71948  0.16800  1.0000
  N   N121      1.0  0.33337  0.66357  0.36809  1.0000
  H   H3774     1.0  0.45221  0.66303  0.14022  1.0000
  C   C2137     1.0  0.26103  0.61456  0.16427  1.0000
  H   H3775     1.0  0.34536  0.59674  0.13046  1.0000
  S   S480      1.0  0.29710  0.72969  0.41429  1.0000
  H   H3776     1.0  0.24959  0.61870  0.15941  1.0000
  C   C2138     1.0  0.32807  0.50613  0.28217  1.0000
  H   H3777     1.0  0.24177  0.72120  0.99665  1.0000
  C   C2139     1.0  0.24117  0.71212  0.39713  1.0000
  H   H3778     1.0  0.46692  0.67370  0.20132  1.0000
  H   H3779     1.0  0.36604  0.60385  0.13442  1.0000
  H   H3780     1.0  0.40192  0.68452  0.21386  1.0000
  H   H3781     1.0  0.33292  0.58816  0.11258  1.0000
  H   H3782     1.0  0.45829  0.69547  0.20045  1.0000
  C   C2140     1.0  0.36893  0.71089  0.14608  1.0000
  N   N122      1.0  0.35007  0.69030  0.22733  1.0000
  C   C2141     1.0  0.34039  0.69196  0.21455  1.0000
  H   H3783     1.0  0.39303  0.69751  0.17617  1.0000
  C   C2142     1.0  0.36745  0.69234  0.21843  1.0000
  C   C2143     1.0  0.35119  0.67345  0.23890  1.0000
  C   C2144     1.0  0.33438  0.66876  0.24860  1.0000
  C   C2145     1.0  0.34542  0.67737  0.20555  1.0000
  C   C2146     1.0  0.37834  0.69455  0.22903  1.0000
  C   C2147     1.0  0.48229  0.66829  0.27151  1.0000
  H   H3784     1.0  0.44515  0.59815  0.14525  1.0000
  C   C2148     1.0  0.43510  0.60223  0.15554  1.0000
  C   C2149     1.0  0.33650  0.68147  0.19140  1.0000
  C   C2150     1.0  0.39571  0.69592  0.21870  1.0000
  H   H3785     1.0  0.34163  0.70346  0.20481  1.0000
  H   H3786     1.0  0.32684  0.69367  0.22010  1.0000
  H   H3787     1.0  0.46202  0.63203  0.12525  1.0000
  S   S481      1.0  0.25560  0.63337  0.37897  1.0000
  H   H3788     1.0  0.36719  0.70311  0.20766  1.0000
  H   H3789     1.0  0.37442  0.68136  0.21303  1.0000
  H   H3790     1.0  0.35862  0.66358  0.23207  1.0000
  C   C2151     1.0  0.34134  0.70337  0.23731  1.0000
  H   H3791     1.0  0.32588  0.67060  0.24033  1.0000
  C   C2152     1.0  0.33527  0.73031  0.16531  1.0000
  H   H3792     1.0  0.35896  0.67448  0.20030  1.0000
  H   H3793     1.0  0.34202  0.66597  0.21419  1.0000
  H   H3794     1.0  0.37973  0.68387  0.23961  1.0000
  H   H3795     1.0  0.37293  0.70597  0.23398  1.0000
  H   H3796     1.0  0.33649  0.71455  0.14926  1.0000
  H   H3797     1.0  0.26520  0.58766  0.16860  1.0000
  H   H3798     1.0  0.43660  0.67331  0.16180  1.0000
  C   C2153     1.0  0.45713  0.62868  0.21119  1.0000
  H   H3799     1.0  0.27662  0.55609  0.25363  1.0000
  H   H3800     1.0  0.27592  0.60548  0.14220  1.0000
  H   H3801     1.0  0.45236  0.61412  0.17101  1.0000
  C   C2154     1.0  0.35951  0.70771  0.10095  1.0000
  H   H3802     1.0  0.33908  0.67030  0.18631  1.0000
  H   H3803     1.0  0.32285  0.68522  0.19580  1.0000
  H   H3804     1.0  0.34107  0.69147  0.18131  1.0000
  H   H3805     1.0  0.32184  0.64275  0.38133  1.0000
  H   H3806     1.0  0.39504  0.70686  0.20818  1.0000
  H   H3807     1.0  0.32936  0.52850  0.22169  1.0000
  H   H3808     1.0  0.47216  0.65132  0.15570  1.0000
  H   H3809     1.0  0.29941  0.69976  0.46102  1.0000
  C   C2155     1.0  0.43876  0.66350  0.17294  1.0000
  H   H3810     1.0  0.25108  0.65426  0.16741  1.0000
  H   H3811     1.0  0.34601  0.61167  0.16797  1.0000
  H   H3812     1.0  0.27346  0.67534  0.44866  1.0000
  H   H3813     1.0  0.39067  0.66641  0.39144  1.0000
  H   H3814     1.0  0.38988  0.72926  0.22383  1.0000
  C   C2156     1.0  0.38920  0.67460  0.37963  1.0000
  C   C2157     1.0  0.39794  0.66943  0.36499  1.0000
  H   H3815     1.0  0.40608  0.65724  0.36559  1.0000
  C   C2158     1.0  0.27169  0.52135  0.25680  1.0000
  H   H3816     1.0  0.43405  0.62162  0.21500  1.0000
  C   C2159     1.0  0.33320  0.51712  0.24686  1.0000
  C   C2160     1.0  0.45457  0.60364  0.20509  1.0000
  H   H3817     1.0  0.27593  0.66203  0.41571  1.0000
  C   C2161     1.0  0.28527  0.50159  0.27772  1.0000
  H   H3818     1.0  0.32433  0.62223  0.12102  1.0000
  H   H3819     1.0  0.45790  0.69197  0.37879  1.0000
  H   H3820     1.0  0.46513  0.68852  0.32946  1.0000
  C   C2162     1.0  0.29306  0.71982  0.05496  1.0000
  H   H3821     1.0  0.40709  0.72291  0.36259  1.0000
  H   H3822     1.0  0.28631  0.49709  0.29051  1.0000
  H   H3823     1.0  0.47776  0.58772  0.19620  1.0000
  H   H3824     1.0  0.25801  0.66550  0.14672  1.0000
  H   H3825     1.0  0.46661  0.65199  0.09866  1.0000
  H   H3826     1.0  0.32170  0.69686  0.06239  1.0000
  H   H3827     1.0  0.44501  0.65577  0.10897  1.0000
  H   H3828     1.0  0.26491  0.54674  0.21659  1.0000
  S   S482      1.0  0.26072  0.52600  0.28886  1.0000
  S   S483      1.0  0.46349  0.71884  0.27800  1.0000
  C   C2163     1.0  0.26683  0.48883  0.13489  1.0000
  C   C2164     1.0  0.24970  0.69834  0.43166  1.0000
  H   H3829     1.0  0.34043  0.71057  0.12287  1.0000
  H   H3830     1.0  0.32834  0.70213  0.24316  1.0000
  H   H3831     1.0  0.26317  0.72050  0.43766  1.0000
  H   H3832     1.0  0.35241  0.72397  0.22055  1.0000
  H   H3833     1.0  0.31535  0.51716  0.10860  1.0000
  H   H3834     1.0  0.26430  0.48212  0.18965  1.0000
  H   H3835     1.0  0.45808  0.66917  0.10887  1.0000
  C   C2165     1.0  0.31782  0.72796  0.17445  1.0000
  H   H3836     1.0  0.25334  0.48898  0.13947  1.0000
  C   C2166     1.0  0.42609  0.71027  0.34400  1.0000
  H   H3837     1.0  0.47478  0.71384  0.36433  1.0000
  C   C2167     1.0  0.48395  0.71938  0.31491  1.0000
  H   H3838     1.0  0.34513  0.64813  0.26659  1.0000
  C   C2168     1.0  0.35845  0.72524  0.12086  1.0000
  C   C2169     1.0  0.24147  0.71232  0.05665  1.0000
  S   S484      1.0  0.24246  0.60827  0.13238  1.0000
  H   H3839     1.0  0.48696  0.69335  0.37059  1.0000
  C   C2170     1.0  0.25083  0.57751  0.20020  1.0000
  H   H3840     1.0  0.25650  0.50398  0.18977  1.0000
  H   H3841     1.0  0.39551  0.72463  0.25162  1.0000
  N   N123      1.0  0.24708  0.59488  0.18985  1.0000
  H   H3842     1.0  0.47823  0.64704  0.23537  1.0000
  C   C2171     1.0  0.48391  0.62533  0.15594  1.0000
  H   H3843     1.0  0.24483  0.71101  0.04358  1.0000
  H   H3844     1.0  0.37114  0.72607  0.11324  1.0000
  C   C2172     1.0  0.25305  0.73150  0.43530  1.0000
  C   C2173     1.0  0.29185  0.69504  0.47332  1.0000
  C   C2174     1.0  0.47542  0.57741  0.28531  1.0000
  H   H3845     1.0  0.24491  0.50295  0.27196  1.0000
  C   C2175     1.0  0.24861  0.48953  0.27183  1.0000
  H   H3846     1.0  0.44574  0.71609  0.36060  1.0000
  H   H3847     1.0  0.24323  0.61759  0.45889  1.0000
  N   N124      1.0  0.48766  0.70103  0.22983  1.0000
  C   C2176     1.0  0.48193  0.60941  0.20122  1.0000
  H   H3848     1.0  0.48674  0.57003  0.27855  1.0000
  H   H3849     1.0  0.47846  0.57970  0.29610  1.0000
  H   H3850     1.0  0.24299  0.51543  0.24647  1.0000
  S   S485      1.0  0.27626  0.73012  0.12176  1.0000
  H   H3851     1.0  0.26712  0.72202  0.97455  1.0000
  C   C2177     1.0  0.34832  0.72274  0.47359  1.0000
  H   H3852     1.0  0.48840  0.68668  0.20215  1.0000
  H   H3853     1.0  0.34039  0.73172  0.24793  1.0000
  H   H3854     1.0  0.28242  0.64321  0.52430  1.0000
  H   H3855     1.0  0.30677  0.71583  0.65446  1.0000
  H   H3856     1.0  0.44629  0.63322  0.63630  1.0000
  S   S486      1.0  0.25712  0.53503  0.61305  1.0000
  Fe  Fe248     1.0  0.25900  0.53187  0.63921  1.0000
  S   S487      1.0  0.28327  0.53111  0.64488  1.0000
  S   S488      1.0  0.29512  0.70131  0.57094  1.0000
  H   H3857     1.0  0.32870  0.69586  0.49445  1.0000
  H   H3858     1.0  0.35250  0.67487  0.47599  1.0000
  H   H3859     1.0  0.31120  0.62876  0.84700  1.0000
  C   C2178     1.0  0.48253  0.65075  0.68207  1.0000
  H   H3860     1.0  0.28653  0.71576  0.85974  1.0000
  Fe  Fe249     1.0  0.24388  0.67345  0.52462  1.0000
  S   S489      1.0  0.46613  0.70198  0.63318  1.0000
  C   C2179     1.0  0.31863  0.71578  0.73400  1.0000
  Fe  Fe250     1.0  0.31424  0.55667  0.74012  1.0000
  S   S490      1.0  0.31310  0.57875  0.71889  1.0000
  S   S491      1.0  0.30823  0.56107  0.76591  1.0000
  S   S492      1.0  0.33026  0.55235  0.69447  1.0000
  Fe  Fe251     1.0  0.33882  0.56599  0.70826  1.0000
  S   S493      1.0  0.35954  0.57974  0.69611  1.0000
  Fe  Fe252     1.0  0.30449  0.56313  0.70725  1.0000
  S   S494      1.0  0.28315  0.57397  0.69410  1.0000
  S   S495      1.0  0.30332  0.54197  0.72958  1.0000
  Fe  Fe253     1.0  0.42682  0.63855  0.70057  1.0000
  S   S496      1.0  0.43672  0.61419  0.71635  1.0000
  S   S497      1.0  0.43433  0.64110  0.67311  1.0000
  Fe  Fe254     1.0  0.40617  0.65299  0.73005  1.0000
  S   S498      1.0  0.41478  0.62989  0.74803  1.0000
  S   S499      1.0  0.38679  0.67501  0.73752  1.0000
  Fe  Fe255     1.0  0.44003  0.63013  0.73151  1.0000
  Fe  Fe256     1.0  0.41049  0.61656  0.73109  1.0000
  S   S500      1.0  0.39555  0.59671  0.74249  1.0000
  S   S501      1.0  0.43184  0.65443  0.71463  1.0000
  S   S502      1.0  0.40039  0.63973  0.71405  1.0000
  H   H3861     1.0  0.32309  0.48240  0.66231  1.0000
  H   H3862     1.0  0.24332  0.71216  0.86705  1.0000
  C   C2180     1.0  0.40721  0.69467  0.57151  1.0000
  H   H3863     1.0  0.31762  0.72604  0.62721  1.0000
  C   C2181     1.0  0.30611  0.49437  0.69955  1.0000
  H   H3864     1.0  0.30426  0.60455  0.81805  1.0000
  Fe  Fe257     1.0  0.32789  0.68818  0.81699  1.0000
  S   S503      1.0  0.30754  0.68758  0.80586  1.0000
  S   S504      1.0  0.35048  0.66775  0.81291  1.0000
  H   H3865     1.0  0.39473  0.51711  0.68570  1.0000
  C   C2182     1.0  0.28154  0.58441  0.82507  1.0000
  H   H3866     1.0  0.25347  0.64531  0.86466  1.0000
  Fe  Fe258     1.0  0.29065  0.69334  0.82941  1.0000
  S   S505      1.0  0.26905  0.68111  0.84145  1.0000
  C   C2183     1.0  0.27959  0.63106  0.84243  1.0000
  H   H3867     1.0  0.27421  0.66748  0.91402  1.0000
  S   S506      1.0  0.31120  0.69156  0.84161  1.0000
  C   C2184     1.0  0.25762  0.58411  0.56518  1.0000
  C   C2185     1.0  0.47455  0.63730  0.74140  1.0000
  C   C2186     1.0  0.45169  0.66930  0.77273  1.0000
  H   H3868     1.0  0.26983  0.55506  0.72649  1.0000
  H   H3869     1.0  0.32176  0.71047  0.74634  1.0000
  C   C2187     1.0  0.25723  0.68787  0.79738  1.0000
  C   C2188     1.0  0.26381  0.68958  0.80987  1.0000
  C   C2189     1.0  0.25952  0.68063  0.82610  1.0000
  C   C2190     1.0  0.24810  0.67057  0.82993  1.0000
  H   H3870     1.0  0.30784  0.50034  0.63207  1.0000
  H   H3871     1.0  0.26081  0.69457  0.78478  1.0000
  H   H3872     1.0  0.27227  0.69777  0.80687  1.0000
  H   H3873     1.0  0.37852  0.52565  0.76537  1.0000
  C   C2191     1.0  0.30490  0.48939  0.60408  1.0000
  H   H3874     1.0  0.38658  0.72284  0.68398  1.0000
  H   H3875     1.0  0.40801  0.67539  0.65024  1.0000
  C   C2192     1.0  0.41089  0.55324  0.71325  1.0000
  H   H3876     1.0  0.32364  0.50313  0.65022  1.0000
  H   H3877     1.0  0.27219  0.64641  0.91730  1.0000
  H   H3878     1.0  0.29265  0.66858  0.51735  1.0000
  C   C2193     1.0  0.31611  0.57983  0.63002  1.0000
  H   H3879     1.0  0.43565  0.48997  0.71262  1.0000
  H   H3880     1.0  0.24146  0.59734  0.69072  1.0000
  H   H3881     1.0  0.40072  0.56064  0.72116  1.0000
  H   H3882     1.0  0.41825  0.69255  0.64131  1.0000
  C   C2194     1.0  0.35955  0.66942  0.79177  1.0000
  C   C2195     1.0  0.35547  0.68413  0.78025  1.0000
  C   C2196     1.0  0.36373  0.68567  0.76356  1.0000
  C   C2197     1.0  0.37584  0.67239  0.75826  1.0000
  C   C2198     1.0  0.37930  0.65745  0.76965  1.0000
  C   C2199     1.0  0.37137  0.65602  0.78641  1.0000
  H   H3883     1.0  0.34625  0.69449  0.78423  1.0000
  H   H3884     1.0  0.36088  0.69725  0.75484  1.0000
  H   H3885     1.0  0.38829  0.64707  0.76572  1.0000
  H   H3886     1.0  0.37448  0.64457  0.79525  1.0000
  C   C2200     1.0  0.28719  0.57006  0.77202  1.0000
  C   C2201     1.0  0.28229  0.58184  0.78192  1.0000
  C   C2202     1.0  0.26556  0.59010  0.78563  1.0000
  C   C2203     1.0  0.25373  0.58610  0.77991  1.0000
  C   C2204     1.0  0.25859  0.57380  0.77067  1.0000
  C   C2205     1.0  0.27533  0.56605  0.76642  1.0000
  H   H3887     1.0  0.29147  0.58486  0.78633  1.0000
  H   H3888     1.0  0.26179  0.59952  0.79285  1.0000
  H   H3889     1.0  0.28624  0.62382  0.85243  1.0000
  H   H3890     1.0  0.27905  0.55684  0.75895  1.0000
  C   C2206     1.0  0.38513  0.59266  0.72957  1.0000
  C   C2207     1.0  0.38920  0.59824  0.71239  1.0000
  C   C2208     1.0  0.38110  0.59439  0.70227  1.0000
  C   C2209     1.0  0.36870  0.58520  0.70925  1.0000
  C   C2210     1.0  0.36426  0.58005  0.72647  1.0000
  C   C2211     1.0  0.37262  0.58358  0.73658  1.0000
  H   H3891     1.0  0.39886  0.60521  0.70688  1.0000
  H   H3892     1.0  0.38456  0.59844  0.68896  1.0000
  H   H3893     1.0  0.35459  0.57311  0.73199  1.0000
  H   H3894     1.0  0.36940  0.57925  0.74987  1.0000
  C   C2212     1.0  0.45751  0.68518  0.64516  1.0000
  C   C2213     1.0  0.44390  0.68707  0.65844  1.0000
  C   C2214     1.0  0.43712  0.67331  0.66766  1.0000
  C   C2215     1.0  0.44378  0.65788  0.66330  1.0000
  H   H3895     1.0  0.39557  0.68086  0.62648  1.0000
  H   H3896     1.0  0.26609  0.70200  0.48605  1.0000
  H   H3897     1.0  0.43861  0.69911  0.66154  1.0000
  H   H3898     1.0  0.42643  0.67470  0.67777  1.0000
  H   H3899     1.0  0.27301  0.50826  0.74811  1.0000
  S   S507      1.0  0.32718  0.71534  0.80672  1.0000
  H   H3900     1.0  0.38042  0.69544  0.65149  1.0000
  H   H3901     1.0  0.39120  0.71241  0.64344  1.0000
  H   H3902     1.0  0.39400  0.67801  0.78021  1.0000
  C   C2216     1.0  0.28268  0.54281  0.65894  1.0000
  C   C2217     1.0  0.26988  0.55667  0.66142  1.0000
  C   C2218     1.0  0.27028  0.56644  0.67194  1.0000
  C   C2219     1.0  0.28307  0.56196  0.68055  1.0000
  C   C2220     1.0  0.29554  0.54780  0.67843  1.0000
  C   C2221     1.0  0.29551  0.53843  0.66743  1.0000
  H   H3903     1.0  0.25983  0.55997  0.65508  1.0000
  H   H3904     1.0  0.26059  0.57737  0.67356  1.0000
  H   H3905     1.0  0.30529  0.54403  0.68519  1.0000
  H   H3906     1.0  0.30539  0.52764  0.66570  1.0000
  C   C2222     1.0  0.26632  0.69635  0.53543  1.0000
  C   C2223     1.0  0.26799  0.68413  0.54986  1.0000
  C   C2224     1.0  0.27668  0.68580  0.56080  1.0000
  C   C2225     1.0  0.28398  0.69951  0.55724  1.0000
  C   C2226     1.0  0.28220  0.71167  0.54284  1.0000
  C   C2227     1.0  0.27333  0.71016  0.53206  1.0000
  H   H3907     1.0  0.26260  0.67344  0.55258  1.0000
  H   H3908     1.0  0.37755  0.53105  0.66548  1.0000
  C   C2228     1.0  0.29509  0.66201  0.50728  1.0000
  H   H3909     1.0  0.24898  0.61581  0.67922  1.0000
  C   C2229     1.0  0.37297  0.53330  0.67822  1.0000
  H   H3910     1.0  0.27795  0.67634  0.57194  1.0000
  S   S508      1.0  0.34051  0.54485  0.73015  1.0000
  H   H3911     1.0  0.30451  0.50907  0.58193  1.0000
  Fe  Fe259     1.0  0.32963  0.53213  0.71747  1.0000
  H   H3912     1.0  0.26538  0.71438  0.88590  1.0000
  H   H3913     1.0  0.27366  0.72922  0.67670  1.0000
  C   C2230     1.0  0.42804  0.69207  0.73292  1.0000
  H   H3914     1.0  0.31878  0.68802  0.54047  1.0000
  C   C2231     1.0  0.26676  0.65820  0.92165  1.0000
  H   H3915     1.0  0.26856  0.50390  0.67738  1.0000
  H   H3916     1.0  0.33650  0.67418  0.50078  1.0000
  C   C2232     1.0  0.38151  0.53166  0.70472  1.0000
  H   H3917     1.0  0.39996  0.50444  0.71860  1.0000
  H   H3918     1.0  0.40735  0.69615  0.75311  1.0000
  C   C2233     1.0  0.32926  0.49457  0.71054  1.0000
  C   C2234     1.0  0.31556  0.68364  0.51802  1.0000
  C   C2235     1.0  0.31357  0.48867  0.63984  1.0000
  H   H3919     1.0  0.40786  0.67394  0.81098  1.0000
  C   C2236     1.0  0.34447  0.72763  0.72431  1.0000
  H   H3920     1.0  0.31434  0.67082  0.52466  1.0000
  H   H3921     1.0  0.45884  0.62748  0.61733  1.0000
  S   S509      1.0  0.23950  0.67362  0.78537  1.0000
  H   H3922     1.0  0.26754  0.65587  0.93479  1.0000
  S   S510      1.0  0.25281  0.65531  0.50786  1.0000
  H   H3923     1.0  0.28814  0.54577  0.58785  1.0000
  H   H3924     1.0  0.40072  0.70067  0.61867  1.0000
  Fe  Fe260     1.0  0.31419  0.71740  0.56001  1.0000
  C   C2237     1.0  0.32487  0.68376  0.49986  1.0000
  H   H3925     1.0  0.28333  0.49156  0.62455  1.0000
  C   C2238     1.0  0.29555  0.50355  0.59262  1.0000
  H   H3926     1.0  0.29504  0.50101  0.69494  1.0000
  C   C2239     1.0  0.30961  0.72249  0.62116  1.0000
  H   H3927     1.0  0.29543  0.63695  0.50573  1.0000
  H   H3928     1.0  0.28898  0.49580  0.73532  1.0000
  H   H3929     1.0  0.24622  0.57090  0.71260  1.0000
  H   H3930     1.0  0.41342  0.54133  0.69324  1.0000
  H   H3931     1.0  0.28110  0.62600  0.56516  1.0000
  C   C2240     1.0  0.38760  0.52993  0.68639  1.0000
  H   H3932     1.0  0.40904  0.66957  0.60142  1.0000
  H   H3933     1.0  0.31471  0.72634  0.60771  1.0000
  H   H3934     1.0  0.27209  0.58082  0.82096  1.0000
  C   C2241     1.0  0.24845  0.57592  0.57996  1.0000
  N   N125      1.0  0.27947  0.58757  0.60807  1.0000
  C   C2242     1.0  0.38858  0.71723  0.69671  1.0000
  C   C2243     1.0  0.28328  0.72560  0.86637  1.0000
  Fe  Fe261     1.0  0.30838  0.71888  0.83013  1.0000
  H   H3935     1.0  0.43525  0.66421  0.79689  1.0000
  H   H3936     1.0  0.37196  0.54347  0.70504  1.0000
  H   H3937     1.0  0.31525  0.59278  0.63074  1.0000
  H   H3938     1.0  0.33444  0.63901  0.82554  1.0000
  C   C2244     1.0  0.47635  0.63521  0.69254  1.0000
  H   H3939     1.0  0.26889  0.63898  0.78517  1.0000
  H   H3940     1.0  0.47502  0.66818  0.63097  1.0000
  H   H3941     1.0  0.45868  0.65875  0.72963  1.0000
  H   H3942     1.0  0.33819  0.69917  0.62719  1.0000
  C   C2245     1.0  0.28556  0.72009  0.67407  1.0000
  C   C2246     1.0  0.37358  0.73118  0.58627  1.0000
  H   H3943     1.0  0.27983  0.60753  0.80747  1.0000
  H   H3944     1.0  0.41463  0.57453  0.69284  1.0000
  H   H3945     1.0  0.46575  0.66046  0.79223  1.0000
  C   C2247     1.0  0.33433  0.62557  0.82950  1.0000
  N   N126      1.0  0.42127  0.68016  0.61360  1.0000
  C   C2248     1.0  0.47949  0.66525  0.73402  1.0000
  Fe  Fe262     1.0  0.34101  0.72677  0.53007  1.0000
  H   H3946     1.0  0.29335  0.60140  0.83891  1.0000
  H   H3947     1.0  0.30039  0.64478  0.79104  1.0000
  C   C2249     1.0  0.27122  0.72486  0.88116  1.0000
  H   H3948     1.0  0.37346  0.69215  0.80349  1.0000
  H   H3949     1.0  0.46848  0.70127  0.57995  1.0000
  H   H3950     1.0  0.24797  0.57750  0.61884  1.0000
  C   C2250     1.0  0.40554  0.68761  0.62466  1.0000
  H   H3951     1.0  0.42580  0.57139  0.70872  1.0000
  N   N127      1.0  0.31581  0.68058  0.48868  1.0000
  C   C2251     1.0  0.39772  0.67555  0.80462  1.0000
  C   C2252     1.0  0.30049  0.69427  0.48721  1.0000
  H   H3952     1.0  0.29107  0.69376  0.49901  1.0000
  H   H3953     1.0  0.27205  0.71968  0.52096  1.0000
  H   H3954     1.0  0.26351  0.60348  0.62451  1.0000
  C   C2253     1.0  0.31189  0.66350  0.49479  1.0000
  H   H3955     1.0  0.40779  0.64812  0.78350  1.0000
  H   H3956     1.0  0.45446  0.65743  0.61357  1.0000
  H   H3957     1.0  0.30368  0.70654  0.48472  1.0000
  H   H3958     1.0  0.40484  0.69227  0.78149  1.0000
  H   H3959     1.0  0.41189  0.70203  0.68653  1.0000
  H   H3960     1.0  0.24869  0.66603  0.90668  1.0000
  S   S511      1.0  0.26233  0.61122  0.53953  1.0000
  C   C2254     1.0  0.41674  0.67902  0.59825  1.0000
  C   C2255     1.0  0.42075  0.68999  0.75148  1.0000
  N   N128      1.0  0.28939  0.62716  0.82593  1.0000
  H   H3961     1.0  0.27032  0.50739  0.72829  1.0000
  C   C2256     1.0  0.40679  0.51470  0.71359  1.0000
  H   H3962     1.0  0.30314  0.69197  0.51880  1.0000
  H   H3963     1.0  0.26400  0.49609  0.69937  1.0000
  H   H3964     1.0  0.26612  0.60839  0.82704  1.0000
  H   H3965     1.0  0.46768  0.63252  0.68665  1.0000
  N   N129      1.0  0.34222  0.63737  0.75515  1.0000
  C   C2257     1.0  0.35814  0.62730  0.76028  1.0000
  C   C2258     1.0  0.34536  0.64348  0.73654  1.0000
  C   C2259     1.0  0.33650  0.65238  0.76290  1.0000
  C   C2260     1.0  0.32858  0.62776  0.76138  1.0000
  C   C2261     1.0  0.33176  0.61148  0.75549  1.0000
  C   C2262     1.0  0.35718  0.62119  0.77918  1.0000
  C   C2263     1.0  0.32273  0.66654  0.75598  1.0000
  C   C2264     1.0  0.35770  0.63152  0.72580  1.0000
  C   C2265     1.0  0.35824  0.63882  0.70739  1.0000
  C   C2266     1.0  0.31862  0.60150  0.76535  1.0000
  C   C2267     1.0  0.37389  0.61072  0.78271  1.0000
  C   C2268     1.0  0.31467  0.67858  0.76752  1.0000
  H   H3966     1.0  0.36798  0.63468  0.75511  1.0000
  H   H3967     1.0  0.36307  0.61612  0.75490  1.0000
  H   H3968     1.0  0.33343  0.64742  0.73233  1.0000
  H   H3969     1.0  0.35079  0.65471  0.73290  1.0000
  H   H3970     1.0  0.34716  0.65812  0.76139  1.0000
  H   H3971     1.0  0.33184  0.64865  0.77651  1.0000
  H   H3972     1.0  0.32530  0.62489  0.77512  1.0000
  H   H3973     1.0  0.31698  0.63544  0.75761  1.0000
  H   H3974     1.0  0.34401  0.60336  0.75690  1.0000
  H   H3975     1.0  0.33079  0.61439  0.74237  1.0000
  H   H3976     1.0  0.35387  0.63180  0.78533  1.0000
  H   H3977     1.0  0.34791  0.61333  0.78498  1.0000
  H   H3978     1.0  0.31269  0.66179  0.75432  1.0000
  H   H3979     1.0  0.32815  0.67375  0.74376  1.0000
  H   H3980     1.0  0.37038  0.62947  0.72775  1.0000
  H   H3981     1.0  0.35467  0.61923  0.72877  1.0000
  H   H3982     1.0  0.36190  0.65100  0.70362  1.0000
  H   H3983     1.0  0.36756  0.63030  0.69998  1.0000
  H   H3984     1.0  0.34596  0.64037  0.70459  1.0000
  H   H3985     1.0  0.32081  0.59034  0.76026  1.0000
  H   H3986     1.0  0.31941  0.59730  0.77858  1.0000
  H   H3987     1.0  0.30595  0.60893  0.76440  1.0000
  H   H3988     1.0  0.38382  0.61784  0.77695  1.0000
  H   H3989     1.0  0.37310  0.60706  0.79627  1.0000
  H   H3990     1.0  0.37733  0.59926  0.77779  1.0000
  H   H3991     1.0  0.30825  0.67210  0.77961  1.0000
  H   H3992     1.0  0.32414  0.68403  0.76946  1.0000
  H   H3993     1.0  0.30523  0.68882  0.76213  1.0000
  H   H3994     1.0  0.32627  0.57653  0.61947  1.0000
  H   H3995     1.0  0.26281  0.61374  0.85097  1.0000
  H   H3996     1.0  0.39325  0.69883  0.66316  1.0000
  H   H3997     1.0  0.26777  0.59603  0.58699  1.0000
  C   C2269     1.0  0.31259  0.70328  0.62479  1.0000
  H   H3998     1.0  0.26491  0.52575  0.69235  1.0000
  H   H3999     1.0  0.31023  0.72822  0.73410  1.0000
  H   H4000     1.0  0.26635  0.58214  0.63352  1.0000
  H   H4001     1.0  0.41691  0.64739  0.79996  1.0000
  H   H4002     1.0  0.29405  0.57868  0.81858  1.0000
  C   C2270     1.0  0.42171  0.56496  0.70148  1.0000
  H   H4003     1.0  0.42222  0.68544  0.72746  1.0000
  C   C2271     1.0  0.25334  0.61220  0.73837  1.0000
  C   C2272     1.0  0.33108  0.69543  0.62037  1.0000
  H   H4004     1.0  0.37475  0.52154  0.71116  1.0000
  C   C2273     1.0  0.25357  0.63219  0.86533  1.0000
  H   H4005     1.0  0.42788  0.67448  0.58917  1.0000
  H   H4006     1.0  0.28069  0.71483  0.61966  1.0000
  H   H4007     1.0  0.24918  0.68942  0.92064  1.0000
  H   H4008     1.0  0.24930  0.61522  0.75085  1.0000
  H   H4009     1.0  0.25602  0.61719  0.70494  1.0000
  H   H4010     1.0  0.24582  0.64302  0.74419  1.0000
  H   H4011     1.0  0.39454  0.55596  0.69762  1.0000
  C   C2274     1.0  0.31650  0.62316  0.83595  1.0000
  C   C2275     1.0  0.25367  0.52249  0.69132  1.0000
  C   C2276     1.0  0.39200  0.69938  0.65052  1.0000
  H   H4012     1.0  0.28679  0.64346  0.76943  1.0000
  H   H4013     1.0  0.44109  0.60999  0.78295  1.0000
  H   H4014     1.0  0.37861  0.68643  0.82348  1.0000
  H   H4015     1.0  0.28113  0.62216  0.59519  1.0000
  H   H4016     1.0  0.44070  0.68717  0.61997  1.0000
  H   H4017     1.0  0.30786  0.69802  0.63802  1.0000
  H   H4018     1.0  0.24889  0.69382  0.89346  1.0000
  H   H4019     1.0  0.31193  0.70761  0.73163  1.0000
  H   H4020     1.0  0.41585  0.51389  0.73559  1.0000
  H   H4021     1.0  0.31357  0.49436  0.60775  1.0000
  H   H4022     1.0  0.40418  0.69489  0.70829  1.0000
  H   H4023     1.0  0.32551  0.70263  0.52199  1.0000
  C   C2277     1.0  0.23939  0.52439  0.70687  1.0000
  C   C2278     1.0  0.32510  0.68937  0.52720  1.0000
  H   H4024     1.0  0.36432  0.52498  0.68536  1.0000
  C   C2279     1.0  0.29451  0.58986  0.61227  1.0000
  H   H4025     1.0  0.37438  0.70813  0.72127  1.0000
  C   C2280     1.0  0.30602  0.63168  0.82260  1.0000
  S   S512      1.0  0.34060  0.50508  0.71695  1.0000
  H   H4026     1.0  0.47772  0.68344  0.69591  1.0000
  C   C2281     1.0  0.38371  0.68977  0.80994  1.0000
  S   S513      1.0  0.25557  0.69510  0.52124  1.0000
  H   H4027     1.0  0.42555  0.70544  0.72680  1.0000
  C   C2282     1.0  0.46001  0.70026  0.59237  1.0000
  H   H4028     1.0  0.39477  0.53552  0.73719  1.0000
  Fe  Fe263     1.0  0.24629  0.63631  0.53122  1.0000
  C   C2283     1.0  0.27897  0.60331  0.82100  1.0000
  H   H4029     1.0  0.30538  0.58890  0.60166  1.0000
  C   C2284     1.0  0.26202  0.62726  0.84870  1.0000
  H   H4030     1.0  0.43040  0.66311  0.63457  1.0000
  C   C2285     1.0  0.43376  0.69088  0.60988  1.0000
  C   C2286     1.0  0.46444  0.66964  0.64119  1.0000
  H   H4031     1.0  0.30895  0.56210  0.59986  1.0000
  H   H4032     1.0  0.30107  0.56469  0.62798  1.0000
  C   C2287     1.0  0.40338  0.54534  0.70362  1.0000
  H   H4033     1.0  0.33600  0.69923  0.60685  1.0000
  H   H4034     1.0  0.48688  0.62430  0.69365  1.0000
  C   C2288     1.0  0.26944  0.62829  0.57463  1.0000
  H   H4035     1.0  0.41932  0.61847  0.78354  1.0000
  H   H4036     1.0  0.46179  0.68276  0.78439  1.0000
  H   H4037     1.0  0.42737  0.70411  0.60984  1.0000
  H   H4038     1.0  0.30434  0.64538  0.82097  1.0000
  H   H4039     1.0  0.38445  0.72480  0.72984  1.0000
  C   C2289     1.0  0.44668  0.69122  0.59319  1.0000
  H   H4040     1.0  0.41765  0.65557  0.62657  1.0000
  H   H4041     1.0  0.44477  0.63669  0.78527  1.0000
  H   H4042     1.0  0.28167  0.71329  0.64622  1.0000
  H   H4043     1.0  0.30416  0.49832  0.66242  1.0000
  C   C2290     1.0  0.24800  0.54434  0.71646  1.0000
  H   H4044     1.0  0.24199  0.65443  0.92722  1.0000
  C   C2291     1.0  0.26465  0.59121  0.62183  1.0000
  C   C2292     1.0  0.44365  0.65253  0.61389  1.0000
  C   C2293     1.0  0.27704  0.59916  0.59176  1.0000
  H   H4045     1.0  0.33799  0.68183  0.52634  1.0000
  H   H4046     1.0  0.29707  0.53703  0.60601  1.0000
  S   S514      1.0  0.28655  0.72074  0.81986  1.0000
  H   H4047     1.0  0.24173  0.55636  0.68700  1.0000
  H   H4048     1.0  0.46288  0.64404  0.64703  1.0000
  H   H4049     1.0  0.24053  0.63064  0.86891  1.0000
  H   H4050     1.0  0.25550  0.59845  0.74091  1.0000
  H   H4051     1.0  0.25062  0.71953  0.96688  1.0000
  H   H4052     1.0  0.24800  0.50063  0.68771  1.0000
  C   C2294     1.0  0.24870  0.66437  0.91991  1.0000
  Fe  Fe264     1.0  0.44791  0.72633  0.63173  1.0000
  H   H4053     1.0  0.47100  0.71488  0.66344  1.0000
  C   C2295     1.0  0.24646  0.67712  0.80112  1.0000
  H   H4054     1.0  0.45559  0.65716  0.76916  1.0000
  H   H4055     1.0  0.28794  0.51337  0.59935  1.0000
  S   S515      1.0  0.24918  0.50868  0.64818  1.0000
  Fe  Fe265     1.0  0.30547  0.71498  0.79733  1.0000
  H   H4056     1.0  0.25395  0.63399  0.83982  1.0000
  C   C2296     1.0  0.45754  0.65603  0.65020  1.0000
  C   C2297     1.0  0.47423  0.71613  0.67461  1.0000
  H   H4057     1.0  0.47715  0.68510  0.67524  1.0000
  H   H4058     1.0  0.41340  0.66660  0.75719  1.0000
  H   H4059     1.0  0.30636  0.69938  0.61725  1.0000
  S   S516      1.0  0.35314  0.72176  0.50432  1.0000
  C   C2298     1.0  0.24175  0.66863  0.81745  1.0000
  C   C2299     1.0  0.28068  0.63820  0.81249  1.0000
  C   C2300     1.0  0.29442  0.64387  0.51526  1.0000
  H   H4060     1.0  0.38836  0.70130  0.80718  1.0000
  C   C2301     1.0  0.46977  0.65423  0.73456  1.0000
  H   H4061     1.0  0.47575  0.67833  0.72878  1.0000
  H   H4062     1.0  0.31692  0.60963  0.83984  1.0000
  H   H4063     1.0  0.45194  0.67904  0.76116  1.0000
  C   C2302     1.0  0.34085  0.72551  0.48961  1.0000
  H   H4064     1.0  0.47141  0.66095  0.68108  1.0000
  H   H4065     1.0  0.24833  0.59941  0.71631  1.0000
  H   H4066     1.0  0.27487  0.65856  0.78148  1.0000
  C   C2303     1.0  0.33441  0.71710  0.72062  1.0000
  H   H4067     1.0  0.29021  0.58065  0.63932  1.0000
  H   H4068     1.0  0.47713  0.66919  0.77227  1.0000
  H   H4069     1.0  0.24792  0.71566  0.83425  1.0000
  C   C2304     1.0  0.29836  0.54550  0.59358  1.0000
  H   H4070     1.0  0.27137  0.56904  0.60142  1.0000
  H   H4071     1.0  0.39365  0.69729  0.59586  1.0000
  C   C2305     1.0  0.24459  0.56021  0.72317  1.0000
  H   H4072     1.0  0.37268  0.72076  0.61222  1.0000
  H   H4073     1.0  0.44054  0.69793  0.58271  1.0000
  C   C2306     1.0  0.25699  0.55869  0.73352  1.0000
  H   H4074     1.0  0.46338  0.71527  0.68520  1.0000
  H   H4075     1.0  0.31033  0.51615  0.70428  1.0000
  H   H4076     1.0  0.43289  0.55791  0.69421  1.0000
  C   C2307     1.0  0.29964  0.57788  0.62811  1.0000
  H   H4077     1.0  0.25488  0.54929  0.74526  1.0000
  H   H4078     1.0  0.33295  0.68169  0.62362  1.0000
  H   H4079     1.0  0.31919  0.57139  0.64165  1.0000
  H   H4080     1.0  0.38738  0.50793  0.74473  1.0000
  C   C2308     1.0  0.28163  0.57000  0.60640  1.0000
  C   C2309     1.0  0.29802  0.56296  0.59496  1.0000
  C   C2310     1.0  0.42756  0.66281  0.62284  1.0000
  H   H4081     1.0  0.35962  0.53562  0.75795  1.0000
  H   H4082     1.0  0.34071  0.61951  0.81889  1.0000
  H   H4083     1.0  0.45300  0.67861  0.59118  1.0000
  H   H4084     1.0  0.25961  0.62091  0.60050  1.0000
  N   N130      1.0  0.42035  0.66803  0.77900  1.0000
  H   H4085     1.0  0.35191  0.73083  0.68906  1.0000
  H   H4086     1.0  0.28734  0.72244  0.54011  1.0000
  H   H4087     1.0  0.28466  0.66748  0.50080  1.0000
  C   C2311     1.0  0.27053  0.61662  0.72997  1.0000
  C   C2312     1.0  0.40403  0.67898  0.78554  1.0000
  C   C2313     1.0  0.44655  0.63433  0.62308  1.0000
  H   H4088     1.0  0.36843  0.51716  0.73762  1.0000
  C   C2314     1.0  0.27956  0.64507  0.78194  1.0000
  C   C2315     1.0  0.28269  0.60909  0.74144  1.0000
  H   H4089     1.0  0.39474  0.69169  0.69341  1.0000
  H   H4090     1.0  0.24439  0.66399  0.84250  1.0000
  H   H4091     1.0  0.46961  0.63710  0.70512  1.0000
  H   H4092     1.0  0.25242  0.53349  0.72594  1.0000
  H   H4093     1.0  0.39556  0.53875  0.67893  1.0000
  H   H4094     1.0  0.28965  0.48393  0.65083  1.0000
  H   H4095     1.0  0.25339  0.56321  0.58545  1.0000
  H   H4096     1.0  0.27839  0.64441  0.84216  1.0000
  H   H4097     1.0  0.28296  0.70757  0.67647  1.0000
  H   H4098     1.0  0.25898  0.54514  0.70601  1.0000
  C   C2316     1.0  0.25111  0.60055  0.55781  1.0000
  H   H4099     1.0  0.27603  0.61165  0.71857  1.0000
  H   H4100     1.0  0.26964  0.63020  0.72667  1.0000
  H   H4101     1.0  0.26966  0.57770  0.55940  1.0000
  C   C2317     1.0  0.41890  0.65020  0.78624  1.0000
  H   H4102     1.0  0.26125  0.73027  0.59561  1.0000
  C   C2318     1.0  0.28438  0.72580  0.64379  1.0000
  N   N131      1.0  0.23991  0.62007  0.72866  1.0000
  C   C2319     1.0  0.31478  0.50298  0.70480  1.0000
  H   H4103     1.0  0.42768  0.61644  0.80131  1.0000
  H   H4104     1.0  0.28011  0.57946  0.83863  1.0000
  H   H4105     1.0  0.42009  0.69345  0.56393  1.0000
  H   H4106     1.0  0.47808  0.73053  0.70198  1.0000
  H   H4107     1.0  0.27778  0.61348  0.75322  1.0000
  H   H4108     1.0  0.28491  0.59536  0.74418  1.0000
  H   H4109     1.0  0.29476  0.61269  0.73534  1.0000
  H   H4110     1.0  0.40211  0.68408  0.57157  1.0000
  H   H4111     1.0  0.29940  0.57086  0.58228  1.0000
  H   H4112     1.0  0.27791  0.65140  0.81348  1.0000
  C   C2320     1.0  0.40051  0.70039  0.69624  1.0000
  H   H4113     1.0  0.36659  0.70737  0.70468  1.0000
  H   H4114     1.0  0.44329  0.65269  0.60110  1.0000
  H   H4115     1.0  0.24361  0.51473  0.71733  1.0000
  N   N132      1.0  0.39477  0.53126  0.71337  1.0000
  C   C2321     1.0  0.43020  0.61937  0.78757  1.0000
  H   H4116     1.0  0.43739  0.63846  0.76696  1.0000
  C   C2322     1.0  0.42264  0.67141  0.76043  1.0000
  H   H4117     1.0  0.26012  0.62413  0.87514  1.0000
  H   H4118     1.0  0.39944  0.70632  0.56570  1.0000
  H   H4119     1.0  0.26835  0.63555  0.81407  1.0000
  H   H4120     1.0  0.34137  0.61999  0.83948  1.0000
  C   C2323     1.0  0.37181  0.71545  0.70907  1.0000
  H   H4121     1.0  0.25161  0.71991  0.61584  1.0000
  C   C2324     1.0  0.27533  0.50010  0.73934  1.0000
  H   H4122     1.0  0.31034  0.54056  0.58567  1.0000
  C   C2325     1.0  0.29059  0.63753  0.79450  1.0000
  H   H4123     1.0  0.41326  0.51336  0.70076  1.0000
  H   H4124     1.0  0.42987  0.51907  0.71591  1.0000
  H   H4125     1.0  0.32596  0.48345  0.63287  1.0000
  H   H4126     1.0  0.28870  0.59750  0.58212  1.0000
  C   C2326     1.0  0.43412  0.67176  0.78429  1.0000
  H   H4127     1.0  0.26594  0.64172  0.57479  1.0000
  H   H4128     1.0  0.31397  0.62855  0.81080  1.0000
  H   H4129     1.0  0.25564  0.57081  0.73652  1.0000
  C   C2327     1.0  0.46482  0.67053  0.78098  1.0000
  C   C2328     1.0  0.31625  0.49337  0.65463  1.0000
  H   H4130     1.0  0.28052  0.56132  0.61874  1.0000
  C   C2329     1.0  0.42074  0.51130  0.72301  1.0000
  C   C2330     1.0  0.40711  0.68801  0.64209  1.0000
  H   H4131     1.0  0.43482  0.66447  0.75463  1.0000
  C   C2331     1.0  0.25478  0.72819  0.97156  1.0000
  H   H4132     1.0  0.46749  0.69328  0.60177  1.0000
  H   H4133     1.0  0.44167  0.68714  0.73052  1.0000
  S   S517      1.0  0.46279  0.62298  0.74245  1.0000
  H   H4134     1.0  0.29238  0.60262  0.61423  1.0000
  H   H4135     1.0  0.43104  0.68488  0.78562  1.0000
  H   H4136     1.0  0.29322  0.71984  0.68267  1.0000
  H   H4137     1.0  0.29676  0.62464  0.79323  1.0000
  H   H4138     1.0  0.36334  0.51385  0.76754  1.0000
  C   C2332     1.0  0.28188  0.72801  0.61555  1.0000
  H   H4139     1.0  0.41856  0.54388  0.72138  1.0000
  C   C2333     1.0  0.38614  0.53381  0.73063  1.0000
  H   H4140     1.0  0.28728  0.49893  0.58787  1.0000
  C   C2334     1.0  0.29218  0.60887  0.82629  1.0000
  H   H4141     1.0  0.39265  0.66412  0.80893  1.0000
  H   H4142     1.0  0.42692  0.69660  0.75661  1.0000
  C   C2335     1.0  0.37794  0.51962  0.74252  1.0000
  C   C2336     1.0  0.24469  0.61322  0.71324  1.0000
  C   C2337     1.0  0.43397  0.63667  0.78059  1.0000
  S   S518      1.0  0.34158  0.70666  0.55335  1.0000
  C   C2338     1.0  0.36937  0.52401  0.75935  1.0000
  C   C2339     1.0  0.27166  0.61798  0.59176  1.0000
  H   H4143     1.0  0.37648  0.54556  0.72988  1.0000
  H   H4144     1.0  0.41173  0.70623  0.58860  1.0000
  H   H4145     1.0  0.47706  0.72856  0.67210  1.0000
  H   H4146     1.0  0.24973  0.53052  0.67994  1.0000
  C   C2340     1.0  0.40685  0.69535  0.58914  1.0000
  H   H4147     1.0  0.36616  0.54644  0.67743  1.0000
  S   S519      1.0  0.35864  0.72072  0.58577  1.0000
  H   H4148     1.0  0.34184  0.70430  0.72043  1.0000
  S   S520      1.0  0.25350  0.49217  0.60905  1.0000
  S   S521      1.0  0.42055  0.73103  0.63302  1.0000
  H   H4149     1.0  0.30457  0.63781  0.52203  1.0000
  H   H4150     1.0  0.43681  0.62844  0.62242  1.0000
  C   C2341     1.0  0.29487  0.72508  0.65619  1.0000
  H   H4151     1.0  0.25939  0.62516  0.57104  1.0000
  H   H4152     1.0  0.31166  0.65847  0.48424  1.0000
  H   H4153     1.0  0.27600  0.71937  0.47560  1.0000
  C   C2342     1.0  0.25878  0.50465  0.68889  1.0000
  H   H4154     1.0  0.45428  0.71299  0.59454  1.0000
  Fe  Fe266     1.0  0.34512  0.72588  0.56479  1.0000
  H   H4155     1.0  0.33061  0.72256  0.70863  1.0000
  H   H4156     1.0  0.34832  0.72061  0.73605  1.0000
  H   H4157     1.0  0.24857  0.64217  0.71370  1.0000
  N   N133      1.0  0.29181  0.73155  0.62568  1.0000
  Fe  Fe267     1.0  0.24502  0.51310  0.62270  1.0000
  H   H4158     1.0  0.39491  0.72502  0.70013  1.0000
  H   H4159     1.0  0.24939  0.57036  0.76667  1.0000
  H   H4160     1.0  0.32203  0.65462  0.50047  1.0000
  H   H4161     1.0  0.24510  0.59866  0.60744  1.0000
  H   H4162     1.0  0.34413  0.65725  0.47741  1.0000
  C   C2343     1.0  0.24782  0.59036  0.61916  1.0000
  C   C2344     1.0  0.48549  0.68506  0.68307  1.0000
  C   C2345     1.0  0.43015  0.49318  0.72493  1.0000
  C   C2346     1.0  0.37841  0.72869  0.60126  1.0000
  H   H4163     1.0  0.24523  0.66900  0.72211  1.0000
  S   S522      1.0  0.30033  0.72815  0.77230  1.0000
  S   S523      1.0  0.23979  0.65417  0.54786  1.0000
  H   H4164     1.0  0.48880  0.64821  0.66963  1.0000
  C   C2347     1.0  0.27492  0.70698  0.47491  1.0000
  C   C2348     1.0  0.26730  0.48519  0.74779  1.0000
  H   H4165     1.0  0.24064  0.67741  0.93965  1.0000
  C   C2349     1.0  0.32364  0.73106  0.49370  1.0000
  H   H4166     1.0  0.48913  0.65432  0.70320  1.0000
  H   H4167     1.0  0.44035  0.49117  0.73135  1.0000
  H   H4168     1.0  0.25685  0.48266  0.72910  1.0000
  H   H4169     1.0  0.28849  0.72928  0.60231  1.0000
  C   C2350     1.0  0.24064  0.68067  0.92624  1.0000
  H   H4170     1.0  0.42171  0.48478  0.73242  1.0000
  C   C2351     1.0  0.24059  0.72835  0.83032  1.0000
  H   H4171     1.0  0.25426  0.48981  0.75401  1.0000
  C   C2352     1.0  0.48905  0.63152  0.74767  1.0000
  N   N134      1.0  0.35935  0.73148  0.71096  1.0000
  H   H4172     1.0  0.27889  0.83040  0.17067  1.0000
  H   H4173     1.0  0.28963  0.75323  0.04873  1.0000
  S   S524      1.0  0.26295  0.73941  0.16565  1.0000
  H   H4174     1.0  0.30865  0.73556  0.16700  1.0000
  H   H4175     1.0  0.30759  0.77091  0.46470  1.0000
  C   C2353     1.0  0.24191  0.87081  0.07269  1.0000
  C   C2354     1.0  0.33178  0.76011  0.30782  1.0000
  C   C2355     1.0  0.24302  0.86371  0.10160  1.0000
  C   C2356     1.0  0.28960  0.73699  0.33768  1.0000
  C   C2357     1.0  0.25972  0.79147  0.27111  1.0000
  H   H4176     1.0  0.24140  0.73409  0.14001  1.0000
  C   C2358     1.0  0.25427  0.86908  0.22394  1.0000
  H   H4177     1.0  0.28711  0.82546  0.31499  1.0000
  H   H4178     1.0  0.31509  0.78467  0.32579  1.0000
  C   C2359     1.0  0.37645  0.74546  0.25834  1.0000
  C   C2360     1.0  0.46906  0.74697  0.23415  1.0000
  Fe  Fe268     1.0  0.34250  0.77129  0.20115  1.0000
  S   S525      1.0  0.32236  0.76176  0.19709  1.0000
  S   S526      1.0  0.36566  0.75280  0.20719  1.0000
  Fe  Fe269     1.0  0.32386  0.80715  0.19423  1.0000
  S   S527      1.0  0.30219  0.80077  0.18973  1.0000
  S   S528      1.0  0.32101  0.83419  0.19315  1.0000
  Fe  Fe270     1.0  0.30495  0.77997  0.21166  1.0000
  S   S529      1.0  0.28173  0.77405  0.22950  1.0000
  Fe  Fe271     1.0  0.32120  0.78336  0.17550  1.0000
  S   S530      1.0  0.31699  0.78130  0.15171  1.0000
  S   S531      1.0  0.32508  0.78774  0.21769  1.0000
  S   S532      1.0  0.34300  0.79141  0.17790  1.0000
  H   H4179     1.0  0.24092  0.78272  0.12479  1.0000
  C   C2361     1.0  0.28262  0.77789  0.35705  1.0000
  C   C2362     1.0  0.36291  0.74177  0.13753  1.0000
  S   S533      1.0  0.26946  0.87785  0.12490  1.0000
  S   S534      1.0  0.26611  0.81267  0.28612  1.0000
  C   C2363     1.0  0.25636  0.83847  0.23044  1.0000
  Fe  Fe272     1.0  0.25490  0.79802  0.05425  1.0000
  H   H4180     1.0  0.26817  0.86500  0.19297  1.0000
  S   S535      1.0  0.28280  0.79026  0.04767  1.0000
  H   H4181     1.0  0.25035  0.86702  0.23769  1.0000
  C   C2364     1.0  0.24115  0.74185  0.33658  1.0000
  C   C2365     1.0  0.26603  0.78207  0.35549  1.0000
  Fe  Fe273     1.0  0.28993  0.89100  0.12056  1.0000
  S   S536      1.0  0.28371  0.90892  0.09757  1.0000
  S   S537      1.0  0.31571  0.87586  0.12112  1.0000
  H   H4182     1.0  0.25627  0.78592  0.98655  1.0000
  H   H4183     1.0  0.25197  0.80483  0.10351  1.0000
  H   H4184     1.0  0.47907  0.76179  0.26040  1.0000
  C   C2366     1.0  0.28178  0.95376  0.13196  1.0000
  C   C2367     1.0  0.29004  0.96128  0.13889  1.0000
  H   H4185     1.0  0.28048  0.94112  0.13733  1.0000
  H   H4186     1.0  0.29517  0.95435  0.14957  1.0000
  H   H4187     1.0  0.25520  0.76148  0.06911  1.0000
  H   H4188     1.0  0.32961  0.75938  0.27715  1.0000
  H   H4189     1.0  0.24208  0.75418  0.44464  1.0000
  H   H4190     1.0  0.30082  0.95802  0.08717  1.0000
  C   C2368     1.0  0.33870  0.75535  0.32377  1.0000
  H   H4191     1.0  0.47542  0.73391  0.21463  1.0000
  C   C2369     1.0  0.29317  0.77653  0.06277  1.0000
  C   C2370     1.0  0.30996  0.76913  0.05800  1.0000
  C   C2371     1.0  0.31826  0.75722  0.06954  1.0000
  C   C2372     1.0  0.30985  0.75271  0.08595  1.0000
  C   C2373     1.0  0.29328  0.76071  0.09088  1.0000
  C   C2374     1.0  0.28489  0.77244  0.07927  1.0000
  H   H4192     1.0  0.31647  0.77235  0.04526  1.0000
  C   C2375     1.0  0.24696  0.79074  0.12833  1.0000
  H   H4193     1.0  0.28701  0.75816  0.10370  1.0000
  H   H4194     1.0  0.27209  0.77839  0.08309  1.0000
  C   C2376     1.0  0.31958  0.84559  0.17308  1.0000
  C   C2377     1.0  0.33004  0.83984  0.15924  1.0000
  C   C2378     1.0  0.32898  0.84925  0.14324  1.0000
  C   C2379     1.0  0.31695  0.86401  0.14108  1.0000
  C   C2380     1.0  0.30612  0.86940  0.15491  1.0000
  C   C2381     1.0  0.30774  0.86048  0.17087  1.0000
  H   H4195     1.0  0.33924  0.82836  0.16086  1.0000
  H   H4196     1.0  0.33732  0.84496  0.13256  1.0000
  H   H4197     1.0  0.29667  0.88060  0.15334  1.0000
  H   H4198     1.0  0.29963  0.86501  0.18147  1.0000
  C   C2382     1.0  0.30077  0.77119  0.15543  1.0000
  C   C2383     1.0  0.29009  0.76858  0.17103  1.0000
  H   H4199     1.0  0.25185  0.75119  0.38565  1.0000
  Fe  Fe274     1.0  0.25463  0.89679  0.13978  1.0000
  C   C2384     1.0  0.28678  0.75597  0.14574  1.0000
  C   C2385     1.0  0.29903  0.76493  0.14281  1.0000
  H   H4200     1.0  0.29160  0.77310  0.18094  1.0000
  H   H4201     1.0  0.31385  0.74832  0.28924  1.0000
  H   H4202     1.0  0.28582  0.75095  0.13596  1.0000
  H   H4203     1.0  0.30765  0.76633  0.13096  1.0000
  C   C2386     1.0  0.27591  0.78598  0.24448  1.0000
  C   C2387     1.0  0.28454  0.79811  0.24294  1.0000
  C   C2388     1.0  0.28152  0.80616  0.25586  1.0000
  C   C2389     1.0  0.26321  0.78288  0.25841  1.0000
  H   H4204     1.0  0.29371  0.80118  0.23189  1.0000
  H   H4205     1.0  0.28890  0.81484  0.25500  1.0000
  H   H4206     1.0  0.28587  0.77483  0.44997  1.0000
  C   C2390     1.0  0.28829  0.76371  0.36851  1.0000
  C   C2391     1.0  0.27719  0.75394  0.37866  1.0000
  C   C2392     1.0  0.28805  0.74821  0.02600  1.0000
  C   C2393     1.0  0.26048  0.75851  0.37756  1.0000
  H   H4207     1.0  0.29108  0.78562  0.34937  1.0000
  H   H4208     1.0  0.25285  0.73754  0.21847  1.0000
  H   H4209     1.0  0.33114  0.75130  0.06567  1.0000
  H   H4210     1.0  0.25636  0.83806  0.24346  1.0000
  H   H4211     1.0  0.25636  0.77362  0.25958  1.0000
  C   C2394     1.0  0.31390  0.78662  0.31281  1.0000
  H   H4212     1.0  0.24306  0.88413  0.20299  1.0000
  H   H4213     1.0  0.27789  0.84371  0.24723  1.0000
  H   H4214     1.0  0.39794  0.74871  0.34345  1.0000
  C   C2395     1.0  0.36959  0.75024  0.22693  1.0000
  C   C2396     1.0  0.36021  0.76079  0.23760  1.0000
  C   C2397     1.0  0.36367  0.75846  0.25321  1.0000
  H   H4215     1.0  0.33993  0.75951  0.13223  1.0000
  H   H4216     1.0  0.24714  0.93190  0.18720  1.0000
  H   H4217     1.0  0.35053  0.77098  0.23374  1.0000
  H   H4218     1.0  0.35661  0.76690  0.26122  1.0000
  C   C2398     1.0  0.26920  0.80280  0.26998  1.0000
  Fe  Fe275     1.0  0.26776  0.92544  0.11483  1.0000
  H   H4219     1.0  0.37151  0.77286  0.12582  1.0000
  C   C2399     1.0  0.35353  0.75823  0.12807  1.0000
  H   H4220     1.0  0.24766  0.73584  0.46026  1.0000
  H   H4221     1.0  0.33177  0.74682  0.33367  1.0000
  S   S538      1.0  0.24253  0.82500  0.04823  1.0000
  H   H4222     1.0  0.28052  0.74062  0.07654  1.0000
  C   C2400     1.0  0.29222  0.76481  0.01594  1.0000
  H   H4223     1.0  0.31074  0.77721  0.25903  1.0000
  N   N135      1.0  0.27704  0.73294  0.05606  1.0000
  C   C2401     1.0  0.25419  0.74889  0.07651  1.0000
  H   H4224     1.0  0.25462  0.80935  0.18679  1.0000
  H   H4225     1.0  0.48882  0.77567  0.29487  1.0000
  H   H4226     1.0  0.24664  0.86594  0.11171  1.0000
  H   H4227     1.0  0.24857  0.75139  0.24935  1.0000
  N   N136      1.0  0.26337  0.85284  0.21883  1.0000
  H   H4228     1.0  0.30524  0.76047  0.33485  1.0000
  H   H4229     1.0  0.25002  0.78898  0.28193  1.0000
  H   H4230     1.0  0.24438  0.87871  0.06049  1.0000
  H   H4231     1.0  0.24619  0.80376  0.00704  1.0000
  C   C2402     1.0  0.26314  0.85408  0.20104  1.0000
  S   S539      1.0  0.38082  0.74291  0.27784  1.0000
  C   C2403     1.0  0.27540  0.96257  0.11800  1.0000
  H   H4232     1.0  0.27034  0.75656  0.18626  1.0000
  H   H4233     1.0  0.31242  0.73631  0.31937  1.0000
  H   H4234     1.0  0.25810  0.84245  0.17574  1.0000
  H   H4235     1.0  0.29218  0.79409  0.44636  1.0000
  C   C2404     1.0  0.30023  0.74501  0.32161  1.0000
  H   H4236     1.0  0.24607  0.95359  0.15090  1.0000
  H   H4237     1.0  0.31387  0.83005  0.12237  1.0000
  Fe  Fe276     1.0  0.26190  0.89712  0.10326  1.0000
  C   C2405     1.0  0.28133  0.84970  0.21988  1.0000
  H   H4238     1.0  0.27550  0.85256  0.16793  1.0000
  H   H4239     1.0  0.28654  0.79645  0.31768  1.0000
  H   H4240     1.0  0.26944  0.79249  0.19596  1.0000
  C   C2406     1.0  0.30297  0.84622  0.23625  1.0000
  C   C2407     1.0  0.48029  0.73322  0.22550  1.0000
  H   H4241     1.0  0.28791  0.85829  0.20962  1.0000
  H   H4242     1.0  0.28801  0.83694  0.21823  1.0000
  H   H4243     1.0  0.26940  0.75900  0.04465  1.0000
  H   H4244     1.0  0.36467  0.75513  0.31167  1.0000
  H   H4245     1.0  0.31293  0.75560  0.25986  1.0000
  C   C2408     1.0  0.29813  0.80064  0.31073  1.0000
  H   H4246     1.0  0.35868  0.94212  0.14165  1.0000
  C   C2409     1.0  0.28076  0.74890  0.04449  1.0000
  H   H4247     1.0  0.29724  0.76418  0.00273  1.0000
  H   H4248     1.0  0.31751  0.94799  0.07265  1.0000
  H   H4249     1.0  0.30498  0.84755  0.24797  1.0000
  H   H4250     1.0  0.30787  0.83304  0.23523  1.0000
  H   H4251     1.0  0.31006  0.85410  0.22570  1.0000
  N   N137      1.0  0.28241  0.81462  0.10449  1.0000
  C   C2410     1.0  0.28750  0.82736  0.11004  1.0000
  C   C2411     1.0  0.27691  0.82257  0.08835  1.0000
  C   C2412     1.0  0.26753  0.80972  0.11732  1.0000
  C   C2413     1.0  0.29598  0.79919  0.10279  1.0000
  C   C2414     1.0  0.31425  0.80118  0.09819  1.0000
  C   C2415     1.0  0.29052  0.82208  0.12795  1.0000
  C   C2416     1.0  0.25915  0.79794  0.11318  1.0000
  C   C2417     1.0  0.29024  0.82860  0.07333  1.0000
  C   C2418     1.0  0.28268  0.83733  0.05821  1.0000
  C   C2419     1.0  0.32629  0.78553  0.09349  1.0000
  C   C2420     1.0  0.30132  0.83220  0.13056  1.0000
  C   C2421     1.0  0.33248  0.73368  0.23899  1.0000
  H   H4252     1.0  0.27778  0.83911  0.10942  1.0000
  H   H4253     1.0  0.29876  0.83110  0.10149  1.0000
  H   H4254     1.0  0.27235  0.81372  0.08431  1.0000
  H   H4255     1.0  0.26625  0.83330  0.09001  1.0000
  H   H4256     1.0  0.25779  0.82098  0.11969  1.0000
  H   H4257     1.0  0.27109  0.80331  0.12937  1.0000
  H   H4258     1.0  0.29489  0.78964  0.11450  1.0000
  H   H4259     1.0  0.29438  0.79328  0.09351  1.0000
  H   H4260     1.0  0.31759  0.80331  0.10888  1.0000
  H   H4261     1.0  0.31643  0.81174  0.08767  1.0000
  H   H4262     1.0  0.27843  0.82403  0.13696  1.0000
  H   H4263     1.0  0.29657  0.80875  0.13099  1.0000
  H   H4264     1.0  0.26849  0.78741  0.10875  1.0000
  S   S540      1.0  0.30937  0.75819  0.36954  1.0000
  H   H4265     1.0  0.29591  0.83752  0.07587  1.0000
  H   H4266     1.0  0.30004  0.81784  0.06989  1.0000
  H   H4267     1.0  0.27296  0.84849  0.06070  1.0000
  H   H4268     1.0  0.29249  0.84133  0.04750  1.0000
  H   H4269     1.0  0.27715  0.82878  0.05482  1.0000
  H   H4270     1.0  0.32423  0.78348  0.08209  1.0000
  H   H4271     1.0  0.33927  0.78694  0.09108  1.0000
  C   C2422     1.0  0.27306  0.83878  0.19362  1.0000
  H   H4272     1.0  0.29556  0.84565  0.12797  1.0000
  H   H4273     1.0  0.30280  0.82835  0.14359  1.0000
  H   H4274     1.0  0.25710  0.75566  0.09798  1.0000
  H   H4275     1.0  0.29431  0.76661  0.27133  1.0000
  H   H4276     1.0  0.26453  0.82650  0.22791  1.0000
  H   H4277     1.0  0.30182  0.80015  0.46907  1.0000
  C   C2423     1.0  0.48034  0.76025  0.27325  1.0000
  H   H4278     1.0  0.26141  0.92812  0.16802  1.0000
  H   H4279     1.0  0.33788  0.76638  0.32849  1.0000
  H   H4280     1.0  0.28145  0.74284  0.38729  1.0000
  C   C2424     1.0  0.35702  0.74653  0.32048  1.0000
  C   C2425     1.0  0.31601  0.76064  0.28205  1.0000
  C   C2426     1.0  0.27789  0.75943  0.17401  1.0000
  C   C2427     1.0  0.46385  0.77044  0.28192  1.0000
  H   H4281     1.0  0.24209  0.75131  0.34265  1.0000
  H   H4282     1.0  0.25029  0.85656  0.19928  1.0000
  C   C2428     1.0  0.35802  0.77326  0.13059  1.0000
  C   C2429     1.0  0.44896  0.76404  0.28177  1.0000
  C   C2430     1.0  0.27097  0.73629  0.07329  1.0000
  C   C2431     1.0  0.29195  0.97766  0.13197  1.0000
  H   H4283     1.0  0.24740  0.74123  0.99115  1.0000
  H   H4284     1.0  0.30170  0.76778  0.02056  1.0000
  C   C2432     1.0  0.28585  0.78482  0.45590  1.0000
  H   H4285     1.0  0.36192  0.74347  0.15011  1.0000
  H   H4286     1.0  0.29743  0.80509  0.29751  1.0000
  S   S541      1.0  0.30843  0.73558  0.45201  1.0000
  H   H4287     1.0  0.26052  0.76543  0.21112  1.0000
  H   H4288     1.0  0.35098  0.78484  0.12384  1.0000
  H   H4289     1.0  0.33085  0.73592  0.14061  1.0000
  H   H4290     1.0  0.24111  0.75542  0.19658  1.0000
  H   H4291     1.0  0.46195  0.78370  0.27543  1.0000
  H   H4292     1.0  0.46370  0.76962  0.29504  1.0000
  H   H4293     1.0  0.26356  0.74556  0.44562  1.0000
  C   C2433     1.0  0.30207  0.76202  0.32277  1.0000
  H   H4294     1.0  0.29960  0.73846  0.02447  1.0000
  C   C2434     1.0  0.25624  0.79918  0.19782  1.0000
  C   C2435     1.0  0.38241  0.73730  0.23207  1.0000
  S   S542      1.0  0.32026  0.73706  0.09996  1.0000
  H   H4295     1.0  0.27275  0.79083  0.46054  1.0000
  H   H4296     1.0  0.44850  0.76435  0.26892  1.0000
  H   H4297     1.0  0.44965  0.75111  0.28912  1.0000
  H   H4298     1.0  0.43727  0.77193  0.28735  1.0000
  H   H4299     1.0  0.28020  0.86453  0.23763  1.0000
  C   C2436     1.0  0.28445  0.85146  0.23620  1.0000
  S   S543      1.0  0.27578  0.90840  0.13741  1.0000
  C   C2437     1.0  0.29494  0.77731  0.47010  1.0000
  N   N138      1.0  0.33226  0.92445  0.11753  1.0000
  C   C2438     1.0  0.31900  0.91969  0.13244  1.0000
  C   C2439     1.0  0.32410  0.93770  0.10481  1.0000
  C   C2440     1.0  0.34147  0.90910  0.11095  1.0000
  C   C2441     1.0  0.34445  0.93139  0.12192  1.0000
  C   C2442     1.0  0.33672  0.94510  0.13213  1.0000
  C   C2443     1.0  0.32521  0.90674  0.14723  1.0000
  C   C2444     1.0  0.35404  0.91187  0.09415  1.0000
  C   C2445     1.0  0.31226  0.93248  0.09743  1.0000
  C   C2446     1.0  0.30675  0.94613  0.08311  1.0000
  C   C2447     1.0  0.35012  0.95206  0.13477  1.0000
  C   C2448     1.0  0.31141  0.90615  0.16290  1.0000
  C   C2449     1.0  0.36252  0.89540  0.08888  1.0000
  H   H4300     1.0  0.31043  0.91420  0.12904  1.0000
  H   H4301     1.0  0.31109  0.93087  0.13685  1.0000
  H   H4302     1.0  0.31647  0.94848  0.11024  1.0000
  H   H4303     1.0  0.33359  0.94289  0.09444  1.0000
  H   H4304     1.0  0.33263  0.90238  0.10976  1.0000
  H   H4305     1.0  0.34851  0.90007  0.11999  1.0000
  H   H4306     1.0  0.35301  0.92136  0.12876  1.0000
  H   H4307     1.0  0.35272  0.93685  0.11046  1.0000
  H   H4308     1.0  0.32957  0.94014  0.14454  1.0000
  H   H4309     1.0  0.32830  0.95565  0.12574  1.0000
  H   H4310     1.0  0.32923  0.89419  0.14436  1.0000
  H   H4311     1.0  0.33580  0.90954  0.15012  1.0000
  H   H4312     1.0  0.36383  0.91754  0.09502  1.0000
  H   H4313     1.0  0.34777  0.92006  0.08420  1.0000
  H   H4314     1.0  0.31819  0.92105  0.09260  1.0000
  H   H4315     1.0  0.30096  0.93030  0.10701  1.0000
  H   H4316     1.0  0.25689  0.73869  0.42255  1.0000
  H   H4317     1.0  0.24422  0.76324  0.01398  1.0000
  H   H4318     1.0  0.24423  0.74513  0.07347  1.0000
  H   H4319     1.0  0.35732  0.95781  0.12271  1.0000
  Fe  Fe277     1.0  0.31555  0.73742  0.39108  1.0000
  C   C2450     1.0  0.30796  0.76535  0.26718  1.0000
  H   H4320     1.0  0.30822  0.91796  0.16716  1.0000
  H   H4321     1.0  0.30010  0.90413  0.16060  1.0000
  H   H4322     1.0  0.31565  0.89578  0.17287  1.0000
  H   H4323     1.0  0.35317  0.88941  0.08751  1.0000
  H   H4324     1.0  0.37140  0.89763  0.07679  1.0000
  H   H4325     1.0  0.36947  0.88682  0.09817  1.0000
  H   H4326     1.0  0.32475  0.79179  0.30480  1.0000
  H   H4327     1.0  0.35466  0.77365  0.14393  1.0000
  H   H4328     1.0  0.35694  0.75874  0.11455  1.0000
  H   H4329     1.0  0.34972  0.73589  0.11486  1.0000
  H   H4330     1.0  0.33308  0.74821  0.30438  1.0000
  H   H4331     1.0  0.32465  0.77447  0.10364  1.0000
  H   H4332     1.0  0.48607  0.79134  0.26929  1.0000
  H   H4333     1.0  0.28646  0.83674  0.19314  1.0000
  H   H4334     1.0  0.37630  0.74057  0.13134  1.0000
  C   C2451     1.0  0.24763  0.77247  0.21507  1.0000
  N   N139      1.0  0.31423  0.77035  0.30894  1.0000
  C   C2452     1.0  0.27124  0.84126  0.17590  1.0000
  H   H4335     1.0  0.34416  0.96181  0.14209  1.0000
  C   C2453     1.0  0.25490  0.77242  0.36587  1.0000
  H   H4336     1.0  0.24831  0.78263  0.18855  1.0000
  H   H4337     1.0  0.24798  0.77739  0.22566  1.0000
  C   C2454     1.0  0.29838  0.81563  0.31687  1.0000
  H   H4338     1.0  0.34040  0.76679  0.29762  1.0000
  H   H4339     1.0  0.29547  0.77775  0.29427  1.0000
  S   S544      1.0  0.26552  0.95332  0.10857  1.0000
  C   C2455     1.0  0.24405  0.79401  0.98737  1.0000
  H   H4340     1.0  0.27893  0.74574  0.02054  1.0000
  H   H4341     1.0  0.28937  0.77000  0.32377  1.0000
  H   H4342     1.0  0.30950  0.82074  0.30988  1.0000
  H   H4343     1.0  0.29840  0.81214  0.33029  1.0000
  C   C2456     1.0  0.24433  0.74393  0.22831  1.0000
  C   C2457     1.0  0.40524  0.73759  0.33848  1.0000
  S   S545      1.0  0.25462  0.89149  0.08248  1.0000
  C   C2458     1.0  0.24868  0.74993  0.09472  1.0000
  H   H4344     1.0  0.31390  0.78520  0.28411  1.0000
  H   H4345     1.0  0.28092  0.77498  0.01679  1.0000
  H   H4346     1.0  0.25009  0.91267  0.18102  1.0000
  H   H4347     1.0  0.26177  0.79294  0.34653  1.0000
  C   C2459     1.0  0.30928  0.77419  0.29249  1.0000
  H   H4348     1.0  0.26867  0.82743  0.20102  1.0000
  C   C2460     1.0  0.27634  0.75296  0.16142  1.0000
  C   C2461     1.0  0.25495  0.74308  0.24065  1.0000
  H   H4349     1.0  0.25312  0.80465  0.20886  1.0000
  H   H4350     1.0  0.45593  0.74573  0.23733  1.0000
  H   H4351     1.0  0.29752  0.94255  0.07869  1.0000
  H   H4352     1.0  0.26276  0.87787  0.22010  1.0000
  Fe  Fe278     1.0  0.24315  0.80819  0.30502  1.0000
  H   H4353     1.0  0.33162  0.74663  0.23165  1.0000
  H   H4354     1.0  0.29376  0.74673  0.31155  1.0000
  H   H4355     1.0  0.35890  0.73558  0.31515  1.0000
  H   H4356     1.0  0.24473  0.97628  0.21288  1.0000
  H   H4357     1.0  0.46991  0.75931  0.22587  1.0000
  H   H4358     1.0  0.26682  0.74673  0.23377  1.0000
  H   H4359     1.0  0.27712  0.74522  0.34044  1.0000
  H   H4360     1.0  0.48081  0.74690  0.27916  1.0000
  H   H4361     1.0  0.41326  0.74177  0.32627  1.0000
  H   H4362     1.0  0.25357  0.78302  0.13823  1.0000
  C   C2462     1.0  0.24935  0.92624  0.17643  1.0000
  C   C2463     1.0  0.24506  0.78728  0.20013  1.0000
  C   C2464     1.0  0.25140  0.74244  0.44722  1.0000
  C   C2465     1.0  0.24613  0.87405  0.08591  1.0000
  S   S546      1.0  0.24020  0.88787  0.16530  1.0000
  S   S547      1.0  0.24524  0.91527  0.11843  1.0000
  C   C2466     1.0  0.27676  0.97916  0.11142  1.0000
  S   S548      1.0  0.33462  0.73726  0.40464  1.0000
  H   H4363     1.0  0.25378  0.73907  0.04847  1.0000
  H   H4364     1.0  0.24650  0.74522  0.32311  1.0000
  H   H4365     1.0  0.33571  0.74332  0.16453  1.0000
  C   C2467     1.0  0.38571  0.73477  0.24778  1.0000
  H   H4366     1.0  0.42399  0.73318  0.35215  1.0000
  H   H4367     1.0  0.47277  0.74620  0.24573  1.0000
  H   H4368     1.0  0.24868  0.73738  0.10276  1.0000
  H   H4369     1.0  0.36142  0.74227  0.33225  1.0000
  H   H4370     1.0  0.24286  0.81099  0.23674  1.0000
  H   H4371     1.0  0.24250  0.84725  0.14371  1.0000
  H   H4372     1.0  0.29564  0.73452  0.34825  1.0000
  H   H4373     1.0  0.24639  0.97982  0.13884  1.0000
  H   H4374     1.0  0.31979  0.73214  0.24582  1.0000
  C   C2468     1.0  0.24239  0.73279  0.98704  1.0000
  H   H4375     1.0  0.24006  0.94892  0.21228  1.0000
  S   S549      1.0  0.23932  0.78972  0.04240  1.0000
  H   H4376     1.0  0.31445  0.73185  0.18644  1.0000
  C   C2469     1.0  0.41153  0.80478  0.64625  1.0000
  C   C2470     1.0  0.24282  0.96614  0.84737  1.0000
  C   C2471     1.0  0.35114  0.76655  0.49149  1.0000
  H   H4377     1.0  0.24590  0.83427  0.73491  1.0000
  H   H4378     1.0  0.29216  0.75554  0.59540  1.0000
  H   H4379     1.0  0.27568  0.82458  0.65465  1.0000
  H   H4380     1.0  0.23938  0.86077  0.68659  1.0000
  S   S550      1.0  0.30661  0.77957  0.54759  1.0000
  H   H4381     1.0  0.35875  0.76120  0.50102  1.0000
  H   H4382     1.0  0.35550  0.77764  0.48317  1.0000
  C   C2472     1.0  0.31118  0.74401  0.76235  1.0000
  S   S551      1.0  0.42187  0.77086  0.62486  1.0000
  C   C2473     1.0  0.28669  0.82493  0.51170  1.0000
  H   H4383     1.0  0.24802  0.88795  0.89248  1.0000
  H   H4384     1.0  0.25721  0.94178  0.84539  1.0000
  C   C2474     1.0  0.24505  0.94278  0.73521  1.0000
  H   H4385     1.0  0.29799  0.83018  0.50765  1.0000
  H   H4386     1.0  0.27250  0.75172  0.51605  1.0000
  C   C2475     1.0  0.33592  0.76221  0.67751  1.0000
  H   H4387     1.0  0.35870  0.76441  0.59232  1.0000
  H   H4388     1.0  0.25143  0.93075  0.73163  1.0000
  H   H4389     1.0  0.25778  0.87125  0.88174  1.0000
  H   H4390     1.0  0.31159  0.75376  0.60071  1.0000
  H   H4391     1.0  0.25594  0.80497  0.58292  1.0000
  H   H4392     1.0  0.37632  0.74770  0.70551  1.0000
  C   C2476     1.0  0.25004  0.77645  0.81629  1.0000
  S   S552      1.0  0.24462  0.81964  0.88585  1.0000
  H   H4393     1.0  0.32955  0.76006  0.50894  1.0000
  S   S553      1.0  0.26865  0.76501  0.65819  1.0000
  H   H4394     1.0  0.27465  0.78474  0.52195  1.0000
  Fe  Fe279     1.0  0.30415  0.83978  0.70868  1.0000
  S   S554      1.0  0.29733  0.81754  0.72742  1.0000
  S   S555      1.0  0.29556  0.86465  0.71584  1.0000
  Fe  Fe280     1.0  0.32368  0.81935  0.68320  1.0000
  S   S556      1.0  0.31791  0.79564  0.69991  1.0000
  S   S557      1.0  0.34053  0.81687  0.65844  1.0000
  Fe  Fe281     1.0  0.29226  0.81067  0.70648  1.0000
  S   S558      1.0  0.26890  0.80150  0.71199  1.0000
  Fe  Fe282     1.0  0.32352  0.80463  0.71924  1.0000
  S   S559      1.0  0.33804  0.78642  0.73711  1.0000
  S   S560      1.0  0.29723  0.83385  0.68795  1.0000
  S   S561      1.0  0.33117  0.82744  0.70222  1.0000
  H   H4395     1.0  0.37571  0.77419  0.69210  1.0000
  C   C2477     1.0  0.25404  0.83356  0.67258  1.0000
  C   C2478     1.0  0.48490  0.73950  0.70264  1.0000
  Fe  Fe283     1.0  0.42546  0.75129  0.61059  1.0000
  C   C2479     1.0  0.32785  0.76999  0.74662  1.0000
  C   C2480     1.0  0.31269  0.77051  0.74321  1.0000
  C   C2481     1.0  0.30442  0.75751  0.75099  1.0000
  C   C2482     1.0  0.33481  0.75633  0.75772  1.0000
  H   H4396     1.0  0.30714  0.78098  0.73471  1.0000
  H   H4397     1.0  0.29261  0.75807  0.74839  1.0000
  C   C2483     1.0  0.30297  0.79919  0.50066  1.0000
  C   C2484     1.0  0.26925  0.77300  0.67453  1.0000
  C   C2485     1.0  0.25467  0.77739  0.68607  1.0000
  C   C2486     1.0  0.25479  0.78555  0.69804  1.0000
  C   C2487     1.0  0.26939  0.78971  0.69815  1.0000
  C   C2488     1.0  0.28406  0.78495  0.68685  1.0000
  C   C2489     1.0  0.28407  0.77625  0.67526  1.0000
  H   H4398     1.0  0.24348  0.78907  0.70688  1.0000
  H   H4399     1.0  0.35305  0.75708  0.48418  1.0000
  H   H4400     1.0  0.29529  0.78822  0.68680  1.0000
  H   H4401     1.0  0.29537  0.77272  0.66644  1.0000
  H   H4402     1.0  0.24747  0.76328  0.86854  1.0000
  H   H4403     1.0  0.39166  0.75217  0.72414  1.0000
  H   H4404     1.0  0.32735  0.78641  0.47645  1.0000
  H   H4405     1.0  0.48716  0.79831  0.62667  1.0000
  H   H4406     1.0  0.40043  0.80692  0.69678  1.0000
  C   C2490     1.0  0.29115  0.74990  0.62231  1.0000
  H   H4407     1.0  0.37454  0.82407  0.70968  1.0000
  C   C2491     1.0  0.25769  0.92056  0.82733  1.0000
  H   H4408     1.0  0.33522  0.80633  0.62884  1.0000
  H   H4409     1.0  0.27123  0.76093  0.89033  1.0000
  C   C2492     1.0  0.25935  0.86093  0.76604  1.0000
  C   C2493     1.0  0.26826  0.87354  0.76033  1.0000
  C   C2494     1.0  0.27889  0.87515  0.74455  1.0000
  C   C2495     1.0  0.28048  0.86423  0.73447  1.0000
  C   C2496     1.0  0.27065  0.85242  0.73978  1.0000
  C   C2497     1.0  0.26028  0.85061  0.75562  1.0000
  H   H4410     1.0  0.26759  0.88153  0.76837  1.0000
  H   H4411     1.0  0.28636  0.88441  0.74043  1.0000
  H   H4412     1.0  0.27115  0.84457  0.73172  1.0000
  H   H4413     1.0  0.25317  0.84104  0.75991  1.0000
  H   H4414     1.0  0.28241  0.79759  0.48205  1.0000
  H   H4415     1.0  0.26153  0.82929  0.68218  1.0000
  C   C2498     1.0  0.32855  0.79607  0.63249  1.0000
  H   H4416     1.0  0.28829  0.76795  0.47899  1.0000
  H   H4417     1.0  0.30069  0.73826  0.48546  1.0000
  H   H4418     1.0  0.32436  0.79880  0.60832  1.0000
  H   H4419     1.0  0.32298  0.76628  0.48206  1.0000
  H   H4420     1.0  0.33164  0.78085  0.50681  1.0000
  C   C2499     1.0  0.38308  0.77202  0.66659  1.0000
  C   C2500     1.0  0.38010  0.77906  0.65069  1.0000
  C   C2501     1.0  0.36736  0.79322  0.64812  1.0000
  C   C2502     1.0  0.35714  0.79991  0.66151  1.0000
  C   C2503     1.0  0.36010  0.79282  0.67738  1.0000
  C   C2504     1.0  0.37315  0.77905  0.67988  1.0000
  H   H4421     1.0  0.38756  0.77363  0.64037  1.0000
  H   H4422     1.0  0.36531  0.79891  0.63582  1.0000
  H   H4423     1.0  0.35255  0.79814  0.68775  1.0000
  H   H4424     1.0  0.24815  0.96588  0.78483  1.0000
  C   C2505     1.0  0.28656  0.78033  0.55999  1.0000
  C   C2506     1.0  0.27919  0.76677  0.56358  1.0000
  C   C2507     1.0  0.26327  0.76722  0.57367  1.0000
  C   C2508     1.0  0.25498  0.78082  0.58089  1.0000
  C   C2509     1.0  0.26238  0.79437  0.57745  1.0000
  C   C2510     1.0  0.27804  0.79426  0.56670  1.0000
  H   H4425     1.0  0.28571  0.75595  0.55853  1.0000
  H   H4426     1.0  0.25750  0.75686  0.57620  1.0000
  H   H4427     1.0  0.26443  0.75174  0.60921  1.0000
  H   H4428     1.0  0.28374  0.80476  0.56398  1.0000
  H   H4429     1.0  0.24554  0.94359  0.86591  1.0000
  H   H4430     1.0  0.36524  0.74444  0.68540  1.0000
  Fe  Fe284     1.0  0.24680  0.78079  0.64781  1.0000
  H   H4431     1.0  0.25286  0.97001  0.85022  1.0000
  H   H4432     1.0  0.24645  0.83613  0.70561  1.0000
  H   H4433     1.0  0.34653  0.75586  0.76042  1.0000
  C   C2511     1.0  0.25512  0.94591  0.74572  1.0000
  H   H4434     1.0  0.30194  0.76804  0.51724  1.0000
  C   C2512     1.0  0.27068  0.76072  0.52386  1.0000
  H   H4435     1.0  0.25626  0.76121  0.79811  1.0000
  H   H4436     1.0  0.27826  0.91375  0.80741  1.0000
  C   C2513     1.0  0.48625  0.75752  0.64147  1.0000
  H   H4437     1.0  0.29902  0.78056  0.61089  1.0000
  C   C2514     1.0  0.26403  0.73880  0.61610  1.0000
  H   H4438     1.0  0.45790  0.76186  0.66822  1.0000
  H   H4439     1.0  0.33520  0.75945  0.64079  1.0000
  C   C2515     1.0  0.26254  0.82344  0.65927  1.0000
  H   H4440     1.0  0.30523  0.81405  0.63039  1.0000
  H   H4441     1.0  0.40561  0.79400  0.64921  1.0000
  H   H4442     1.0  0.36846  0.76147  0.61565  1.0000
  H   H4443     1.0  0.33591  0.73927  0.72742  1.0000
  N   N140      1.0  0.29915  0.81339  0.77998  1.0000
  C   C2516     1.0  0.31533  0.81733  0.76921  1.0000
  C   C2517     1.0  0.30298  0.79797  0.79309  1.0000
  C   C2518     1.0  0.28937  0.81087  0.76914  1.0000
  C   C2519     1.0  0.28896  0.82741  0.78827  1.0000
  C   C2520     1.0  0.29740  0.83257  0.79923  1.0000
  C   C2521     1.0  0.31406  0.83433  0.75664  1.0000
  C   C2522     1.0  0.27272  0.80557  0.77805  1.0000
  C   C2523     1.0  0.31050  0.78151  0.78696  1.0000
  C   C2524     1.0  0.31336  0.76680  0.80142  1.0000
  C   C2525     1.0  0.28603  0.84731  0.80632  1.0000
  C   C2526     1.0  0.33101  0.83619  0.74551  1.0000
  C   C2527     1.0  0.26568  0.80038  0.76624  1.0000
  H   H4444     1.0  0.32178  0.80763  0.76189  1.0000
  H   H4445     1.0  0.32405  0.81680  0.77689  1.0000
  H   H4446     1.0  0.31199  0.79929  0.79953  1.0000
  H   H4447     1.0  0.29174  0.79631  0.80297  1.0000
  H   H4448     1.0  0.29714  0.80178  0.76148  1.0000
  H   H4449     1.0  0.28596  0.82258  0.76018  1.0000
  H   H4450     1.0  0.28490  0.83859  0.77891  1.0000
  H   H4451     1.0  0.27725  0.82416  0.79641  1.0000
  H   H4452     1.0  0.30918  0.83627  0.79206  1.0000
  H   H4453     1.0  0.30009  0.82221  0.80983  1.0000
  H   H4454     1.0  0.30568  0.83567  0.74842  1.0000
  H   H4455     1.0  0.30936  0.84481  0.76308  1.0000
  H   H4456     1.0  0.26338  0.81605  0.78269  1.0000
  H   H4457     1.0  0.27427  0.79501  0.78862  1.0000
  H   H4458     1.0  0.30215  0.77878  0.78075  1.0000
  H   H4459     1.0  0.32262  0.78208  0.77816  1.0000
  H   H4460     1.0  0.30143  0.76537  0.81032  1.0000
  H   H4461     1.0  0.31879  0.75519  0.79674  1.0000
  H   H4462     1.0  0.32207  0.76842  0.80799  1.0000
  H   H4463     1.0  0.28326  0.85821  0.79617  1.0000
  H   H4464     1.0  0.27414  0.84409  0.81398  1.0000
  H   H4465     1.0  0.29220  0.85080  0.81423  1.0000
  H   H4466     1.0  0.33984  0.83579  0.75297  1.0000
  H   H4467     1.0  0.33611  0.82614  0.73847  1.0000
  H   H4468     1.0  0.32965  0.84830  0.73648  1.0000
  H   H4469     1.0  0.27425  0.78936  0.76186  1.0000
  H   H4470     1.0  0.25352  0.79712  0.77270  1.0000
  H   H4471     1.0  0.26381  0.81068  0.75534  1.0000
  C   C2528     1.0  0.42346  0.82116  0.65742  1.0000
  C   C2529     1.0  0.43344  0.82086  0.67009  1.0000
  C   C2530     1.0  0.40152  0.81931  0.63515  1.0000
  C   C2531     1.0  0.44095  0.83618  0.66516  1.0000
  C   C2532     1.0  0.40309  0.81539  0.61844  1.0000
  H   H4472     1.0  0.27004  0.78186  0.50376  1.0000
  H   H4473     1.0  0.42404  0.80112  0.63835  1.0000
  H   H4474     1.0  0.43284  0.82005  0.64564  1.0000
  H   H4475     1.0  0.41549  0.83383  0.65473  1.0000
  C   C2533     1.0  0.33018  0.78856  0.61748  1.0000
  C   C2534     1.0  0.44628  0.76865  0.67516  1.0000
  H   H4476     1.0  0.40594  0.83090  0.63282  1.0000
  H   H4477     1.0  0.38808  0.82152  0.64109  1.0000
  H   H4478     1.0  0.44932  0.83686  0.65268  1.0000
  H   H4479     1.0  0.43102  0.84767  0.66512  1.0000
  H   H4480     1.0  0.44834  0.83546  0.67418  1.0000
  H   H4481     1.0  0.39603  0.82610  0.61071  1.0000
  H   H4482     1.0  0.41630  0.81299  0.61173  1.0000
  H   H4483     1.0  0.39789  0.80438  0.62020  1.0000
  H   H4484     1.0  0.36183  0.74705  0.65147  1.0000
  H   H4485     1.0  0.25819  0.91580  0.80356  1.0000
  C   C2535     1.0  0.25851  0.78137  0.82746  1.0000
  C   C2536     1.0  0.25726  0.79314  0.85074  1.0000
  C   C2537     1.0  0.26869  0.80573  0.84238  1.0000
  H   H4486     1.0  0.25673  0.93521  0.75633  1.0000
  S   S562      1.0  0.44537  0.74302  0.64848  1.0000
  C   C2538     1.0  0.26212  0.76362  0.80696  1.0000
  C   C2539     1.0  0.28147  0.80385  0.85246  1.0000
  H   H4487     1.0  0.38791  0.80559  0.67277  1.0000
  H   H4488     1.0  0.27564  0.83533  0.51107  1.0000
  C   C2540     1.0  0.37568  0.82116  0.69756  1.0000
  H   H4489     1.0  0.26743  0.78869  0.81888  1.0000
  C   C2541     1.0  0.33284  0.77128  0.49990  1.0000
  H   H4490     1.0  0.37032  0.81012  0.69991  1.0000
  H   H4491     1.0  0.26522  0.78097  0.85531  1.0000
  H   H4492     1.0  0.26117  0.81864  0.84129  1.0000
  H   H4493     1.0  0.27562  0.80412  0.82982  1.0000
  H   H4494     1.0  0.25169  0.84562  0.85796  1.0000
  Fe  Fe285     1.0  0.44908  0.76237  0.62515  1.0000
  H   H4495     1.0  0.32826  0.75177  0.70324  1.0000
  H   H4496     1.0  0.34668  0.76672  0.66863  1.0000
  H   H4497     1.0  0.27375  0.76775  0.80000  1.0000
  H   H4498     1.0  0.26533  0.75186  0.81591  1.0000
  C   C2542     1.0  0.29544  0.79086  0.47865  1.0000
  H   H4499     1.0  0.28856  0.81381  0.84687  1.0000
  H   H4500     1.0  0.27528  0.80481  0.86541  1.0000
  H   H4501     1.0  0.29033  0.79166  0.85253  1.0000
  H   H4502     1.0  0.30457  0.79456  0.51367  1.0000
  H   H4503     1.0  0.39873  0.82881  0.68734  1.0000
  C   C2543     1.0  0.29610  0.77159  0.50640  1.0000
  H   H4504     1.0  0.26763  0.94731  0.73816  1.0000
  H   H4505     1.0  0.24327  0.77456  0.68574  1.0000
  Fe  Fe286     1.0  0.41854  0.75022  0.64715  1.0000
  H   H4506     1.0  0.25092  0.84722  0.91966  1.0000
  C   C2544     1.0  0.32168  0.77734  0.48701  1.0000
  S   S563      1.0  0.39923  0.75463  0.67013  1.0000
  C   C2545     1.0  0.27457  0.75107  0.88369  1.0000
  C   C2546     1.0  0.35757  0.74117  0.64387  1.0000
  C   C2547     1.0  0.34083  0.78431  0.58091  1.0000
  H   H4507     1.0  0.24556  0.95270  0.72383  1.0000
  H   H4508     1.0  0.44387  0.80983  0.67061  1.0000
  H   H4509     1.0  0.32512  0.77289  0.67792  1.0000
  C   C2548     1.0  0.36658  0.74305  0.71589  1.0000
  S   S564      1.0  0.24884  0.85643  0.78679  1.0000
  H   H4510     1.0  0.32839  0.79231  0.58424  1.0000
  H   H4511     1.0  0.44586  0.79082  0.65580  1.0000
  H   H4512     1.0  0.35691  0.75432  0.71837  1.0000
  H   H4513     1.0  0.30063  0.78253  0.58912  1.0000
  N   N141      1.0  0.34756  0.78085  0.60946  1.0000
  H   H4514     1.0  0.25442  0.84670  0.66667  1.0000
  H   H4515     1.0  0.33054  0.76655  0.57503  1.0000
  H   H4516     1.0  0.27714  0.75458  0.53420  1.0000
  H   H4517     1.0  0.41195  0.78340  0.67641  1.0000
  C   C2549     1.0  0.39577  0.81445  0.67134  1.0000
  C   C2550     1.0  0.33978  0.77444  0.56907  1.0000
  H   H4518     1.0  0.35205  0.76646  0.56501  1.0000
  C   C2551     1.0  0.33974  0.75506  0.69472  1.0000
  C   C2552     1.0  0.28699  0.75158  0.86909  1.0000
  H   H4519     1.0  0.34267  0.76498  0.69865  1.0000
  H   H4520     1.0  0.24292  0.73664  0.83689  1.0000
  C   C2553     1.0  0.39334  0.74899  0.57304  1.0000
  H   H4521     1.0  0.42289  0.79363  0.68358  1.0000
  C   C2554     1.0  0.48170  0.77399  0.63315  1.0000
  H   H4522     1.0  0.27566  0.80902  0.50486  1.0000
  C   C2555     1.0  0.27720  0.77612  0.51357  1.0000
  H   H4523     1.0  0.42573  0.82037  0.68276  1.0000
  H   H4524     1.0  0.33276  0.75272  0.67310  1.0000
  C   C2556     1.0  0.42074  0.79194  0.67210  1.0000
  H   H4525     1.0  0.43489  0.77656  0.65423  1.0000
  S   S565      1.0  0.46500  0.78048  0.62280  1.0000
  H   H4526     1.0  0.37173  0.76002  0.73658  1.0000
  H   H4527     1.0  0.38979  0.82648  0.66422  1.0000
  C   C2557     1.0  0.35459  0.73987  0.69453  1.0000
  H   H4528     1.0  0.34380  0.74761  0.62493  1.0000
  H   H4529     1.0  0.27822  0.75681  0.62630  1.0000
  H   H4530     1.0  0.25755  0.93396  0.82210  1.0000
  H   H4531     1.0  0.31361  0.80526  0.49396  1.0000
  H   H4532     1.0  0.29333  0.76175  0.86459  1.0000
  H   H4533     1.0  0.25625  0.82805  0.64870  1.0000
  H   H4534     1.0  0.26586  0.91574  0.83631  1.0000
  C   C2558     1.0  0.39086  0.73605  0.60207  1.0000
  C   C2559     1.0  0.39394  0.81766  0.68865  1.0000
  H   H4535     1.0  0.26669  0.89780  0.81792  1.0000
  H   H4536     1.0  0.44961  0.77394  0.68388  1.0000
  C   C2560     1.0  0.26650  0.81540  0.92250  1.0000
  H   H4537     1.0  0.26657  0.77004  0.83351  1.0000
  H   H4538     1.0  0.25618  0.73951  0.96165  1.0000
  C   C2561     1.0  0.29793  0.75819  0.60414  1.0000
  C   C2562     1.0  0.28732  0.81354  0.50057  1.0000
  C   C2563     1.0  0.26563  0.91139  0.81321  1.0000
  H   H4539     1.0  0.28088  0.78223  0.60335  1.0000
  H   H4540     1.0  0.47594  0.74901  0.70909  1.0000
  H   H4541     1.0  0.24885  0.95737  0.75049  1.0000
  H   H4542     1.0  0.33590  0.78313  0.55793  1.0000
  H   H4543     1.0  0.37573  0.78234  0.58241  1.0000
  C   C2564     1.0  0.34688  0.75417  0.63273  1.0000
  H   H4544     1.0  0.29839  0.75243  0.62985  1.0000
  H   H4545     1.0  0.36839  0.83193  0.69008  1.0000
  H   H4546     1.0  0.43828  0.75969  0.68220  1.0000
  H   H4547     1.0  0.29895  0.76005  0.50174  1.0000
  S   S566      1.0  0.45319  0.74517  0.60821  1.0000
  S   S567      1.0  0.25088  0.79918  0.62375  1.0000
  H   H4548     1.0  0.24853  0.75610  0.85047  1.0000
  H   H4549     1.0  0.28574  0.81795  0.52478  1.0000
  S   S568      1.0  0.25199  0.77988  0.91816  1.0000
  H   H4550     1.0  0.26233  0.81012  0.66436  1.0000
  Fe  Fe287     1.0  0.31960  0.75288  0.54887  1.0000
  H   H4551     1.0  0.25707  0.73915  0.62896  1.0000
  H   H4552     1.0  0.26754  0.88850  0.87756  1.0000
  C   C2565     1.0  0.34653  0.77255  0.59653  1.0000
  H   H4553     1.0  0.26516  0.81487  0.91021  1.0000
  H   H4554     1.0  0.27526  0.82343  0.92079  1.0000
  H   H4555     1.0  0.27182  0.80264  0.92881  1.0000
  S   S569      1.0  0.31354  0.73641  0.53645  1.0000
  H   H4556     1.0  0.39909  0.75688  0.56204  1.0000
  C   C2566     1.0  0.35624  0.76793  0.62198  1.0000
  N   N142      1.0  0.41311  0.80823  0.66200  1.0000
  H   H4557     1.0  0.25172  0.82174  0.94524  1.0000
  H   H4558     1.0  0.25430  0.91622  0.86213  1.0000
  H   H4559     1.0  0.25402  0.89016  0.85510  1.0000
  C   C2567     1.0  0.43737  0.78243  0.66301  1.0000
  H   H4560     1.0  0.25720  0.76437  0.52921  1.0000
  C   C2568     1.0  0.39838  0.74626  0.58795  1.0000
  C   C2569     1.0  0.29131  0.73886  0.86041  1.0000
  H   H4561     1.0  0.33776  0.76407  0.60191  1.0000
  C   C2570     1.0  0.32652  0.74331  0.76552  1.0000
  S   S570      1.0  0.34721  0.74499  0.54084  1.0000
  H   H4562     1.0  0.38657  0.74343  0.74606  1.0000
  S   S571      1.0  0.25121  0.73663  0.90796  1.0000
  C   C2571     1.0  0.29443  0.77702  0.60181  1.0000
  H   H4563     1.0  0.34971  0.79237  0.57395  1.0000
  H   H4564     1.0  0.28760  0.82115  0.48778  1.0000
  H   H4565     1.0  0.24921  0.79701  0.86222  1.0000
  N   N143      1.0  0.30361  0.78482  0.49333  1.0000
  S   S572      1.0  0.41378  0.75615  0.58848  1.0000
  C   C2572     1.0  0.35731  0.79429  0.60180  1.0000
  C   C2573     1.0  0.37532  0.78869  0.59215  1.0000
  C   C2574     1.0  0.31037  0.80331  0.63955  1.0000
  C   C2575     1.0  0.38348  0.80349  0.58377  1.0000
  H   H4566     1.0  0.35851  0.79987  0.61147  1.0000
  H   H4567     1.0  0.35053  0.80479  0.59357  1.0000
  H   H4568     1.0  0.32215  0.77936  0.62159  1.0000
  H   H4569     1.0  0.35924  0.77387  0.63043  1.0000
  H   H4570     1.0  0.38306  0.78012  0.60074  1.0000
  H   H4571     1.0  0.33355  0.78661  0.64263  1.0000
  H   H4572     1.0  0.30943  0.80768  0.65085  1.0000
  H   H4573     1.0  0.30276  0.79383  0.64292  1.0000
  H   H4574     1.0  0.37666  0.81226  0.57447  1.0000
  H   H4575     1.0  0.38379  0.81008  0.59308  1.0000
  H   H4576     1.0  0.39646  0.79900  0.57734  1.0000
  H   H4577     1.0  0.47969  0.74845  0.64145  1.0000
  C   C2576     1.0  0.38108  0.74141  0.57215  1.0000
  H   H4578     1.0  0.25299  0.73536  0.55002  1.0000
  S   S573      1.0  0.30671  0.73961  0.84212  1.0000
  S   S574      1.0  0.24172  0.78070  0.96306  1.0000
  H   H4579     1.0  0.36863  0.73445  0.63624  1.0000
  H   H4580     1.0  0.27213  0.73409  0.64742  1.0000
  H   H4581     1.0  0.24805  0.81423  0.82202  1.0000
  H   H4582     1.0  0.37761  0.74331  0.56049  1.0000
  H   H4583     1.0  0.24217  0.74091  0.60702  1.0000
  H   H4584     1.0  0.25045  0.73352  0.57180  1.0000
  H   H4585     1.0  0.24987  0.97906  0.70692  1.0000
  N   N144      1.0  0.24704  0.79099  0.84004  1.0000
  H   H4586     1.0  0.24564  0.78754  0.80702  1.0000
  C   C2577     1.0  0.38149  0.74868  0.73471  1.0000
  C   C2578     1.0  0.26675  0.73762  0.88978  1.0000
  C   C2579     1.0  0.25541  0.88490  0.88048  1.0000
  C   C2580     1.0  0.24965  0.82191  0.93304  1.0000
  C   C2581     1.0  0.24376  0.73728  0.56159  1.0000
  C   C2582     1.0  0.37423  0.73583  0.73142  1.0000
  H   H4587     1.0  0.31761  0.73277  0.50594  1.0000
  C   C2583     1.0  0.24603  0.89378  0.86665  1.0000
  C   C2584     1.0  0.24507  0.94726  0.85259  1.0000
  H   H4588     1.0  0.24346  0.97035  0.83384  1.0000
  C   C2585     1.0  0.31403  0.73418  0.48198  1.0000
  C   C2586     1.0  0.24210  0.91295  0.86470  1.0000
  H   H4589     1.0  0.29778  0.73727  0.65471  1.0000
  H   H4590     1.0  0.24386  0.84974  0.94774  1.0000
  C   C2587     1.0  0.23970  0.91831  0.83531  1.0000
  C   C2588     1.0  0.24039  0.76358  0.85945  1.0000
  H   H4591     1.0  0.24178  0.81295  0.93499  1.0000
  C   C2589     1.0  0.24137  0.83951  0.92433  1.0000
  S   S575      1.0  0.31765  0.73490  0.57322  1.0000
  H   H4592     1.0  0.39460  0.73390  0.61361  1.0000
  H   H4593     1.0  0.33208  0.73270  0.77385  1.0000
  Fe  Fe288     1.0  0.24002  0.76151  0.91450  1.0000
  H   H4594     1.0  0.35031  0.73204  0.65225  1.0000
  C   C2590     1.0  0.25418  0.73201  0.60815  1.0000
  H   H4595     1.0  0.36470  0.73224  0.74259  1.0000
  H   H4596     1.0  0.24491  0.73275  0.81678  1.0000
  H   H4597     1.0  0.23931  0.77089  0.82348  1.0000
  C   C2591     1.0  0.58058  0.17543  0.22687  1.0000
  H   H4598     1.0  0.72489  0.11153  0.20112  1.0000
  Fe  Fe289     1.0  0.55448  0.18419  0.32337  1.0000
  C   C2592     1.0  0.67868  0.11743  0.10820  1.0000
  H   H4599     1.0  0.68543  0.20257  0.01055  1.0000
  H   H4600     1.0  0.64810  0.17489  0.09384  1.0000
  C   C2593     1.0  0.67277  0.18053  0.46664  1.0000
  Fe  Fe290     1.0  0.56433  0.19079  0.28587  1.0000
  S   S576      1.0  0.58688  0.19015  0.26468  1.0000
  S   S577      1.0  0.55960  0.16804  0.30514  1.0000
  C   C2594     1.0  0.72946  0.21938  0.28770  1.0000
  H   H4601     1.0  0.72093  0.19503  0.10061  1.0000
  Fe  Fe291     1.0  0.65064  0.19082  0.38350  1.0000
  C   C2595     1.0  0.68007  0.21425  0.46445  1.0000
  S   S578      1.0  0.66405  0.16517  0.38018  1.0000
  C   C2596     1.0  0.60040  0.11964  0.23278  1.0000
  Fe  Fe292     1.0  0.61047  0.22380  0.11856  1.0000
  C   C2597     1.0  0.64089  0.16580  0.09448  1.0000
  H   H4602     1.0  0.56506  0.15268  0.18562  1.0000
  S   S579      1.0  0.65623  0.20454  0.39922  1.0000
  S   S580      1.0  0.62321  0.19562  0.39378  1.0000
  Fe  Fe293     1.0  0.65396  0.12946  0.19764  1.0000
  S   S581      1.0  0.64881  0.10607  0.21554  1.0000
  S   S582      1.0  0.63793  0.14312  0.17954  1.0000
  Fe  Fe294     1.0  0.68076  0.13130  0.21336  1.0000
  S   S583      1.0  0.67790  0.10794  0.23237  1.0000
  S   S584      1.0  0.69835  0.14607  0.21389  1.0000
  Fe  Fe295     1.0  0.67664  0.09812  0.21126  1.0000
  S   S585      1.0  0.69191  0.07277  0.20792  1.0000
  Fe  Fe296     1.0  0.65063  0.11857  0.23452  1.0000
  S   S586      1.0  0.63238  0.11904  0.25895  1.0000
  S   S587      1.0  0.68167  0.12085  0.19192  1.0000
  S   S588      1.0  0.65368  0.14256  0.21675  1.0000
  C   C2598     1.0  0.66517  0.18526  0.45109  1.0000
  H   H4603     1.0  0.53802  0.19536  0.16305  1.0000
  S   S589      1.0  0.72289  0.17491  0.29376  1.0000
  C   C2599     1.0  0.49744  0.16347  0.30207  1.0000
  Fe  Fe297     1.0  0.71958  0.15148  0.28956  1.0000
  S   S590      1.0  0.69527  0.14818  0.28743  1.0000
  C   C2600     1.0  0.70754  0.20902  0.34183  1.0000
  H   H4604     1.0  0.49362  0.20799  0.27858  1.0000
  H   H4605     1.0  0.73540  0.99594  0.09529  1.0000
  H   H4606     1.0  0.55715  0.19775  0.14823  1.0000
  S   S591      1.0  0.71732  0.17209  0.01949  1.0000
  Fe  Fe298     1.0  0.71886  0.15107  0.04152  1.0000
  S   S592      1.0  0.70189  0.15274  0.06648  1.0000
  H   H4607     1.0  0.54184  0.17893  0.25466  1.0000
  H   H4608     1.0  0.69616  0.21262  0.06258  1.0000
  H   H4609     1.0  0.68809  0.20730  0.33123  1.0000
  H   H4610     1.0  0.59666  0.18909  0.19505  1.0000
  C   C2601     1.0  0.59316  0.21168  0.33707  1.0000
  H   H4611     1.0  0.61553  0.14533  0.15676  1.0000
  H   H4612     1.0  0.72148  0.11828  0.28207  1.0000
  C   C2602     1.0  0.58737  0.15966  0.18651  1.0000
  H   H4613     1.0  0.68018  0.22066  0.03075  1.0000
  H   H4614     1.0  0.70232  0.20393  0.99272  1.0000
  S   S593      1.0  0.71793  0.06908  0.13246  1.0000
  Fe  Fe299     1.0  0.72537  0.15247  0.00444  1.0000
  H   H4615     1.0  0.71988  0.22208  0.02898  1.0000
  Fe  Fe300     1.0  0.64658  0.21837  0.11941  1.0000
  H   H4616     1.0  0.65535  0.21362  0.46333  1.0000
  H   H4617     1.0  0.67309  0.09346  0.11056  1.0000
  C   C2603     1.0  0.68268  0.09844  0.11288  1.0000
  H   H4618     1.0  0.70860  0.22714  0.99993  1.0000
  C   C2604     1.0  0.73497  0.13184  0.09006  1.0000
  H   H4619     1.0  0.69761  0.20362  0.04556  1.0000
  C   C2605     1.0  0.67962  0.17748  0.05104  1.0000
  C   C2606     1.0  0.68684  0.17137  0.06485  1.0000
  C   C2607     1.0  0.68201  0.18020  0.07746  1.0000
  S   S594      1.0  0.73649  0.16285  0.33629  1.0000
  C   C2608     1.0  0.57859  0.21184  0.16803  1.0000
  H   H4620     1.0  0.68324  0.17067  0.04128  1.0000
  H   H4621     1.0  0.68794  0.17584  0.08788  1.0000
  S   S595      1.0  0.56541  0.17725  0.34633  1.0000
  C   C2609     1.0  0.69862  0.07127  0.18707  1.0000
  C   C2610     1.0  0.71037  0.05732  0.18268  1.0000
  C   C2611     1.0  0.71612  0.05628  0.16597  1.0000
  C   C2612     1.0  0.71031  0.06931  0.15360  1.0000
  C   C2613     1.0  0.69839  0.08309  0.15808  1.0000
  C   C2614     1.0  0.69248  0.08401  0.17475  1.0000
  H   H4622     1.0  0.71500  0.04734  0.19220  1.0000
  H   H4623     1.0  0.72506  0.04545  0.16270  1.0000
  H   H4624     1.0  0.69371  0.09315  0.14868  1.0000
  H   H4625     1.0  0.68298  0.09449  0.17804  1.0000
  C   C2615     1.0  0.65751  0.18855  0.14836  1.0000
  C   C2616     1.0  0.64134  0.18749  0.14914  1.0000
  C   C2617     1.0  0.63526  0.17360  0.15889  1.0000
  C   C2618     1.0  0.64509  0.16105  0.16846  1.0000
  C   C2619     1.0  0.66076  0.16274  0.16878  1.0000
  C   C2620     1.0  0.66707  0.17641  0.15856  1.0000
  H   H4626     1.0  0.63346  0.19731  0.14220  1.0000
  H   H4627     1.0  0.62296  0.17262  0.15895  1.0000
  H   H4628     1.0  0.66826  0.15329  0.17645  1.0000
  H   H4629     1.0  0.62916  0.12740  0.13648  1.0000
  C   C2621     1.0  0.69679  0.14739  0.23426  1.0000
  C   C2622     1.0  0.70724  0.15551  0.23745  1.0000
  C   C2623     1.0  0.70661  0.15600  0.25375  1.0000
  C   C2624     1.0  0.69578  0.14809  0.26694  1.0000
  C   C2625     1.0  0.68499  0.14038  0.26373  1.0000
  C   C2626     1.0  0.68535  0.14023  0.24740  1.0000
  H   H4630     1.0  0.71585  0.16142  0.22731  1.0000
  H   H4631     1.0  0.71427  0.16283  0.25604  1.0000
  H   H4632     1.0  0.67636  0.13449  0.27384  1.0000
  H   H4633     1.0  0.67669  0.13462  0.24505  1.0000
  S   S596      1.0  0.73231  0.13438  0.30942  1.0000
  H   H4634     1.0  0.60841  0.16305  0.40756  1.0000
  H   H4635     1.0  0.69705  0.18938  0.40564  1.0000
  C   C2627     1.0  0.70349  0.21862  0.09543  1.0000
  C   C2628     1.0  0.68404  0.16515  0.36787  1.0000
  C   C2629     1.0  0.69703  0.16486  0.37487  1.0000
  C   C2630     1.0  0.71323  0.16384  0.36518  1.0000
  C   C2631     1.0  0.71636  0.16345  0.34845  1.0000
  C   C2632     1.0  0.70337  0.16372  0.34147  1.0000
  C   C2633     1.0  0.68723  0.16453  0.35119  1.0000
  H   H4636     1.0  0.69462  0.16507  0.38783  1.0000
  H   H4637     1.0  0.72335  0.16318  0.37068  1.0000
  H   H4638     1.0  0.70575  0.16323  0.32861  1.0000
  H   H4639     1.0  0.67729  0.16459  0.34577  1.0000
  C   C2634     1.0  0.59932  0.17026  0.26332  1.0000
  C   C2635     1.0  0.61527  0.16889  0.25319  1.0000
  C   C2636     1.0  0.62558  0.15322  0.25211  1.0000
  C   C2637     1.0  0.61981  0.13879  0.26062  1.0000
  C   C2638     1.0  0.60376  0.14015  0.27052  1.0000
  C   C2639     1.0  0.59352  0.15583  0.27179  1.0000
  H   H4640     1.0  0.61970  0.17996  0.24623  1.0000
  H   H4641     1.0  0.63817  0.15234  0.24516  1.0000
  H   H4642     1.0  0.59913  0.12905  0.27705  1.0000
  H   H4643     1.0  0.58103  0.15664  0.27900  1.0000
  C   C2640     1.0  0.57716  0.19018  0.34860  1.0000
  C   C2641     1.0  0.58432  0.20115  0.33497  1.0000
  H   H4644     1.0  0.71764  0.21647  0.28769  1.0000
  H   H4645     1.0  0.53286  0.19841  0.35236  1.0000
  C   C2642     1.0  0.58864  0.19978  0.36642  1.0000
  C   C2643     1.0  0.57957  0.18936  0.36433  1.0000
  H   H4646     1.0  0.58327  0.20139  0.32275  1.0000
  H   H4647     1.0  0.56155  0.16003  0.23741  1.0000
  H   H4648     1.0  0.59009  0.19935  0.37863  1.0000
  H   H4649     1.0  0.57418  0.18084  0.37496  1.0000
  H   H4650     1.0  0.68600  0.18126  0.46192  1.0000
  C   C2644     1.0  0.57912  0.16701  0.20211  1.0000
  H   H4651     1.0  0.72276  0.09704  0.05786  1.0000
  H   H4652     1.0  0.70972  0.20878  0.01621  1.0000
  H   H4653     1.0  0.68514  0.20806  0.27838  1.0000
  H   H4654     1.0  0.71480  0.98722  0.17490  1.0000
  C   C2645     1.0  0.62636  0.14106  0.13184  1.0000
  C   C2646     1.0  0.66335  0.20897  0.47254  1.0000
  C   C2647     1.0  0.59534  0.21108  0.35277  1.0000
  H   H4655     1.0  0.63899  0.21564  0.16622  1.0000
  C   C2648     1.0  0.66976  0.19493  0.07645  1.0000
  H   H4656     1.0  0.63034  0.18235  0.07412  1.0000
  S   S597      1.0  0.52703  0.19139  0.32357  1.0000
  H   H4657     1.0  0.71776  0.19123  0.40465  1.0000
  C   C2649     1.0  0.70614  0.10643  0.30401  1.0000
  H   H4658     1.0  0.69992  0.19525  0.11257  1.0000
  H   H4659     1.0  0.63815  0.16188  0.12754  1.0000
  S   S598      1.0  0.66591  0.20458  0.13400  1.0000
  H   H4660     1.0  0.62194  0.14380  0.12025  1.0000
  H   H4661     1.0  0.58731  0.17136  0.23711  1.0000
  H   H4662     1.0  0.58099  0.19866  0.16871  1.0000
  C   C2650     1.0  0.60302  0.17715  0.20196  1.0000
  C   C2651     1.0  0.59995  0.14986  0.21898  1.0000
  Fe  Fe301     1.0  0.53287  0.17800  0.30290  1.0000
  C   C2652     1.0  0.61416  0.18134  0.21102  1.0000
  H   H4663     1.0  0.57972  0.13660  0.22398  1.0000
  C   C2653     1.0  0.62551  0.19233  0.19893  1.0000
  H   H4664     1.0  0.66879  0.15037  0.13992  1.0000
  H   H4665     1.0  0.61168  0.17055  0.19240  1.0000
  H   H4666     1.0  0.60859  0.14456  0.20851  1.0000
  H   H4667     1.0  0.60816  0.15032  0.22675  1.0000
  S   S599      1.0  0.63329  0.20562  0.10932  1.0000
  H   H4668     1.0  0.73728  0.12869  0.97826  1.0000
  H   H4669     1.0  0.62219  0.16991  0.21672  1.0000
  H   H4670     1.0  0.60668  0.18815  0.22080  1.0000
  H   H4671     1.0  0.64351  0.13915  0.09882  1.0000
  H   H4672     1.0  0.52052  0.19968  0.37272  1.0000
  C   C2654     1.0  0.58950  0.13711  0.22981  1.0000
  H   H4673     1.0  0.63291  0.19567  0.20574  1.0000
  H   H4674     1.0  0.63420  0.18566  0.18946  1.0000
  H   H4675     1.0  0.66438  0.16586  0.11160  1.0000
  H   H4676     1.0  0.61759  0.14229  0.41717  1.0000
  H   H4677     1.0  0.73720  0.22364  0.26125  1.0000
  H   H4678     1.0  0.60949  0.14182  0.39222  1.0000
  H   H4679     1.0  0.65212  0.18391  0.45435  1.0000
  H   H4680     1.0  0.72189  0.16535  0.08962  1.0000
  C   C2655     1.0  0.66221  0.20081  0.06286  1.0000
  H   H4681     1.0  0.68433  0.13452  0.13112  1.0000
  H   H4682     1.0  0.62901  0.16830  0.10356  1.0000
  H   H4683     1.0  0.59278  0.11078  0.24108  1.0000
  C   C2656     1.0  0.67798  0.14779  0.12859  1.0000
  C   C2657     1.0  0.66729  0.19218  0.05006  1.0000
  C   C2658     1.0  0.72938  0.99471  0.18760  1.0000
  H   H4684     1.0  0.72723  0.22575  0.29797  1.0000
  H   H4685     1.0  0.70557  0.09386  0.31189  1.0000
  C   C2659     1.0  0.64191  0.14811  0.12928  1.0000
  H   H4686     1.0  0.60609  0.11553  0.22091  1.0000
  H   H4687     1.0  0.68249  0.22404  0.34190  1.0000
  C   C2660     1.0  0.65091  0.14777  0.09921  1.0000
  H   H4688     1.0  0.68326  0.09393  0.12613  1.0000
  N   N145      1.0  0.59047  0.16708  0.21269  1.0000
  H   H4689     1.0  0.66931  0.17773  0.42794  1.0000
  H   H4690     1.0  0.64814  0.16668  0.06792  1.0000
  H   H4691     1.0  0.60845  0.16213  0.14048  1.0000
  C   C2661     1.0  0.67484  0.17402  0.43901  1.0000
  C   C2662     1.0  0.62316  0.20258  0.28578  1.0000
  H   H4692     1.0  0.71147  0.00376  0.11878  1.0000
  Fe  Fe302     1.0  0.62854  0.21136  0.40790  1.0000
  Fe  Fe303     1.0  0.62213  0.21816  0.37312  1.0000
  C   C2663     1.0  0.72224  0.10218  0.19605  1.0000
  H   H4693     1.0  0.49688  0.15427  0.28138  1.0000
  H   H4694     1.0  0.70867  0.09960  0.07710  1.0000
  H   H4695     1.0  0.69489  0.09339  0.10543  1.0000
  H   H4696     1.0  0.68802  0.17509  0.43490  1.0000
  C   C2664     1.0  0.70308  0.00805  0.10997  1.0000
  H   H4697     1.0  0.71072  0.98558  0.10122  1.0000
  H   H4698     1.0  0.71110  0.09798  0.20442  1.0000
  C   C2665     1.0  0.70419  0.20964  0.05077  1.0000
  H   H4699     1.0  0.71947  0.10805  0.18362  1.0000
  H   H4700     1.0  0.71164  0.22264  0.08330  1.0000
  C   C2666     1.0  0.70910  0.20172  0.38165  1.0000
  H   H4701     1.0  0.49666  0.22698  0.24219  1.0000
  H   H4702     1.0  0.49405  0.17202  0.32427  1.0000
  H   H4703     1.0  0.59950  0.13210  0.33231  1.0000
  H   H4704     1.0  0.70157  0.02168  0.10524  1.0000
  C   C2667     1.0  0.66249  0.12462  0.11981  1.0000
  C   C2668     1.0  0.50142  0.22163  0.25370  1.0000
  C   C2669     1.0  0.73567  0.16190  0.08686  1.0000
  N   N146      1.0  0.65621  0.14317  0.11552  1.0000
  C   C2670     1.0  0.53367  0.21961  0.36099  1.0000
  H   H4705     1.0  0.69685  0.20681  0.37814  1.0000
  C   C2671     1.0  0.60622  0.21424  0.28507  1.0000
  C   C2672     1.0  0.71965  0.19683  0.05469  1.0000
  H   H4706     1.0  0.70339  0.20006  0.35321  1.0000
  N   N147      1.0  0.72784  0.21599  0.35557  1.0000
  H   H4707     1.0  0.71618  0.12843  0.12078  1.0000
  H   H4708     1.0  0.67946  0.17736  0.15826  1.0000
  H   H4709     1.0  0.71481  0.18988  0.37770  1.0000
  H   H4710     1.0  0.73634  0.11749  0.25608  1.0000
  H   H4711     1.0  0.71805  0.10770  0.09803  1.0000
  H   H4712     1.0  0.70081  0.00350  0.08769  1.0000
  H   H4713     1.0  0.72941  0.12060  0.14503  1.0000
  H   H4714     1.0  0.53834  0.20154  0.14105  1.0000
  H   H4715     1.0  0.71204  0.22659  0.37618  1.0000
  H   H4716     1.0  0.55450  0.18021  0.22534  1.0000
  C   C2673     1.0  0.48976  0.15793  0.29279  1.0000
  H   H4717     1.0  0.70048  0.15619  0.11391  1.0000
  C   C2674     1.0  0.54352  0.20278  0.15102  1.0000
  H   H4718     1.0  0.67950  0.15024  0.10252  1.0000
  H   H4719     1.0  0.73828  0.13475  0.07630  1.0000
  C   C2675     1.0  0.69087  0.15820  0.12523  1.0000
  H   H4720     1.0  0.58375  0.14026  0.24211  1.0000
  S   S600      1.0  0.64649  0.21893  0.06176  1.0000
  H   H4721     1.0  0.71594  0.18583  0.06381  1.0000
  H   H4722     1.0  0.70380  0.23092  0.35150  1.0000
  C   C2676     1.0  0.73893  0.19977  0.35188  1.0000
  H   H4723     1.0  0.61805  0.20392  0.19265  1.0000
  C   C2677     1.0  0.70531  0.22634  0.10898  1.0000
  H   H4724     1.0  0.62830  0.16117  0.07794  1.0000
  H   H4725     1.0  0.71721  0.20200  0.33318  1.0000
  S   S601      1.0  0.51875  0.16386  0.29484  1.0000
  Fe  Fe304     1.0  0.53384  0.21282  0.30340  1.0000
  C   C2678     1.0  0.70760  0.19968  0.10024  1.0000
  H   H4726     1.0  0.69640  0.22570  0.32169  1.0000
  C   C2679     1.0  0.63668  0.16913  0.07758  1.0000
  C   C2680     1.0  0.61203  0.14842  0.14460  1.0000
  S   S602      1.0  0.72444  0.13133  0.02698  1.0000
  N   N148      1.0  0.65005  0.18888  0.26734  1.0000
  C   C2681     1.0  0.66050  0.20002  0.26830  1.0000
  C   C2682     1.0  0.63232  0.19859  0.26859  1.0000
  C   C2683     1.0  0.65137  0.17384  0.28137  1.0000
  C   C2684     1.0  0.65597  0.18309  0.25126  1.0000
  C   C2685     1.0  0.65666  0.19688  0.23524  1.0000
  C   C2686     1.0  0.67959  0.19334  0.26440  1.0000
  C   C2687     1.0  0.64100  0.16117  0.28252  1.0000
  Fe  Fe305     1.0  0.63696  0.22573  0.08662  1.0000
  H   H4727     1.0  0.66621  0.20173  0.08619  1.0000
  C   C2688     1.0  0.66412  0.18931  0.21996  1.0000
  C   C2689     1.0  0.68876  0.20572  0.26566  1.0000
  C   C2690     1.0  0.64117  0.14791  0.29846  1.0000
  H   H4728     1.0  0.65726  0.20252  0.28093  1.0000
  H   H4729     1.0  0.65773  0.21241  0.25992  1.0000
  H   H4730     1.0  0.63179  0.21062  0.25938  1.0000
  H   H4731     1.0  0.62468  0.19205  0.26516  1.0000
  H   H4732     1.0  0.64826  0.17754  0.29345  1.0000
  H   H4733     1.0  0.66437  0.16675  0.28021  1.0000
  H   H4734     1.0  0.66837  0.17448  0.25077  1.0000
  H   H4735     1.0  0.64771  0.17557  0.25044  1.0000
  H   H4736     1.0  0.66439  0.20544  0.23491  1.0000
  H   H4737     1.0  0.64397  0.20420  0.23425  1.0000
  H   H4738     1.0  0.68311  0.18174  0.27338  1.0000
  H   H4739     1.0  0.68422  0.19091  0.25174  1.0000
  H   H4740     1.0  0.64636  0.15464  0.27214  1.0000
  H   H4741     1.0  0.62785  0.16720  0.28226  1.0000
  H   H4742     1.0  0.64573  0.14373  0.14137  1.0000
  H   H4743     1.0  0.66446  0.12052  0.13272  1.0000
  H   H4744     1.0  0.57159  0.20956  0.19453  1.0000
  H   H4745     1.0  0.72012  0.11512  0.24859  1.0000
  H   H4746     1.0  0.60117  0.14310  0.14611  1.0000
  H   H4747     1.0  0.65694  0.18043  0.21973  1.0000
  H   H4748     1.0  0.66390  0.19926  0.20855  1.0000
  H   H4749     1.0  0.67722  0.18261  0.21990  1.0000
  H   H4750     1.0  0.51109  0.21021  0.25186  1.0000
  C   C2691     1.0  0.73260  0.10563  0.07384  1.0000
  H   H4751     1.0  0.67425  0.16087  0.44487  1.0000
  H   H4752     1.0  0.63495  0.15373  0.30920  1.0000
  H   H4753     1.0  0.63431  0.13862  0.29857  1.0000
  H   H4754     1.0  0.65412  0.14143  0.29945  1.0000
  H   H4755     1.0  0.68480  0.17160  0.12357  1.0000
  H   H4756     1.0  0.67293  0.16714  0.47227  1.0000
  H   H4757     1.0  0.66559  0.19824  0.44436  1.0000
  H   H4758     1.0  0.62851  0.20194  0.32453  1.0000
  H   H4759     1.0  0.68935  0.12178  0.10906  1.0000
  H   H4760     1.0  0.55565  0.19316  0.24762  1.0000
  C   C2692     1.0  0.71452  0.22221  0.34548  1.0000
  H   H4761     1.0  0.71628  0.21864  0.11391  1.0000
  C   C2693     1.0  0.70994  0.99901  0.09570  1.0000
  H   H4762     1.0  0.64673  0.20408  0.32953  1.0000
  C   C2694     1.0  0.61604  0.22026  0.46233  1.0000
  C   C2695     1.0  0.73275  0.10881  0.25086  1.0000
  H   H4763     1.0  0.67754  0.12115  0.09509  1.0000
  C   C2696     1.0  0.71375  0.08502  0.24838  1.0000
  H   H4764     1.0  0.71567  0.08327  0.28580  1.0000
  H   H4765     1.0  0.69423  0.11211  0.29993  1.0000
  C   C2697     1.0  0.73144  0.10381  0.09253  1.0000
  H   H4766     1.0  0.54457  0.21255  0.36646  1.0000
  C   C2698     1.0  0.71152  0.07064  0.24255  1.0000
  C   C2699     1.0  0.71586  0.99866  0.17782  1.0000
  H   H4767     1.0  0.73348  0.07839  0.19000  1.0000
  H   H4768     1.0  0.72714  0.20201  0.05985  1.0000
  H   H4769     1.0  0.72115  0.13520  0.09318  1.0000
  C   C2700     1.0  0.72190  0.09537  0.07129  1.0000
  H   H4770     1.0  0.73868  0.20749  0.28988  1.0000
  H   H4771     1.0  0.70664  0.10213  0.27374  1.0000
  H   H4772     1.0  0.72985  0.00645  0.19033  1.0000
  C   C2701     1.0  0.55504  0.17992  0.25006  1.0000
  N   N149      1.0  0.73238  0.09245  0.26316  1.0000
  C   C2702     1.0  0.72073  0.10547  0.28908  1.0000
  H   H4773     1.0  0.70238  0.08853  0.25773  1.0000
  H   H4774     1.0  0.71455  0.09570  0.23765  1.0000
  H   H4775     1.0  0.51339  0.21347  0.35484  1.0000
  H   H4776     1.0  0.66150  0.19669  0.03952  1.0000
  H   H4777     1.0  0.69452  0.22446  0.11956  1.0000
  H   H4778     1.0  0.70372  0.00403  0.18522  1.0000
  H   H4779     1.0  0.73491  0.09036  0.09826  1.0000
  H   H4780     1.0  0.56936  0.16008  0.20932  1.0000
  C   C2703     1.0  0.57336  0.21797  0.18258  1.0000
  H   H4781     1.0  0.57937  0.18915  0.22290  1.0000
  H   H4782     1.0  0.63035  0.20866  0.29028  1.0000
  C   C2704     1.0  0.73683  0.08727  0.19502  1.0000
  H   H4783     1.0  0.72208  0.06706  0.23245  1.0000
  H   H4784     1.0  0.71040  0.05968  0.25295  1.0000
  H   H4785     1.0  0.69996  0.07442  0.23782  1.0000
  H   H4786     1.0  0.59818  0.20842  0.28135  1.0000
  C   C2705     1.0  0.70113  0.21902  0.00970  1.0000
  H   H4787     1.0  0.70488  0.19455  0.09104  1.0000
  C   C2706     1.0  0.62205  0.22156  0.44522  1.0000
  S   S603      1.0  0.53802  0.20012  0.28272  1.0000
  H   H4788     1.0  0.69075  0.00540  0.11681  1.0000
  C   C2707     1.0  0.72158  0.11523  0.12534  1.0000
  C   C2708     1.0  0.57417  0.16009  0.17746  1.0000
  S   S604      1.0  0.71206  0.15882  0.98338  1.0000
  S   S605      1.0  0.56071  0.20638  0.30413  1.0000
  C   C2709     1.0  0.56245  0.17318  0.23432  1.0000
  H   H4789     1.0  0.56185  0.17262  0.25992  1.0000
  C   C2710     1.0  0.66956  0.15223  0.11370  1.0000
  H   H4790     1.0  0.65292  0.11818  0.11971  1.0000
  N   N150      1.0  0.62708  0.15539  0.35847  1.0000
  C   C2711     1.0  0.62640  0.17091  0.34493  1.0000
  C   C2712     1.0  0.61391  0.14666  0.35872  1.0000
  C   C2713     1.0  0.62258  0.16061  0.37483  1.0000
  C   C2714     1.0  0.64414  0.14390  0.35689  1.0000
  C   C2715     1.0  0.65513  0.14389  0.33921  1.0000
  C   C2716     1.0  0.63658  0.18314  0.34529  1.0000
  C   C2717     1.0  0.62084  0.14645  0.39054  1.0000
  C   C2718     1.0  0.61374  0.14288  0.34221  1.0000
  C   C2719     1.0  0.59946  0.13454  0.34435  1.0000
  C   C2720     1.0  0.67141  0.13093  0.33960  1.0000
  C   C2721     1.0  0.64023  0.19499  0.32851  1.0000
  C   C2722     1.0  0.61929  0.15252  0.40611  1.0000
  H   H4791     1.0  0.61333  0.17795  0.34553  1.0000
  H   H4792     1.0  0.63042  0.16782  0.33254  1.0000
  H   H4793     1.0  0.61494  0.13455  0.36779  1.0000
  H   H4794     1.0  0.60132  0.15422  0.36300  1.0000
  H   H4795     1.0  0.61072  0.17009  0.37587  1.0000
  H   H4796     1.0  0.63205  0.16676  0.37565  1.0000
  H   H4797     1.0  0.65176  0.14692  0.36380  1.0000
  H   H4798     1.0  0.64310  0.13087  0.36294  1.0000
  H   H4799     1.0  0.65846  0.15609  0.33333  1.0000
  H   H4800     1.0  0.64879  0.14112  0.33112  1.0000
  H   H4801     1.0  0.62943  0.19069  0.35461  1.0000
  H   H4802     1.0  0.64852  0.17647  0.34886  1.0000
  H   H4803     1.0  0.63178  0.13593  0.38970  1.0000
  H   H4804     1.0  0.61188  0.15444  0.33258  1.0000
  H   H4805     1.0  0.62534  0.13421  0.33791  1.0000
  H   H4806     1.0  0.58732  0.14272  0.34851  1.0000
  H   H4807     1.0  0.60078  0.12253  0.35351  1.0000
  H   H4808     1.0  0.66896  0.11824  0.34452  1.0000
  H   H4809     1.0  0.67917  0.13159  0.32684  1.0000
  H   H4810     1.0  0.67850  0.13332  0.34740  1.0000
  H   H4811     1.0  0.71869  0.00786  0.16606  1.0000
  S   S606      1.0  0.61734  0.20858  0.43531  1.0000
  H   H4812     1.0  0.64834  0.18803  0.31904  1.0000
  H   H4813     1.0  0.63072  0.15656  0.40548  1.0000
  C   C2723     1.0  0.72158  0.11296  0.14358  1.0000
  H   H4814     1.0  0.56755  0.17308  0.17336  1.0000
  Fe  Fe306     1.0  0.73762  0.15757  0.31192  1.0000
  H   H4815     1.0  0.60753  0.22619  0.27619  1.0000
  H   H4816     1.0  0.70236  0.20051  0.26289  1.0000
  C   C2724     1.0  0.72944  0.07980  0.25576  1.0000
  C   C2725     1.0  0.71836  0.09529  0.27788  1.0000
  C   C2726     1.0  0.68809  0.22903  0.02190  1.0000
  H   H4817     1.0  0.66199  0.14625  0.08886  1.0000
  H   H4818     1.0  0.57230  0.17995  0.19793  1.0000
  H   H4819     1.0  0.71136  0.00164  0.06231  1.0000
  H   H4820     1.0  0.58009  0.15475  0.16637  1.0000
  H   H4821     1.0  0.59405  0.14656  0.18985  1.0000
  H   H4822     1.0  0.69695  0.15472  0.13591  1.0000
  H   H4823     1.0  0.59623  0.16695  0.17767  1.0000
  H   H4824     1.0  0.70870  0.11690  0.15057  1.0000
  S   S607      1.0  0.64938  0.21227  0.36184  1.0000
  H   H4825     1.0  0.61042  0.11930  0.23876  1.0000
  H   H4826     1.0  0.68739  0.21201  0.47392  1.0000
  S   S608      1.0  0.73635  0.98481  0.13847  1.0000
  H   H4827     1.0  0.72173  0.22964  0.13127  1.0000
  H   H4828     1.0  0.59841  0.22031  0.32647  1.0000
  C   C2727     1.0  0.70874  0.22563  0.03870  1.0000
  C   C2728     1.0  0.58108  0.22274  0.15258  1.0000
  H   H4829     1.0  0.72813  0.06823  0.26533  1.0000
  H   H4830     1.0  0.63058  0.22780  0.19140  1.0000
  H   H4831     1.0  0.68736  0.20762  0.45447  1.0000
  H   H4832     1.0  0.72626  0.09971  0.14897  1.0000
  H   H4833     1.0  0.72128  0.01833  0.05729  1.0000
  H   H4834     1.0  0.62100  0.19107  0.29506  1.0000
  H   H4835     1.0  0.72995  0.21203  0.38091  1.0000
  H   H4836     1.0  0.72341  0.00589  0.01718  1.0000
  H   H4837     1.0  0.73801  0.08118  0.20787  1.0000
  H   H4838     1.0  0.65469  0.20907  0.17832  1.0000
  H   H4839     1.0  0.68439  0.22090  0.99391  1.0000
  H   H4840     1.0  0.72621  0.08197  0.07657  1.0000
  C   C2729     1.0  0.72378  0.00468  0.05813  1.0000
  H   H4841     1.0  0.70768  0.11423  0.31160  1.0000
  C   C2730     1.0  0.64792  0.21989  0.17043  1.0000
  S   S609      1.0  0.58769  0.21488  0.13448  1.0000
  C   C2731     1.0  0.69274  0.21709  0.33364  1.0000
  H   H4842     1.0  0.73240  0.13083  0.21953  1.0000
  H   H4843     1.0  0.71326  0.10769  0.12469  1.0000
  H   H4844     1.0  0.60004  0.21684  0.29751  1.0000
  C   C2732     1.0  0.69273  0.21119  0.00122  1.0000
  H   H4845     1.0  0.73216  0.09984  0.29398  1.0000
  Fe  Fe307     1.0  0.65229  0.22683  0.37848  1.0000
  H   H4846     1.0  0.70069  0.20909  0.40543  1.0000
  H   H4847     1.0  0.65710  0.22465  0.15945  1.0000
  C   C2733     1.0  0.52453  0.20707  0.36012  1.0000
  H   H4848     1.0  0.68605  0.21762  0.25662  1.0000
  S   S610      1.0  0.73115  0.03101  0.11154  1.0000
  C   C2734     1.0  0.73105  0.00193  0.04022  1.0000
  C   C2735     1.0  0.70600  0.19766  0.40052  1.0000
  C   C2736     1.0  0.72017  0.21457  0.37378  1.0000
  H   H4849     1.0  0.73172  0.19032  0.35366  1.0000
  H   H4850     1.0  0.71925  0.22964  0.33305  1.0000
  S   S611      1.0  0.60525  0.22560  0.35491  1.0000
  H   H4851     1.0  0.53142  0.22475  0.18563  1.0000
  Fe  Fe308     1.0  0.73669  0.04638  0.12570  1.0000
  H   H4852     1.0  0.72804  0.11870  0.06781  1.0000
  H   H4853     1.0  0.72726  0.19260  0.04331  1.0000
  H   H4854     1.0  0.70811  0.99988  0.03545  1.0000
  H   H4855     1.0  0.49235  0.18675  0.26534  1.0000
  H   H4856     1.0  0.54592  0.22161  0.16156  1.0000
  H   H4857     1.0  0.72546  0.98606  0.19942  1.0000
  H   H4858     1.0  0.49162  0.19975  0.24540  1.0000
  H   H4859     1.0  0.54993  0.22136  0.33717  1.0000
  H   H4860     1.0  0.71315  0.23176  0.04597  1.0000
  C   C2737     1.0  0.54012  0.22100  0.15186  1.0000
  H   H4861     1.0  0.49310  0.16491  0.24901  1.0000
  H   H4862     1.0  0.69044  0.22253  0.09389  1.0000
  H   H4863     1.0  0.71167  0.02079  0.02965  1.0000
  H   H4864     1.0  0.51473  0.21998  0.16507  1.0000
  H   H4865     1.0  0.60828  0.21153  0.46919  1.0000
  C   C2738     1.0  0.73559  0.23042  0.27105  1.0000
  H   H4866     1.0  0.73738  0.14324  0.10912  1.0000
  H   H4867     1.0  0.51063  0.22960  0.21082  1.0000
  C   C2739     1.0  0.72740  0.00195  0.08614  1.0000
  H   H4868     1.0  0.73709  0.22327  0.08725  1.0000
  H   H4869     1.0  0.54655  0.22766  0.13982  1.0000
  C   C2740     1.0  0.61992  0.23031  0.47054  1.0000
  H   H4870     1.0  0.72709  0.01551  0.08345  1.0000
  C   C2741     1.0  0.71768  0.00748  0.03005  1.0000
  C   C2742     1.0  0.73867  0.22856  0.35027  1.0000
  C   C2743     1.0  0.52120  0.22888  0.15507  1.0000
  H   H4871     1.0  0.51416  0.22943  0.26794  1.0000
  H   H4872     1.0  0.51747  0.22904  0.14359  1.0000
  H   H4873     1.0  0.52524  0.22724  0.36967  1.0000
  H   H4874     1.0  0.73700  0.98871  0.04015  1.0000
  N   N151      1.0  0.73460  0.99549  0.07041  1.0000
  C   C2744     1.0  0.53965  0.23018  0.34355  1.0000
  H   H4875     1.0  0.56353  0.23136  0.35723  1.0000
  H   H4876     1.0  0.66792  0.23087  0.40255  1.0000
  H   H4877     1.0  0.61442  0.18611  0.81216  1.0000
  C   C2745     1.0  0.73117  0.13323  0.96793  1.0000
  C   C2746     1.0  0.69794  0.20512  0.54792  1.0000
  H   H4878     1.0  0.60192  0.05844  0.80020  1.0000
  H   H4879     1.0  0.66977  0.22443  0.63027  1.0000
  C   C2747     1.0  0.70557  0.18957  0.55610  1.0000
  H   H4880     1.0  0.53193  0.20290  0.76023  1.0000
  Fe  Fe309     1.0  0.52674  0.20768  0.66608  1.0000
  S   S612      1.0  0.51829  0.18969  0.68924  1.0000
  H   H4881     1.0  0.69201  0.21262  0.57924  1.0000
  H   H4882     1.0  0.60063  0.20513  0.58750  1.0000
  H   H4883     1.0  0.72572  0.15815  0.80781  1.0000
  H   H4884     1.0  0.69273  0.17662  0.68180  1.0000
  C   C2748     1.0  0.70407  0.09269  0.89657  1.0000
  H   H4885     1.0  0.52430  0.18610  0.75805  1.0000
  H   H4886     1.0  0.64204  0.01120  0.84115  1.0000
  Fe  Fe310     1.0  0.64888  0.22237  0.52739  1.0000
  S   S613      1.0  0.65963  0.19525  0.53633  1.0000
  H   H4887     1.0  0.73100  0.12712  0.72228  1.0000
  S   S614      1.0  0.67408  0.13876  0.62010  1.0000
  S   S615      1.0  0.68619  0.04640  0.78368  1.0000
  Fe  Fe311     1.0  0.68564  0.06888  0.81767  1.0000
  S   S616      1.0  0.66415  0.21890  0.77952  1.0000
  C   C2749     1.0  0.70547  0.19207  0.92208  1.0000
  Fe  Fe312     1.0  0.66515  0.06369  0.79645  1.0000
  S   S617      1.0  0.63958  0.07029  0.79163  1.0000
  S   S618      1.0  0.66905  0.05120  0.82195  1.0000
  H   H4888     1.0  0.59164  0.18152  0.77876  1.0000
  C   C2750     1.0  0.69197  0.17781  0.49037  1.0000
  H   H4889     1.0  0.66933  0.14972  0.67872  1.0000
  H   H4890     1.0  0.72359  0.18843  0.80259  1.0000
  S   S619      1.0  0.71173  0.13246  0.88751  1.0000
  H   H4891     1.0  0.65760  0.99894  0.82782  1.0000
  Fe  Fe313     1.0  0.70957  0.15984  0.87732  1.0000
  S   S620      1.0  0.68635  0.17942  0.87476  1.0000
  H   H4892     1.0  0.50647  0.22436  0.75184  1.0000
  C   C2751     1.0  0.72744  0.20404  0.83312  1.0000
  H   H4893     1.0  0.61204  0.19727  0.51757  1.0000
  Fe  Fe314     1.0  0.65069  0.20056  0.79845  1.0000
  H   H4894     1.0  0.69306  0.06084  0.92872  1.0000
  S   S621      1.0  0.66467  0.17660  0.81151  1.0000
  H   H4895     1.0  0.65714  0.21624  0.48228  1.0000
  H   H4896     1.0  0.53072  0.21711  0.73095  1.0000
  S   S622      1.0  0.63660  0.19808  0.78133  1.0000
  S   S623      1.0  0.67975  0.08263  0.79307  1.0000
  Fe  Fe315     1.0  0.59456  0.14731  0.72637  1.0000
  S   S624      1.0  0.60896  0.16672  0.72221  1.0000
  S   S625      1.0  0.56723  0.15273  0.73731  1.0000
  Fe  Fe316     1.0  0.62537  0.12151  0.71623  1.0000
  S   S626      1.0  0.64229  0.13892  0.71069  1.0000
  S   S627      1.0  0.63817  0.09503  0.71591  1.0000
  Fe  Fe317     1.0  0.62727  0.14615  0.73424  1.0000
  S   S628      1.0  0.64069  0.14728  0.75263  1.0000
  Fe  Fe318     1.0  0.62246  0.15755  0.69914  1.0000
  S   S629      1.0  0.62915  0.17610  0.67592  1.0000
  S   S630      1.0  0.61161  0.12753  0.74072  1.0000
  S   S631      1.0  0.60674  0.13945  0.70223  1.0000
  H   H4897     1.0  0.64689  0.17445  0.48950  1.0000
  H   H4898     1.0  0.53104  0.18761  0.61253  1.0000
  C   C2752     1.0  0.66071  0.14922  0.63527  1.0000
  C   C2753     1.0  0.65996  0.16604  0.63374  1.0000
  C   C2754     1.0  0.64988  0.17430  0.64607  1.0000
  C   C2755     1.0  0.64090  0.16565  0.66031  1.0000
  C   C2756     1.0  0.64146  0.14883  0.66192  1.0000
  C   C2757     1.0  0.65115  0.14069  0.64924  1.0000
  H   H4899     1.0  0.66706  0.17281  0.62303  1.0000
  H   H4900     1.0  0.64934  0.18730  0.64476  1.0000
  H   H4901     1.0  0.63444  0.14210  0.67291  1.0000
  H   H4902     1.0  0.65158  0.12770  0.65048  1.0000
  C   C2758     1.0  0.65804  0.19548  0.73766  1.0000
  C   C2759     1.0  0.65066  0.19162  0.72704  1.0000
  C   C2760     1.0  0.64625  0.17622  0.73102  1.0000
  C   C2761     1.0  0.64913  0.16489  0.74565  1.0000
  C   C2762     1.0  0.65796  0.16815  0.75534  1.0000
  C   C2763     1.0  0.66258  0.18341  0.75123  1.0000
  H   H4903     1.0  0.64730  0.20086  0.71642  1.0000
  H   H4904     1.0  0.63985  0.17352  0.72324  1.0000
  H   H4905     1.0  0.66042  0.15932  0.76651  1.0000
  H   H4906     1.0  0.66853  0.18630  0.75933  1.0000
  S   S632      1.0  0.63015  0.21972  0.80937  1.0000
  C   C2764     1.0  0.67977  0.17847  0.85757  1.0000
  C   C2765     1.0  0.68632  0.16459  0.85044  1.0000
  C   C2766     1.0  0.68148  0.16405  0.83638  1.0000
  C   C2767     1.0  0.67018  0.17747  0.82931  1.0000
  C   C2768     1.0  0.66348  0.19130  0.83652  1.0000
  C   C2769     1.0  0.66820  0.19173  0.85073  1.0000
  H   H4907     1.0  0.69500  0.15416  0.85586  1.0000
  H   H4908     1.0  0.68656  0.15327  0.83092  1.0000
  H   H4909     1.0  0.65457  0.20156  0.83123  1.0000
  H   H4910     1.0  0.66291  0.20232  0.85639  1.0000
  H   H4911     1.0  0.69309  0.08767  0.65091  1.0000
  H   H4912     1.0  0.69532  0.01193  0.78358  1.0000
  C   C2770     1.0  0.63966  0.07624  0.77042  1.0000
  C   C2771     1.0  0.65448  0.07700  0.75851  1.0000
  C   C2772     1.0  0.65418  0.08184  0.74160  1.0000
  C   C2773     1.0  0.63905  0.08617  0.73665  1.0000
  C   C2774     1.0  0.62431  0.08518  0.74856  1.0000
  C   C2775     1.0  0.62463  0.08012  0.76540  1.0000
  H   H4913     1.0  0.66613  0.07412  0.76232  1.0000
  H   H4914     1.0  0.66555  0.08282  0.73242  1.0000
  H   H4915     1.0  0.61256  0.08879  0.74478  1.0000
  H   H4916     1.0  0.61314  0.07972  0.77454  1.0000
  N   N152      1.0  0.53616  0.22981  0.57353  1.0000
  C   C2776     1.0  0.71432  0.08499  0.83387  1.0000
  C   C2777     1.0  0.72391  0.13792  0.71461  1.0000
  H   H4917     1.0  0.72004  0.12482  0.69753  1.0000
  H   H4918     1.0  0.73914  0.22740  0.55390  1.0000
  H   H4919     1.0  0.70620  0.10191  0.69454  1.0000
  C   C2778     1.0  0.73464  0.08633  0.89725  1.0000
  C   C2779     1.0  0.53132  0.19596  0.75135  1.0000
  C   C2780     1.0  0.55319  0.22623  0.56227  1.0000
  S   S633      1.0  0.73833  0.11032  0.84963  1.0000
  C   C2781     1.0  0.73001  0.18009  0.81237  1.0000
  H   H4920     1.0  0.68228  0.02498  0.75058  1.0000
  H   H4921     1.0  0.66483  0.11126  0.75486  1.0000
  C   C2782     1.0  0.62296  0.23065  0.67404  1.0000
  C   C2783     1.0  0.71046  0.15313  0.95421  1.0000
  C   C2784     1.0  0.68117  0.11636  0.67762  1.0000
  N   N153      1.0  0.63842  0.01877  0.78529  1.0000
  H   H4922     1.0  0.66062  0.23034  0.83390  1.0000
  C   C2785     1.0  0.67778  0.19292  0.54320  1.0000
  C   C2786     1.0  0.68595  0.17720  0.55051  1.0000
  C   C2787     1.0  0.69961  0.17558  0.55728  1.0000
  H   H4923     1.0  0.59789  0.17952  0.63315  1.0000
  C   C2788     1.0  0.68389  0.20683  0.54179  1.0000
  H   H4924     1.0  0.68148  0.16633  0.55139  1.0000
  H   H4925     1.0  0.70558  0.16348  0.56330  1.0000
  H   H4926     1.0  0.67767  0.21895  0.53610  1.0000
  C   C2789     1.0  0.67620  0.10003  0.89058  1.0000
  Fe  Fe319     1.0  0.70146  0.06406  0.78287  1.0000
  H   H4927     1.0  0.72015  0.15609  0.75969  1.0000
  C   C2790     1.0  0.64676  0.18799  0.48609  1.0000
  C   C2791     1.0  0.67958  0.08601  0.91858  1.0000
  H   H4928     1.0  0.64484  0.10975  0.86326  1.0000
  H   H4929     1.0  0.70941  0.14939  0.93072  1.0000
  C   C2792     1.0  0.61929  0.19127  0.50711  1.0000
  H   H4930     1.0  0.72636  0.19473  0.90155  1.0000
  C   C2793     1.0  0.53256  0.17902  0.70181  1.0000
  C   C2794     1.0  0.52643  0.17146  0.71816  1.0000
  C   C2795     1.0  0.53723  0.16340  0.72887  1.0000
  C   C2796     1.0  0.55431  0.16239  0.72319  1.0000
  C   C2797     1.0  0.56060  0.16949  0.70667  1.0000
  C   C2798     1.0  0.54967  0.17804  0.69601  1.0000
  H   H4931     1.0  0.51324  0.17204  0.72263  1.0000
  H   H4932     1.0  0.53236  0.15782  0.74158  1.0000
  H   H4933     1.0  0.57382  0.16864  0.70221  1.0000
  H   H4934     1.0  0.55449  0.18368  0.68332  1.0000
  C   C2799     1.0  0.54379  0.18696  0.60468  1.0000
  H   H4935     1.0  0.67852  0.10401  0.73710  1.0000
  Fe  Fe320     1.0  0.69804  0.14737  0.61276  1.0000
  H   H4936     1.0  0.67272  0.13455  0.73254  1.0000
  H   H4937     1.0  0.59569  0.18501  0.74877  1.0000
  H   H4938     1.0  0.67994  0.13292  0.75080  1.0000
  H   H4939     1.0  0.66054  0.11727  0.90629  1.0000
  H   H4940     1.0  0.73241  0.19354  0.84270  1.0000
  H   H4941     1.0  0.70502  0.07800  0.87107  1.0000
  H   H4942     1.0  0.55931  0.20289  0.58799  1.0000
  C   C2800     1.0  0.69082  0.98941  0.78091  1.0000
  H   H4943     1.0  0.52387  0.20017  0.72864  1.0000
  C   C2801     1.0  0.64943  0.01142  0.82831  1.0000
  H   H4944     1.0  0.72399  0.21501  0.96601  1.0000
  N   N154      1.0  0.63432  0.13546  0.80963  1.0000
  C   C2802     1.0  0.63079  0.15307  0.81184  1.0000
  C   C2803     1.0  0.65182  0.13072  0.79982  1.0000
  C   C2804     1.0  0.62244  0.13493  0.79979  1.0000
  C   C2805     1.0  0.63152  0.12316  0.82593  1.0000
  C   C2806     1.0  0.64186  0.12235  0.83837  1.0000
  C   C2807     1.0  0.61285  0.16011  0.82069  1.0000
  C   C2808     1.0  0.62572  0.11877  0.79344  1.0000
  C   C2809     1.0  0.66531  0.13790  0.80264  1.0000
  C   C2810     1.0  0.68261  0.12786  0.79697  1.0000
  C   C2811     1.0  0.63686  0.11046  0.85479  1.0000
  C   C2812     1.0  0.61138  0.17713  0.82397  1.0000
  C   C2813     1.0  0.61225  0.11966  0.78459  1.0000
  H   H4945     1.0  0.63349  0.16160  0.79951  1.0000
  H   H4946     1.0  0.63916  0.15452  0.81884  1.0000
  H   H4947     1.0  0.65595  0.11693  0.80191  1.0000
  H   H4948     1.0  0.65224  0.13500  0.78627  1.0000
  H   H4949     1.0  0.62252  0.14541  0.78870  1.0000
  H   H4950     1.0  0.60948  0.13671  0.80724  1.0000
  H   H4951     1.0  0.61816  0.12530  0.83220  1.0000
  H   H4952     1.0  0.63457  0.11035  0.82382  1.0000
  H   H4953     1.0  0.64025  0.13467  0.84106  1.0000
  H   H4954     1.0  0.65517  0.11741  0.83344  1.0000
  H   H4955     1.0  0.60391  0.16174  0.81289  1.0000
  H   H4956     1.0  0.60908  0.15184  0.83280  1.0000
  H   H4957     1.0  0.62572  0.10763  0.80369  1.0000
  H   H4958     1.0  0.63781  0.11690  0.78447  1.0000
  H   H4959     1.0  0.66455  0.15087  0.79535  1.0000
  H   H4960     1.0  0.66401  0.13819  0.81568  1.0000
  H   H4961     1.0  0.69200  0.13349  0.79875  1.0000
  H   H4962     1.0  0.68395  0.11495  0.80447  1.0000
  H   H4963     1.0  0.68474  0.12767  0.78371  1.0000
  H   H4964     1.0  0.57868  0.22060  0.53470  1.0000
  C   C2814     1.0  0.67799  0.21962  0.63918  1.0000
  H   H4965     1.0  0.63863  0.09778  0.85278  1.0000
  H   H4966     1.0  0.67515  0.04630  0.74088  1.0000
  H   H4967     1.0  0.71425  0.08410  0.79218  1.0000
  H   H4968     1.0  0.61530  0.10850  0.77929  1.0000
  H   H4969     1.0  0.59999  0.12009  0.79335  1.0000
  H   H4970     1.0  0.61146  0.13082  0.77434  1.0000
  H   H4971     1.0  0.60130  0.02632  0.79120  1.0000
  H   H4972     1.0  0.65879  0.20810  0.65723  1.0000
  H   H4973     1.0  0.54829  0.22576  0.74675  1.0000
  H   H4974     1.0  0.64663  0.04594  0.75633  1.0000
  H   H4975     1.0  0.50085  0.22938  0.58290  1.0000
  H   H4976     1.0  0.70033  0.16393  0.95407  1.0000
  C   C2815     1.0  0.60006  0.19372  0.75310  1.0000
  H   H4977     1.0  0.73006  0.14832  0.71285  1.0000
  H   H4978     1.0  0.69508  0.14902  0.70208  1.0000
  S   S634      1.0  0.72208  0.18802  0.56525  1.0000
  C   C2816     1.0  0.69372  0.10773  0.84382  1.0000
  H   H4979     1.0  0.60708  0.19333  0.77565  1.0000
  H   H4980     1.0  0.71486  0.06179  0.72473  1.0000
  H   H4981     1.0  0.69954  0.15282  0.77004  1.0000
  H   H4982     1.0  0.62250  0.20870  0.65643  1.0000
  C   C2817     1.0  0.49152  0.21344  0.72433  1.0000
  S   S635      1.0  0.69895  0.17395  0.60919  1.0000
  C   C2818     1.0  0.66346  0.13069  0.88101  1.0000
  C   C2819     1.0  0.56503  0.20715  0.70665  1.0000
  H   H4983     1.0  0.68093  0.11441  0.84638  1.0000
  C   C2820     1.0  0.59841  0.19591  0.64832  1.0000
  S   S636      1.0  0.73917  0.16155  0.60574  1.0000
  H   H4984     1.0  0.52322  0.22647  0.55687  1.0000
  H   H4985     1.0  0.71398  0.10167  0.66560  1.0000
  H   H4986     1.0  0.69084  0.99394  0.76787  1.0000
  H   H4987     1.0  0.66200  0.00944  0.76992  1.0000
  H   H4988     1.0  0.57644  0.19829  0.70202  1.0000
  H   H4989     1.0  0.70603  0.12729  0.75839  1.0000
  S   S637      1.0  0.54931  0.21835  0.66007  1.0000
  Fe  Fe321     1.0  0.64842  0.21800  0.76313  1.0000
  N   N155      1.0  0.58331  0.22013  0.73692  1.0000
  H   H4990     1.0  0.71891  0.21622  0.80506  1.0000
  H   H4991     1.0  0.63459  0.20912  0.49800  1.0000
  H   H4992     1.0  0.73637  0.20748  0.60125  1.0000
  H   H4993     1.0  0.60077  0.19424  0.66076  1.0000
  C   C2821     1.0  0.68195  0.14689  0.67081  1.0000
  H   H4994     1.0  0.70282  0.12405  0.85267  1.0000
  C   C2822     1.0  0.57663  0.20981  0.72973  1.0000
  H   H4995     1.0  0.70016  0.21264  0.85770  1.0000
  H   H4996     1.0  0.66057  0.04034  0.77004  1.0000
  H   H4997     1.0  0.71692  0.08303  0.71902  1.0000
  N   N156      1.0  0.63482  0.16735  0.58604  1.0000
  C   C2823     1.0  0.61821  0.17123  0.58142  1.0000
  C   C2824     1.0  0.63389  0.15745  0.60374  1.0000
  C   C2825     1.0  0.63901  0.18364  0.58504  1.0000
  C   C2826     1.0  0.64848  0.15837  0.57426  1.0000
  C   C2827     1.0  0.64609  0.14186  0.57235  1.0000
  C   C2828     1.0  0.61705  0.18194  0.56381  1.0000
  C   C2829     1.0  0.65549  0.18217  0.59000  1.0000
  C   C2830     1.0  0.62137  0.14586  0.61074  1.0000
  C   C2831     1.0  0.62361  0.13513  0.62773  1.0000
  C   C2832     1.0  0.66026  0.13480  0.55920  1.0000
  C   C2833     1.0  0.59971  0.18463  0.56070  1.0000
  C   C2834     1.0  0.65694  0.19875  0.59206  1.0000
  H   H4998     1.0  0.60848  0.17757  0.59059  1.0000
  H   H4999     1.0  0.61425  0.15971  0.58232  1.0000
  H   H5000     1.0  0.64633  0.14973  0.60530  1.0000
  H   H5001     1.0  0.63045  0.16585  0.61257  1.0000
  H   H5002     1.0  0.62872  0.19110  0.59290  1.0000
  H   H5003     1.0  0.64038  0.19128  0.57222  1.0000
  H   H5004     1.0  0.65069  0.16664  0.56176  1.0000
  H   H5005     1.0  0.66044  0.15520  0.57828  1.0000
  H   H5006     1.0  0.63434  0.14352  0.56851  1.0000
  H   H5007     1.0  0.64627  0.13252  0.58417  1.0000
  H   H5008     1.0  0.61935  0.19443  0.56216  1.0000
  H   H5009     1.0  0.62613  0.17582  0.55415  1.0000
  H   H5010     1.0  0.66624  0.17813  0.58035  1.0000
  H   H5011     1.0  0.65665  0.17298  0.60164  1.0000
  H   H5012     1.0  0.60843  0.15337  0.61235  1.0000
  H   H5013     1.0  0.62280  0.13747  0.60249  1.0000
  H   H5014     1.0  0.62154  0.14305  0.63667  1.0000
  H   H5015     1.0  0.61448  0.12702  0.63252  1.0000
  H   H5016     1.0  0.63631  0.12713  0.62685  1.0000
  H   H5017     1.0  0.62369  0.11488  0.86074  1.0000
  H   H5018     1.0  0.62437  0.00510  0.77886  1.0000
  H   H5019     1.0  0.66056  0.14357  0.54696  1.0000
  H   H5020     1.0  0.59688  0.17259  0.56128  1.0000
  H   H5021     1.0  0.59017  0.19094  0.56998  1.0000
  H   H5022     1.0  0.59909  0.19261  0.54822  1.0000
  H   H5023     1.0  0.64733  0.20256  0.60273  1.0000
  H   H5024     1.0  0.66931  0.19741  0.59454  1.0000
  H   H5025     1.0  0.65567  0.20844  0.58058  1.0000
  H   H5026     1.0  0.65880  0.00723  0.79776  1.0000
  C   C2835     1.0  0.53317  0.21367  0.58527  1.0000
  H   H5027     1.0  0.69896  0.06085  0.90241  1.0000
  C   C2836     1.0  0.71563  0.14499  0.94095  1.0000
  H   H5028     1.0  0.59845  0.18193  0.83026  1.0000
  H   H5029     1.0  0.61381  0.17162  0.64512  1.0000
  C   C2837     1.0  0.68185  0.22542  0.81454  1.0000
  C   C2838     1.0  0.54649  0.20433  0.59563  1.0000
  C   C2839     1.0  0.61004  0.20611  0.63462  1.0000
  H   H5030     1.0  0.54413  0.18975  0.74604  1.0000
  H   H5031     1.0  0.72466  0.10124  0.63528  1.0000
  H   H5032     1.0  0.70355  0.12714  0.66878  1.0000
  C   C2840     1.0  0.72191  0.22508  0.61701  1.0000
  H   H5033     1.0  0.60660  0.20707  0.62282  1.0000
  H   H5034     1.0  0.54559  0.21124  0.60508  1.0000
  S   S638      1.0  0.69574  0.00684  0.81847  1.0000
  H   H5035     1.0  0.68219  0.15702  0.71927  1.0000
  H   H5036     1.0  0.60220  0.21978  0.66370  1.0000
  C   C2841     1.0  0.72262  0.21182  0.93456  1.0000
  N   N157      1.0  0.70392  0.22760  0.61648  1.0000
  C   C2842     1.0  0.71249  0.14658  0.76515  1.0000
  C   C2843     1.0  0.63644  0.19546  0.50127  1.0000
  H   H5037     1.0  0.68242  0.18819  0.91960  1.0000
  H   H5038     1.0  0.71346  0.17005  0.69891  1.0000
  Fe  Fe322     1.0  0.69130  0.03484  0.80897  1.0000
  H   H5039     1.0  0.69970  0.19583  0.93410  1.0000
  H   H5040     1.0  0.62183  0.00252  0.80040  1.0000
  H   H5041     1.0  0.71139  0.15982  0.73351  1.0000
  S   S639      1.0  0.59036  0.21684  0.79796  1.0000
  H   H5042     1.0  0.69291  0.19469  0.68839  1.0000
  H   H5043     1.0  0.69195  0.15471  0.74326  1.0000
  S   S640      1.0  0.68155  0.08564  0.83540  1.0000
  Fe  Fe323     1.0  0.72116  0.16849  0.58900  1.0000
  H   H5044     1.0  0.58400  0.04998  0.80328  1.0000
  C   C2844     1.0  0.73638  0.16295  0.80811  1.0000
  H   H5045     1.0  0.61049  0.23178  0.68243  1.0000
  H   H5046     1.0  0.65256  0.98635  0.77716  1.0000
  C   C2845     1.0  0.67223  0.20469  0.65164  1.0000
  H   H5047     1.0  0.72359  0.14532  0.68810  1.0000
  C   C2846     1.0  0.67771  0.11000  0.74726  1.0000
  H   H5048     1.0  0.69871  0.18579  0.47975  1.0000
  H   H5049     1.0  0.67437  0.19423  0.64553  1.0000
  H   H5050     1.0  0.55630  0.21330  0.56034  1.0000
  C   C2847     1.0  0.68182  0.12714  0.74021  1.0000
  H   H5051     1.0  0.64536  0.01719  0.75944  1.0000
  C   C2848     1.0  0.67784  0.08730  0.68422  1.0000
  C   C2849     1.0  0.66346  0.09397  0.67474  1.0000
  C   C2850     1.0  0.65454  0.08033  0.67620  1.0000
  H   H5052     1.0  0.68632  0.10194  0.75524  1.0000
  H   H5053     1.0  0.66959  0.11845  0.68734  1.0000
  C   C2851     1.0  0.69633  0.09496  0.69668  1.0000
  H   H5054     1.0  0.53196  0.20502  0.57831  1.0000
  H   H5055     1.0  0.67144  0.08490  0.69754  1.0000
  H   H5056     1.0  0.67639  0.18374  0.69834  1.0000
  C   C2852     1.0  0.68602  0.22920  0.59603  1.0000
  H   H5057     1.0  0.65413  0.10408  0.68007  1.0000
  H   H5058     1.0  0.66771  0.09915  0.66144  1.0000
  H   H5059     1.0  0.66308  0.07037  0.67010  1.0000
  H   H5060     1.0  0.64975  0.07491  0.68942  1.0000
  H   H5061     1.0  0.64383  0.08568  0.67009  1.0000
  H   H5062     1.0  0.67918  0.20043  0.66171  1.0000
  H   H5063     1.0  0.62243  0.03845  0.77123  1.0000
  C   C2853     1.0  0.67888  0.07238  0.94883  1.0000
  H   H5064     1.0  0.73731  0.00482  0.72258  1.0000
  C   C2854     1.0  0.73095  0.17124  0.65527  1.0000
  C   C2855     1.0  0.60084  0.17863  0.64517  1.0000
  C   C2856     1.0  0.68987  0.18222  0.69269  1.0000
  S   S641      1.0  0.71381  0.13807  0.63143  1.0000
  H   H5065     1.0  0.73313  0.22380  0.84135  1.0000
  C   C2857     1.0  0.71682  0.09668  0.78894  1.0000
  H   H5066     1.0  0.69772  0.17816  0.71519  1.0000
  H   H5067     1.0  0.54567  0.17914  0.59569  1.0000
  H   H5068     1.0  0.66404  0.22802  0.86115  1.0000
  H   H5069     1.0  0.70319  0.10110  0.90473  1.0000
  H   H5070     1.0  0.64255  0.19074  0.51195  1.0000
  C   C2858     1.0  0.70167  0.05331  0.87417  1.0000
  H   H5071     1.0  0.55625  0.20006  0.71592  1.0000
  C   C2859     1.0  0.69534  0.15425  0.71243  1.0000
  H   H5072     1.0  0.70827  0.11596  0.73648  1.0000
  H   H5073     1.0  0.69464  0.16538  0.48745  1.0000
  H   H5074     1.0  0.50327  0.20664  0.71762  1.0000
  H   H5075     1.0  0.62042  0.17764  0.51138  1.0000
  H   H5076     1.0  0.69741  0.18804  0.50835  1.0000
  H   H5077     1.0  0.71423  0.10130  0.80042  1.0000
  H   H5078     1.0  0.69209  0.04579  0.88016  1.0000
  H   H5079     1.0  0.67624  0.22934  0.64614  1.0000
  N   N158      1.0  0.68996  0.09830  0.68110  1.0000
  H   H5080     1.0  0.68214  0.10194  0.87720  1.0000
  C   C2860     1.0  0.70504  0.14922  0.73791  1.0000
  H   H5081     1.0  0.66480  0.09556  0.89185  1.0000
  H   H5082     1.0  0.72064  0.17871  0.82417  1.0000
  H   H5083     1.0  0.63504  0.22161  0.62354  1.0000
  C   C2861     1.0  0.69331  0.99968  0.78982  1.0000
  H   H5084     1.0  0.61506  0.22943  0.48368  1.0000
  C   C2862     1.0  0.71835  0.14745  0.96762  1.0000
  H   H5085     1.0  0.63084  0.22823  0.71101  1.0000
  H   H5086     1.0  0.61988  0.17633  0.83196  1.0000
  H   H5087     1.0  0.58662  0.19926  0.72601  1.0000
  Fe  Fe324     1.0  0.55086  0.21720  0.63385  1.0000
  H   H5088     1.0  0.64090  0.22004  0.88350  1.0000
  S   S642      1.0  0.73493  0.12021  0.92484  1.0000
  C   C2863     1.0  0.61354  0.22073  0.65364  1.0000
  C   C2864     1.0  0.65071  0.01949  0.76880  1.0000
  C   C2865     1.0  0.63122  0.00368  0.78861  1.0000
  H   H5089     1.0  0.69819  0.20319  0.62624  1.0000
  C   C2866     1.0  0.67149  0.03417  0.74639  1.0000
  C   C2867     1.0  0.70460  0.09434  0.66722  1.0000
  H   H5090     1.0  0.69411  0.10937  0.64560  1.0000
  H   H5091     1.0  0.71843  0.20674  0.86624  1.0000
  C   C2868     1.0  0.69107  0.12920  0.67702  1.0000
  H   H5092     1.0  0.73701  0.09578  0.88562  1.0000
  H   H5093     1.0  0.68567  0.20894  0.91045  1.0000
  C   C2869     1.0  0.69915  0.17577  0.50538  1.0000
  C   C2870     1.0  0.73274  0.22166  0.93925  1.0000
  H   H5094     1.0  0.72921  0.17805  0.93796  1.0000
  C   C2871     1.0  0.72714  0.13385  0.69736  1.0000
  C   C2872     1.0  0.56936  0.21908  0.71423  1.0000
  H   H5095     1.0  0.65730  0.02063  0.82513  1.0000
  H   H5096     1.0  0.66756  0.06784  0.95012  1.0000
  H   H5097     1.0  0.69557  0.06825  0.70586  1.0000
  H   H5098     1.0  0.71567  0.20159  0.83234  1.0000
  C   C2873     1.0  0.69188  0.19558  0.91247  1.0000
  H   H5099     1.0  0.70249  0.21594  0.54696  1.0000
  C   C2874     1.0  0.59647  0.05091  0.79533  1.0000
  H   H5100     1.0  0.73201  0.09221  0.90797  1.0000
  C   C2875     1.0  0.69973  0.12592  0.72949  1.0000
  H   H5101     1.0  0.59078  0.21792  0.75965  1.0000
  C   C2876     1.0  0.67291  0.18483  0.49408  1.0000
  C   C2877     1.0  0.71293  0.13728  0.75218  1.0000
  C   C2878     1.0  0.73910  0.18424  0.92938  1.0000
  C   C2879     1.0  0.72434  0.22636  0.95596  1.0000
  S   S643      1.0  0.57495  0.20857  0.61640  1.0000
  H   H5102     1.0  0.67719  0.09818  0.92199  1.0000
  H   H5103     1.0  0.57544  0.20687  0.76201  1.0000
  H   H5104     1.0  0.67701  0.11987  0.66579  1.0000
  C   C2880     1.0  0.71654  0.09256  0.63715  1.0000
  S   S644      1.0  0.65804  0.21607  0.73654  1.0000
  C   C2881     1.0  0.70413  0.07658  0.70375  1.0000
  H   H5105     1.0  0.69251  0.12846  0.68962  1.0000
  H   H5106     1.0  0.68900  0.15580  0.67107  1.0000
  C   C2882     1.0  0.60311  0.18506  0.77037  1.0000
  N   N159      1.0  0.68786  0.08717  0.90050  1.0000
  C   C2883     1.0  0.68993  0.07073  0.89614  1.0000
  C   C2884     1.0  0.70068  0.09651  0.65015  1.0000
  H   H5107     1.0  0.71492  0.23008  0.83255  1.0000
  C   C2885     1.0  0.70607  0.11318  0.84745  1.0000
  C   C2886     1.0  0.62489  0.03439  0.78396  1.0000
  S   S645      1.0  0.71280  0.17530  0.64800  1.0000
  H   H5108     1.0  0.67804  0.06639  0.90083  1.0000
  Fe  Fe325     1.0  0.73544  0.13568  0.60987  1.0000
  S   S646      1.0  0.71924  0.14230  0.59141  1.0000
  H   H5109     1.0  0.62943  0.02814  0.81800  1.0000
  S   S647      1.0  0.70853  0.05128  0.80731  1.0000
  H   H5110     1.0  0.72689  0.19760  0.62143  1.0000
  H   H5111     1.0  0.65843  0.12286  0.55811  1.0000
  H   H5112     1.0  0.71585  0.07209  0.69524  1.0000
  H   H5113     1.0  0.68085  0.12141  0.89688  1.0000
  Fe  Fe326     1.0  0.71654  0.16414  0.62626  1.0000
  C   C2887     1.0  0.67049  0.11747  0.89483  1.0000
  S   S648      1.0  0.52992  0.20392  0.64053  1.0000
  H   H5114     1.0  0.65294  0.02887  0.79553  1.0000
  C   C2888     1.0  0.60756  0.03356  0.79552  1.0000
  H   H5115     1.0  0.49872  0.20673  0.75359  1.0000
  H   H5116     1.0  0.68094  0.14867  0.65784  1.0000
  H   H5117     1.0  0.67316  0.13197  0.86940  1.0000
  H   H5118     1.0  0.56706  0.20383  0.73921  1.0000
  H   H5119     1.0  0.69708  0.07788  0.72986  1.0000
  C   C2889     1.0  0.70017  0.17136  0.70520  1.0000
  H   H5120     1.0  0.59500  0.05733  0.78255  1.0000
  H   H5121     1.0  0.71332  0.09393  0.62513  1.0000
  C   C2890     1.0  0.73209  0.18133  0.66500  1.0000
  C   C2891     1.0  0.64775  0.01766  0.79822  1.0000
  N   N160      1.0  0.49463  0.22591  0.73192  1.0000
  C   C2892     1.0  0.72229  0.21982  0.84032  1.0000
  H   H5122     1.0  0.70055  0.07775  0.93087  1.0000
  C   C2893     1.0  0.58692  0.21026  0.75346  1.0000
  H   H5123     1.0  0.68436  0.07671  0.87157  1.0000
  C   C2894     1.0  0.68935  0.07351  0.93118  1.0000
  H   H5124     1.0  0.70896  0.21191  0.59904  1.0000
  Fe  Fe327     1.0  0.61712  0.21872  0.79051  1.0000
  H   H5125     1.0  0.70653  0.10028  0.88371  1.0000
  H   H5126     1.0  0.62291  0.19840  0.63364  1.0000
  H   H5127     1.0  0.58522  0.20215  0.64863  1.0000
  H   H5128     1.0  0.62067  0.22191  0.60170  1.0000
  H   H5129     1.0  0.55913  0.21422  0.69607  1.0000
  C   C2895     1.0  0.70339  0.22508  0.59999  1.0000
  H   H5130     1.0  0.71750  0.07389  0.82902  1.0000
  H   H5131     1.0  0.61306  0.17365  0.76965  1.0000
  C   C2896     1.0  0.69523  0.07084  0.87737  1.0000
  H   H5132     1.0  0.55283  0.18099  0.61278  1.0000
  H   H5133     1.0  0.61550  0.22288  0.74100  1.0000
  H   H5134     1.0  0.71121  0.08118  0.67038  1.0000
  H   H5135     1.0  0.66718  0.08298  0.92101  1.0000
  H   H5136     1.0  0.67816  0.22106  0.60512  1.0000
  H   H5137     1.0  0.60825  0.02756  0.80850  1.0000
  H   H5138     1.0  0.69980  0.12103  0.71881  1.0000
  H   H5139     1.0  0.72280  0.22729  0.62890  1.0000
  H   H5140     1.0  0.73215  0.21997  0.87998  1.0000
  C   C2897     1.0  0.63782  0.01602  0.81634  1.0000
  N   N161      1.0  0.70597  0.14184  0.72360  1.0000
  H   H5141     1.0  0.67238  0.13244  0.56266  1.0000
  H   H5142     1.0  0.71047  0.17850  0.92447  1.0000
  H   H5143     1.0  0.68625  0.06357  0.95766  1.0000
  H   H5144     1.0  0.70338  0.21096  0.64075  1.0000
  H   H5145     1.0  0.65277  0.12746  0.87868  1.0000
  H   H5146     1.0  0.71265  0.17018  0.50270  1.0000
  N   N162      1.0  0.60956  0.22309  0.63695  1.0000
  C   C2898     1.0  0.59460  0.21803  0.58610  1.0000
  H   H5147     1.0  0.70461  0.05397  0.86062  1.0000
  C   C2899     1.0  0.71965  0.20107  0.91200  1.0000
  C   C2900     1.0  0.71140  0.21663  0.85777  1.0000
  C   C2901     1.0  0.70847  0.07480  0.72032  1.0000
  C   C2902     1.0  0.69331  0.99400  0.80669  1.0000
  H   H5148     1.0  0.62910  0.04474  0.78582  1.0000
  C   C2903     1.0  0.59882  0.22446  0.72493  1.0000
  S   S649      1.0  0.72691  0.16240  0.89124  1.0000
  H   H5149     1.0  0.68606  0.09953  0.70667  1.0000
  H   H5150     1.0  0.71364  0.21379  0.90625  1.0000
  H   H5151     1.0  0.68461  0.07484  0.68172  1.0000
  C   C2904     1.0  0.72013  0.07896  0.89784  1.0000
  H   H5152     1.0  0.66817  0.03016  0.73674  1.0000
  C   C2905     1.0  0.73616  0.12491  0.95478  1.0000
  H   H5153     1.0  0.63053  0.21804  0.67789  1.0000
  C   C2906     1.0  0.65671  0.03603  0.76101  1.0000
  H   H5154     1.0  0.57852  0.22526  0.70459  1.0000
  S   S650      1.0  0.71833  0.07391  0.75932  1.0000
  H   H5155     1.0  0.63944  0.19349  0.47631  1.0000
  H   H5156     1.0  0.69718  0.19200  0.90030  1.0000
  H   H5157     1.0  0.69299  0.16755  0.51637  1.0000
  C   C2907     1.0  0.52317  0.20765  0.73746  1.0000
  H   H5158     1.0  0.59243  0.17162  0.65517  1.0000
  C   C2908     1.0  0.69774  0.09346  0.83731  1.0000
  H   H5159     1.0  0.63052  0.00630  0.82002  1.0000
  H   H5160     1.0  0.65918  0.14290  0.88462  1.0000
  H   H5161     1.0  0.67498  0.23005  0.57583  1.0000
  C   C2909     1.0  0.72257  0.10443  0.84448  1.0000
  H   H5162     1.0  0.71718  0.20354  0.94609  1.0000
  H   H5163     1.0  0.71168  0.22115  0.93075  1.0000
  H   H5164     1.0  0.71315  0.04714  0.87890  1.0000
  C   C2910     1.0  0.59971  0.22941  0.57158  1.0000
  H   H5165     1.0  0.72375  0.07270  0.88730  1.0000
  H   H5166     1.0  0.61212  0.19576  0.74489  1.0000
  H   H5167     1.0  0.66781  0.17456  0.50341  1.0000
  H   H5168     1.0  0.73213  0.03984  0.68326  1.0000
  H   H5169     1.0  0.72196  0.19164  0.66770  1.0000
  C   C2911     1.0  0.62265  0.23013  0.62314  1.0000
  Fe  Fe328     1.0  0.73104  0.13469  0.89945  1.0000
  H   H5170     1.0  0.60712  0.21334  0.72044  1.0000
  H   H5171     1.0  0.61240  0.19595  0.49698  1.0000
  H   H5172     1.0  0.51493  0.23085  0.71109  1.0000
  H   H5173     1.0  0.71755  0.13772  0.77560  1.0000
  H   H5174     1.0  0.52127  0.21575  0.59454  1.0000
  H   H5175     1.0  0.73588  0.09521  0.76694  1.0000
  H   H5176     1.0  0.72607  0.13149  0.74757  1.0000
  C   C2912     1.0  0.50509  0.21628  0.74446  1.0000
  H   H5177     1.0  0.70836  0.10483  0.78093  1.0000
  C   C2913     1.0  0.69656  0.21477  0.63052  1.0000
  H   H5178     1.0  0.67029  0.19502  0.50076  1.0000
  S   S651      1.0  0.62379  0.23063  0.52085  1.0000
  N   N163      1.0  0.73174  0.20185  0.92147  1.0000
  C   C2914     1.0  0.58157  0.22330  0.59873  1.0000
  H   H5179     1.0  0.60962  0.22524  0.56174  1.0000
  C   C2915     1.0  0.68735  0.22607  0.57905  1.0000
  H   H5180     1.0  0.67517  0.08471  0.95218  1.0000
  H   H5181     1.0  0.73550  0.04486  0.77978  1.0000
  H   H5182     1.0  0.70018  0.22869  0.50487  1.0000
  Fe  Fe329     1.0  0.73254  0.12954  0.86524  1.0000
  S   S652      1.0  0.72880  0.15680  0.85416  1.0000
  H   H5183     1.0  0.72512  0.22037  0.51467  1.0000
  C   C2916     1.0  0.72668  0.09048  0.83744  1.0000
  H   H5184     1.0  0.63454  0.22740  0.86403  1.0000
  H   H5185     1.0  0.67525  0.21908  0.80960  1.0000
  C   C2917     1.0  0.73236  0.21607  0.80264  1.0000
  N   N164      1.0  0.66430  0.19068  0.47966  1.0000
  H   H5186     1.0  0.58317  0.22883  0.64742  1.0000
  C   C2918     1.0  0.73476  0.09643  0.77973  1.0000
  H   H5187     1.0  0.68950  0.21581  0.82262  1.0000
  C   C2919     1.0  0.72854  0.13088  0.94116  1.0000
  Fe  Fe330     1.0  0.51364  0.22934  0.63616  1.0000
  H   H5188     1.0  0.72346  0.07965  0.64095  1.0000
  H   H5189     1.0  0.70744  0.22815  0.86263  1.0000
  H   H5190     1.0  0.73799  0.21145  0.79099  1.0000
  H   H5191     1.0  0.71866  0.06932  0.90937  1.0000
  H   H5192     1.0  0.55460  0.22919  0.76359  1.0000
  H   H5193     1.0  0.56296  0.22681  0.56824  1.0000
  H   H5194     1.0  0.55791  0.22857  0.71732  1.0000
  H   H5195     1.0  0.65107  0.98448  0.79891  1.0000
  C   C2920     1.0  0.73766  0.06034  0.75522  1.0000
  C   C2921     1.0  0.63842  0.23117  0.87350  1.0000
  C   C2922     1.0  0.73310  0.20791  0.61458  1.0000
  H   H5196     1.0  0.73628  0.06518  0.61411  1.0000
  H   H5197     1.0  0.73729  0.10860  0.77901  1.0000
  C   C2923     1.0  0.64385  0.98677  0.78932  1.0000
  H   H5198     1.0  0.61571  0.47615  0.24327  1.0000
  H   H5199     1.0  0.64528  0.32110  0.46711  1.0000
  S   S653      1.0  0.63518  0.25445  0.47134  1.0000
  H   H5200     1.0  0.71323  0.24652  0.00998  1.0000
  C   C2924     1.0  0.53058  0.25182  0.27469  1.0000
  C   C2925     1.0  0.68922  0.25948  0.37670  1.0000
  Fe  Fe331     1.0  0.55344  0.26921  0.19954  1.0000
  S   S654      1.0  0.55420  0.28935  0.17659  1.0000
  S   S655      1.0  0.56454  0.24202  0.20035  1.0000
  Fe  Fe332     1.0  0.56079  0.30376  0.19128  1.0000
  S   S656      1.0  0.58409  0.31433  0.18321  1.0000
  C   C2926     1.0  0.52513  0.27386  0.15293  1.0000
  S   S657      1.0  0.56174  0.28278  0.21349  1.0000
  S   S658      1.0  0.72813  0.31907  0.35998  1.0000
  Fe  Fe333     1.0  0.62347  0.41103  0.21086  1.0000
  S   S659      1.0  0.60944  0.39538  0.23272  1.0000
  Fe  Fe334     1.0  0.64767  0.38106  0.19950  1.0000
  S   S660      1.0  0.63579  0.36280  0.22042  1.0000
  S   S661      1.0  0.67232  0.37345  0.18270  1.0000
  Fe  Fe335     1.0  0.61169  0.37931  0.21500  1.0000
  S   S662      1.0  0.58858  0.37075  0.21570  1.0000
  Fe  Fe336     1.0  0.63463  0.38021  0.23619  1.0000
  S   S663      1.0  0.64378  0.37077  0.25999  1.0000
  S   S664      1.0  0.62374  0.39638  0.19275  1.0000
  S   S665      1.0  0.64838  0.39706  0.21574  1.0000
  S   S666      1.0  0.69679  0.39343  0.30543  1.0000
  S   S667      1.0  0.69154  0.43226  0.30790  1.0000
  Fe  Fe337     1.0  0.70393  0.40693  0.32030  1.0000
  S   S668      1.0  0.70236  0.39692  0.34761  1.0000
  Fe  Fe338     1.0  0.68679  0.41867  0.29130  1.0000
  S   S669      1.0  0.66264  0.42619  0.28278  1.0000
  H   H5201     1.0  0.59938  0.46887  0.21793  1.0000
  H   H5202     1.0  0.51021  0.25101  0.36005  1.0000
  Fe  Fe339     1.0  0.72379  0.27084  0.40842  1.0000
  S   S670      1.0  0.52385  0.29879  0.24695  1.0000
  S   S671      1.0  0.71362  0.29773  0.40883  1.0000
  C   C2927     1.0  0.69051  0.26709  0.46496  1.0000
  C   C2928     1.0  0.49068  0.29654  0.17841  1.0000
  H   H5203     1.0  0.72747  0.29297  0.14901  1.0000
  C   C2929     1.0  0.66376  0.29041  0.44885  1.0000
  C   C2930     1.0  0.65833  0.46505  0.32101  1.0000
  H   H5204     1.0  0.67052  0.32859  0.46639  1.0000
  H   H5205     1.0  0.67824  0.46831  0.29021  1.0000
  C   C2931     1.0  0.52295  0.28140  0.26328  1.0000
  Fe  Fe340     1.0  0.62786  0.25244  0.10612  1.0000
  S   S672      1.0  0.62610  0.27919  0.10512  1.0000
  H   H5206     1.0  0.55363  0.33850  0.23088  1.0000
  S   S673      1.0  0.61272  0.24300  0.09471  1.0000
  Fe  Fe341     1.0  0.69193  0.33631  0.11120  1.0000
  S   S674      1.0  0.69931  0.31963  0.13429  1.0000
  S   S675      1.0  0.67373  0.36050  0.11356  1.0000
  Fe  Fe342     1.0  0.69281  0.30010  0.12614  1.0000
  S   S676      1.0  0.67765  0.28211  0.14339  1.0000
  S   S677      1.0  0.68386  0.31707  0.10401  1.0000
  C   C2932     1.0  0.63968  0.28019  0.11650  1.0000
  C   C2933     1.0  0.64196  0.29554  0.11694  1.0000
  C   C2934     1.0  0.65329  0.29622  0.12562  1.0000
  C   C2935     1.0  0.66217  0.28159  0.13402  1.0000
  C   C2936     1.0  0.65935  0.26631  0.13413  1.0000
  C   C2937     1.0  0.64843  0.26559  0.12506  1.0000
  H   H5207     1.0  0.63530  0.30685  0.11023  1.0000
  H   H5208     1.0  0.65521  0.30806  0.12571  1.0000
  H   H5209     1.0  0.66586  0.25496  0.14091  1.0000
  H   H5210     1.0  0.64694  0.25368  0.12464  1.0000
  C   C2938     1.0  0.71121  0.37548  0.35141  1.0000
  C   C2939     1.0  0.72250  0.34077  0.35721  1.0000
  C   C2940     1.0  0.71564  0.34861  0.37058  1.0000
  C   C2941     1.0  0.70992  0.36598  0.36767  1.0000
  H   H5211     1.0  0.71436  0.34127  0.38311  1.0000
  H   H5212     1.0  0.70417  0.37201  0.37798  1.0000
  C   C2942     1.0  0.64909  0.38619  0.26620  1.0000
  C   C2943     1.0  0.64297  0.40301  0.26009  1.0000
  C   C2944     1.0  0.64684  0.41521  0.26554  1.0000
  C   C2945     1.0  0.65727  0.41063  0.27678  1.0000
  C   C2946     1.0  0.66354  0.39377  0.28277  1.0000
  C   C2947     1.0  0.65940  0.38159  0.27754  1.0000
  H   H5213     1.0  0.63513  0.40655  0.25126  1.0000
  H   H5214     1.0  0.64204  0.42820  0.26076  1.0000
  H   H5215     1.0  0.67158  0.39010  0.29139  1.0000
  H   H5216     1.0  0.66442  0.36859  0.28198  1.0000
  C   C2948     1.0  0.67239  0.37114  0.16302  1.0000
  C   C2949     1.0  0.65786  0.37577  0.15695  1.0000
  C   C2950     1.0  0.65839  0.37320  0.14134  1.0000
  C   C2951     1.0  0.67329  0.36541  0.13216  1.0000
  C   C2952     1.0  0.68777  0.36101  0.13818  1.0000
  C   C2953     1.0  0.68737  0.36412  0.15341  1.0000
  H   H5217     1.0  0.64627  0.38135  0.16421  1.0000
  H   H5218     1.0  0.64721  0.37688  0.13658  1.0000
  H   H5219     1.0  0.69939  0.35537  0.13096  1.0000
  H   H5220     1.0  0.69873  0.36090  0.15773  1.0000
  H   H5221     1.0  0.71661  0.42465  0.34526  1.0000
  H   H5222     1.0  0.63623  0.25083  0.15703  1.0000
  H   H5223     1.0  0.59513  0.44466  0.23816  1.0000
  H   H5224     1.0  0.64060  0.26165  0.18889  1.0000
  C   C2954     1.0  0.57777  0.23983  0.15172  1.0000
  C   C2955     1.0  0.57201  0.24596  0.16630  1.0000
  H   H5225     1.0  0.69286  0.44195  0.36133  1.0000
  C   C2956     1.0  0.51187  0.27016  0.29208  1.0000
  H   H5226     1.0  0.57941  0.24833  0.13978  1.0000
  H   H5227     1.0  0.56906  0.25913  0.16556  1.0000
  C   C2957     1.0  0.58533  0.33011  0.19211  1.0000
  C   C2958     1.0  0.57114  0.34154  0.19767  1.0000
  C   C2959     1.0  0.57250  0.35413  0.20446  1.0000
  C   C2960     1.0  0.58797  0.35536  0.20593  1.0000
  C   C2961     1.0  0.60223  0.34402  0.20023  1.0000
  C   C2962     1.0  0.60089  0.33146  0.19333  1.0000
  H   H5228     1.0  0.55912  0.34076  0.19663  1.0000
  H   H5229     1.0  0.56144  0.36297  0.20867  1.0000
  H   H5230     1.0  0.61422  0.34485  0.20130  1.0000
  H   H5231     1.0  0.61189  0.32264  0.18911  1.0000
  C   C2963     1.0  0.56645  0.25403  0.37380  1.0000
  H   H5232     1.0  0.52474  0.26161  0.33239  1.0000
  C   C2964     1.0  0.69617  0.25137  0.40371  1.0000
  C   C2965     1.0  0.69796  0.26106  0.38760  1.0000
  H   H5233     1.0  0.64801  0.25317  0.06177  1.0000
  S   S678      1.0  0.71740  0.30162  0.06653  1.0000
  C   C2966     1.0  0.64552  0.47171  0.19962  1.0000
  C   C2967     1.0  0.56596  0.33293  0.25619  1.0000
  C   C2968     1.0  0.73504  0.30948  0.29223  1.0000
  C   C2969     1.0  0.71471  0.40451  0.17204  1.0000
  C   C2970     1.0  0.70452  0.35231  0.29476  1.0000
  C   C2971     1.0  0.67857  0.24834  0.38196  1.0000
  C   C2972     1.0  0.71865  0.36760  0.33814  1.0000
  C   C2973     1.0  0.70659  0.26370  0.02607  1.0000
  C   C2974     1.0  0.55821  0.24882  0.32705  1.0000
  C   C2975     1.0  0.73448  0.38037  0.23310  1.0000
  S   S679      1.0  0.53409  0.31560  0.20029  1.0000
  N   N165      1.0  0.62125  0.26386  0.17607  1.0000
  H   H5234     1.0  0.71616  0.25876  0.45266  1.0000
  C   C2976     1.0  0.50436  0.27738  0.35663  1.0000
  C   C2977     1.0  0.61371  0.27683  0.16271  1.0000
  C   C2978     1.0  0.60776  0.26122  0.19152  1.0000
  C   C2979     1.0  0.61333  0.25452  0.20828  1.0000
  H   H5235     1.0  0.65015  0.28583  0.42549  1.0000
  C   C2980     1.0  0.60073  0.27208  0.15652  1.0000
  S   S680      1.0  0.70762  0.25214  0.41742  1.0000
  C   C2981     1.0  0.73814  0.27020  0.26951  1.0000
  H   H5236     1.0  0.58611  0.28162  0.23363  1.0000
  H   H5237     1.0  0.57804  0.36069  0.25329  1.0000
  C   C2982     1.0  0.59225  0.28687  0.14495  1.0000
  H   H5238     1.0  0.66919  0.27932  0.41125  1.0000
  C   C2983     1.0  0.56801  0.35831  0.26443  1.0000
  H   H5239     1.0  0.61014  0.42561  0.25830  1.0000
  C   C2984     1.0  0.69420  0.44344  0.34782  1.0000
  H   H5240     1.0  0.62359  0.28023  0.15171  1.0000
  H   H5241     1.0  0.60731  0.28847  0.16713  1.0000
  H   H5242     1.0  0.59843  0.27304  0.19273  1.0000
  H   H5243     1.0  0.60050  0.25274  0.19048  1.0000
  C   C2985     1.0  0.71841  0.32573  0.19392  1.0000
  C   C2986     1.0  0.72679  0.28735  0.26585  1.0000
  H   H5244     1.0  0.71998  0.29121  0.27764  1.0000
  H   H5245     1.0  0.57170  0.26394  0.29473  1.0000
  H   H5246     1.0  0.59107  0.26781  0.16715  1.0000
  H   H5247     1.0  0.60666  0.26216  0.14945  1.0000
  H   H5248     1.0  0.68610  0.26228  0.45668  1.0000
  C   C2987     1.0  0.51328  0.28374  0.27877  1.0000
  H   H5249     1.0  0.66412  0.27658  0.08620  1.0000
  C   C2988     1.0  0.57840  0.30834  0.23218  1.0000
  H   H5250     1.0  0.71871  0.46127  0.33316  1.0000
  H   H5251     1.0  0.54464  0.32126  0.23497  1.0000
  S   S681      1.0  0.72894  0.40825  0.30393  1.0000
  H   H5252     1.0  0.57614  0.30091  0.25855  1.0000
  H   H5253     1.0  0.58933  0.43301  0.26895  1.0000
  H   H5254     1.0  0.49605  0.28181  0.20168  1.0000
  N   N166      1.0  0.55569  0.32198  0.25456  1.0000
  H   H5255     1.0  0.58325  0.28302  0.14045  1.0000
  H   H5256     1.0  0.58544  0.29698  0.15160  1.0000
  H   H5257     1.0  0.60158  0.29155  0.13409  1.0000
  H   H5258     1.0  0.73512  0.27103  0.34648  1.0000
  H   H5259     1.0  0.70835  0.24401  0.47053  1.0000
  H   H5260     1.0  0.69730  0.46637  0.23160  1.0000
  C   C2989     1.0  0.72974  0.24655  0.35212  1.0000
  H   H5261     1.0  0.52380  0.27358  0.16618  1.0000
  H   H5262     1.0  0.69143  0.31683  0.46233  1.0000
  H   H5263     1.0  0.52062  0.23595  0.24579  1.0000
  H   H5264     1.0  0.51368  0.28161  0.14893  1.0000
  H   H5265     1.0  0.64000  0.30444  0.18961  1.0000
  C   C2990     1.0  0.64359  0.29145  0.18799  1.0000
  H   H5266     1.0  0.72103  0.31678  0.18585  1.0000
  H   H5267     1.0  0.66322  0.45746  0.29131  1.0000
  H   H5268     1.0  0.64970  0.42558  0.18444  1.0000
  H   H5269     1.0  0.64265  0.25242  0.43736  1.0000
  C   C2991     1.0  0.73650  0.30495  0.45940  1.0000
  C   C2992     1.0  0.68109  0.24364  0.04451  1.0000
  H   H5270     1.0  0.69552  0.28963  0.46668  1.0000
  C   C2993     1.0  0.71238  0.43783  0.33955  1.0000
  H   H5271     1.0  0.57847  0.46793  0.22099  1.0000
  H   H5272     1.0  0.52189  0.25921  0.36938  1.0000
  C   C2994     1.0  0.72569  0.47048  0.28952  1.0000
  H   H5273     1.0  0.72017  0.33972  0.21792  1.0000
  H   H5274     1.0  0.64517  0.28302  0.20007  1.0000
  H   H5275     1.0  0.60630  0.44106  0.27020  1.0000
  H   H5276     1.0  0.59841  0.23569  0.21855  1.0000
  H   H5277     1.0  0.70372  0.24555  0.15258  1.0000
  C   C2995     1.0  0.52888  0.25599  0.15014  1.0000
  H   H5278     1.0  0.54443  0.29507  0.31148  1.0000
  H   H5279     1.0  0.53138  0.29437  0.29861  1.0000
  C   C2996     1.0  0.63504  0.27002  0.17860  1.0000
  C   C2997     1.0  0.68640  0.33952  0.44449  1.0000
  C   C2998     1.0  0.73724  0.29428  0.15392  1.0000
  C   C2999     1.0  0.68881  0.40864  0.24259  1.0000
  C   C3000     1.0  0.55279  0.25062  0.31076  1.0000
  N   N167      1.0  0.67298  0.29696  0.45735  1.0000
  C   C3001     1.0  0.63015  0.28782  0.18186  1.0000
  C   C3002     1.0  0.53923  0.28260  0.14295  1.0000
  C   C3003     1.0  0.71063  0.40681  0.19002  1.0000
  H   H5280     1.0  0.53145  0.25680  0.13655  1.0000
  H   H5281     1.0  0.54086  0.24974  0.15386  1.0000
  H   H5282     1.0  0.72560  0.24368  0.15062  1.0000
  N   N168      1.0  0.69493  0.23746  0.03098  1.0000
  H   H5283     1.0  0.49426  0.27717  0.36795  1.0000
  S   S682      1.0  0.71859  0.29190  0.11182  1.0000
  C   C3004     1.0  0.66344  0.27947  0.42446  1.0000
  C   C3005     1.0  0.53174  0.26546  0.26121  1.0000
  C   C3006     1.0  0.72967  0.39018  0.16927  1.0000
  S   S683      1.0  0.52640  0.27778  0.21027  1.0000
  S   S684      1.0  0.72948  0.45380  0.27976  1.0000
  C   C3007     1.0  0.70184  0.25153  0.01866  1.0000
  H   H5284     1.0  0.68594  0.24847  0.05254  1.0000
  C   C3008     1.0  0.70828  0.25738  0.46538  1.0000
  H   H5285     1.0  0.54862  0.23950  0.31094  1.0000
  H   H5286     1.0  0.67618  0.34756  0.43849  1.0000
  H   H5287     1.0  0.71364  0.26193  0.47321  1.0000
  H   H5288     1.0  0.71756  0.28721  0.25907  1.0000
  H   H5289     1.0  0.51338  0.25059  0.20677  1.0000
  H   H5290     1.0  0.56036  0.29676  0.25141  1.0000
  C   C3009     1.0  0.67596  0.28081  0.08068  1.0000
  C   C3010     1.0  0.54628  0.33051  0.24091  1.0000
  H   H5291     1.0  0.53638  0.29526  0.14537  1.0000
  H   H5292     1.0  0.55112  0.27566  0.14654  1.0000
  H   H5293     1.0  0.72415  0.25960  0.09128  1.0000
  H   H5294     1.0  0.68008  0.40610  0.19525  1.0000
  H   H5295     1.0  0.72092  0.45788  0.16053  1.0000
  N   N169      1.0  0.61730  0.34743  0.13296  1.0000
  C   C3011     1.0  0.62367  0.33400  0.14667  1.0000
  C   C3012     1.0  0.60619  0.34117  0.12629  1.0000
  C   C3013     1.0  0.63209  0.35045  0.11903  1.0000
  C   C3014     1.0  0.60837  0.36366  0.13823  1.0000
  C   C3015     1.0  0.59968  0.36274  0.15677  1.0000
  C   C3016     1.0  0.63664  0.33785  0.15387  1.0000
  C   C3017     1.0  0.62795  0.36201  0.10262  1.0000
  C   C3018     1.0  0.59106  0.33528  0.13877  1.0000
  C   C3019     1.0  0.58035  0.33058  0.12998  1.0000
  C   C3020     1.0  0.58879  0.37953  0.15961  1.0000
  C   C3021     1.0  0.65432  0.32819  0.14846  1.0000
  C   C3022     1.0  0.64325  0.36766  0.09083  1.0000
  H   H5296     1.0  0.62893  0.32204  0.14252  1.0000
  H   H5297     1.0  0.61332  0.33116  0.15727  1.0000
  H   H5298     1.0  0.60099  0.35102  0.11644  1.0000
  H   H5299     1.0  0.61358  0.33062  0.12033  1.0000
  H   H5300     1.0  0.63990  0.33849  0.11595  1.0000
  H   H5301     1.0  0.64031  0.35598  0.12288  1.0000
  H   H5302     1.0  0.61710  0.37205  0.13551  1.0000
  H   H5303     1.0  0.59894  0.37065  0.13071  1.0000
  H   H5304     1.0  0.60901  0.35930  0.16449  1.0000
  H   H5305     1.0  0.59179  0.35352  0.16152  1.0000
  H   H5306     1.0  0.63659  0.35126  0.15076  1.0000
  H   H5307     1.0  0.63329  0.33435  0.16760  1.0000
  H   H5308     1.0  0.61831  0.37326  0.10496  1.0000
  H   H5309     1.0  0.62337  0.35525  0.09610  1.0000
  H   H5310     1.0  0.59518  0.32414  0.14806  1.0000
  H   H5311     1.0  0.58296  0.34526  0.14499  1.0000
  H   H5312     1.0  0.56995  0.32575  0.13927  1.0000
  H   H5313     1.0  0.57498  0.34161  0.12123  1.0000
  H   H5314     1.0  0.58778  0.32083  0.12305  1.0000
  H   H5315     1.0  0.57858  0.38335  0.15284  1.0000
  H   H5316     1.0  0.58319  0.37861  0.17303  1.0000
  H   H5317     1.0  0.59631  0.38917  0.15549  1.0000
  H   H5318     1.0  0.65505  0.31463  0.15282  1.0000
  H   H5319     1.0  0.65863  0.33116  0.13483  1.0000
  H   H5320     1.0  0.66289  0.33163  0.15386  1.0000
  H   H5321     1.0  0.65368  0.35683  0.08891  1.0000
  H   H5322     1.0  0.64027  0.37446  0.07866  1.0000
  H   H5323     1.0  0.64720  0.37617  0.09588  1.0000
  H   H5324     1.0  0.63886  0.42905  0.22756  1.0000
  H   H5325     1.0  0.58822  0.25564  0.22353  1.0000
  H   H5326     1.0  0.66398  0.32157  0.44330  1.0000
  H   H5327     1.0  0.70631  0.26949  0.38345  1.0000
  Fe  Fe343     1.0  0.73199  0.30276  0.38479  1.0000
  C   C3023     1.0  0.51137  0.24491  0.17737  1.0000
  C   C3024     1.0  0.71374  0.27713  0.01237  1.0000
  H   H5328     1.0  0.66439  0.26643  0.43153  1.0000
  C   C3025     1.0  0.63445  0.46379  0.19704  1.0000
  H   H5329     1.0  0.72226  0.40718  0.19312  1.0000
  H   H5330     1.0  0.57367  0.35068  0.27501  1.0000
  C   C3026     1.0  0.62842  0.24807  0.16967  1.0000
  H   H5331     1.0  0.50649  0.29606  0.28037  1.0000
  H   H5332     1.0  0.67146  0.24005  0.46654  1.0000
  C   C3027     1.0  0.67632  0.23922  0.39827  1.0000
  Fe  Fe344     1.0  0.52738  0.29890  0.18811  1.0000
  H   H5333     1.0  0.71078  0.35153  0.17971  1.0000
  H   H5334     1.0  0.71547  0.44350  0.19798  1.0000
  H   H5335     1.0  0.67046  0.26783  0.02963  1.0000
  N   N170      1.0  0.54531  0.24564  0.34287  1.0000
  C   C3028     1.0  0.66630  0.25697  0.03859  1.0000
  C   C3029     1.0  0.70068  0.43776  0.18381  1.0000
  H   H5336     1.0  0.57466  0.33647  0.24424  1.0000
  Fe  Fe345     1.0  0.72111  0.39641  0.28809  1.0000
  H   H5337     1.0  0.50319  0.25736  0.13861  1.0000
  H   H5338     1.0  0.50400  0.27200  0.30392  1.0000
  H   H5339     1.0  0.53464  0.32762  0.27464  1.0000
  N   N171      1.0  0.70116  0.32642  0.20473  1.0000
  H   H5340     1.0  0.65971  0.25162  0.03260  1.0000
  C   C3030     1.0  0.70113  0.31054  0.21779  1.0000
  C   C3031     1.0  0.68946  0.32848  0.19371  1.0000
  C   C3032     1.0  0.69579  0.34077  0.21331  1.0000
  C   C3033     1.0  0.70705  0.34077  0.22462  1.0000
  C   C3034     1.0  0.65184  0.44875  0.22226  1.0000
  C   C3035     1.0  0.67096  0.32926  0.20246  1.0000
  C   C3036     1.0  0.70238  0.29480  0.21164  1.0000
  C   C3037     1.0  0.70594  0.27905  0.22488  1.0000
  C   C3038     1.0  0.70160  0.35676  0.23105  1.0000
  N   N172      1.0  0.51573  0.24603  0.15894  1.0000
  C   C3039     1.0  0.66073  0.32926  0.19049  1.0000
  C   C3040     1.0  0.56711  0.25274  0.29573  1.0000
  C   C3041     1.0  0.52848  0.34102  0.24570  1.0000
  H   H5341     1.0  0.71171  0.30791  0.22393  1.0000
  H   H5342     1.0  0.68978  0.31182  0.22786  1.0000
  H   H5343     1.0  0.69365  0.31850  0.18657  1.0000
  H   H5344     1.0  0.68983  0.34001  0.18401  1.0000
  H   H5345     1.0  0.69443  0.35285  0.20426  1.0000
  H   H5346     1.0  0.68321  0.34091  0.22144  1.0000
  H   H5347     1.0  0.71898  0.25135  0.34609  1.0000
  H   H5348     1.0  0.70634  0.33023  0.23551  1.0000
  C   C3042     1.0  0.72153  0.24772  0.09084  1.0000
  C   C3043     1.0  0.65455  0.47707  0.30507  1.0000
  H   H5349     1.0  0.66567  0.34089  0.20702  1.0000
  H   H5350     1.0  0.66936  0.31865  0.21310  1.0000
  H   H5351     1.0  0.69061  0.29521  0.20840  1.0000
  H   H5352     1.0  0.54063  0.28379  0.12948  1.0000
  C   C3044     1.0  0.55352  0.24284  0.35713  1.0000
  H   H5353     1.0  0.69715  0.36420  0.28886  1.0000
  H   H5354     1.0  0.70339  0.36748  0.22054  1.0000
  H   H5355     1.0  0.68835  0.35864  0.23767  1.0000
  H   H5356     1.0  0.70929  0.35615  0.23975  1.0000
  H   H5357     1.0  0.69228  0.44697  0.24425  1.0000
  C   C3045     1.0  0.69098  0.25375  0.09656  1.0000
  H   H5358     1.0  0.65555  0.45285  0.32207  1.0000
  H   H5359     1.0  0.66535  0.31775  0.18557  1.0000
  H   H5360     1.0  0.64751  0.32999  0.19700  1.0000
  H   H5361     1.0  0.66140  0.34020  0.18000  1.0000
  C   C3046     1.0  0.63203  0.44835  0.20707  1.0000
  H   H5362     1.0  0.70746  0.39497  0.19784  1.0000
  H   H5363     1.0  0.68518  0.39763  0.25176  1.0000
  C   C3047     1.0  0.64081  0.44083  0.21964  1.0000
  H   H5364     1.0  0.54648  0.34778  0.27245  1.0000
  H   H5365     1.0  0.69001  0.44806  0.18712  1.0000
  H   H5366     1.0  0.73094  0.41800  0.36436  1.0000
  H   H5367     1.0  0.67157  0.46325  0.32128  1.0000
  H   H5368     1.0  0.70130  0.40911  0.24349  1.0000
  H   H5369     1.0  0.51990  0.33275  0.25320  1.0000
  H   H5370     1.0  0.67984  0.42002  0.24566  1.0000
  C   C3048     1.0  0.70463  0.25072  0.11892  1.0000
  C   C3049     1.0  0.59176  0.29262  0.23007  1.0000
  Fe  Fe346     1.0  0.73458  0.29488  0.42122  1.0000
  H   H5371     1.0  0.65150  0.29891  0.44789  1.0000
  H   H5372     1.0  0.69088  0.26669  0.36412  1.0000
  H   H5373     1.0  0.65562  0.28988  0.17882  1.0000
  H   H5374     1.0  0.52973  0.31354  0.30451  1.0000
  H   H5375     1.0  0.65054  0.47019  0.33186  1.0000
  H   H5376     1.0  0.68995  0.34677  0.45133  1.0000
  H   H5377     1.0  0.53730  0.23948  0.27314  1.0000
  C   C3050     1.0  0.63533  0.24338  0.44442  1.0000
  C   C3051     1.0  0.71654  0.44207  0.18529  1.0000
  N   N173      1.0  0.69690  0.42137  0.19419  1.0000
  C   C3052     1.0  0.60120  0.43672  0.26202  1.0000
  H   H5378     1.0  0.64849  0.23721  0.18369  1.0000
  N   N174      1.0  0.67354  0.34426  0.33765  1.0000
  C   C3053     1.0  0.66157  0.33765  0.33259  1.0000
  C   C3054     1.0  0.68419  0.32995  0.34737  1.0000
  C   C3055     1.0  0.66366  0.35693  0.34784  1.0000
  C   C3056     1.0  0.68480  0.35259  0.32275  1.0000
  C   C3057     1.0  0.69334  0.34267  0.30894  1.0000
  C   C3058     1.0  0.65042  0.35062  0.32140  1.0000
  C   C3059     1.0  0.67389  0.36372  0.35570  1.0000
  C   C3060     1.0  0.67497  0.32082  0.36416  1.0000
  C   C3061     1.0  0.68718  0.30763  0.37351  1.0000
  H   H5379     1.0  0.71605  0.25707  0.03353  1.0000
  C   C3062     1.0  0.64127  0.34223  0.31429  1.0000
  C   C3063     1.0  0.66273  0.37640  0.36573  1.0000
  H   H5380     1.0  0.65288  0.33226  0.34369  1.0000
  H   H5381     1.0  0.66831  0.32710  0.32644  1.0000
  H   H5382     1.0  0.69065  0.32032  0.34000  1.0000
  H   H5383     1.0  0.69440  0.33403  0.34971  1.0000
  H   H5384     1.0  0.65375  0.35195  0.35781  1.0000
  H   H5385     1.0  0.65694  0.36794  0.34005  1.0000
  H   H5386     1.0  0.67803  0.36498  0.31699  1.0000
  H   H5387     1.0  0.69495  0.35531  0.32659  1.0000
  H   H5388     1.0  0.68412  0.34024  0.30358  1.0000
  H   H5389     1.0  0.70116  0.33065  0.31384  1.0000
  H   H5390     1.0  0.64095  0.35918  0.32866  1.0000
  H   H5391     1.0  0.65767  0.35819  0.31084  1.0000
  H   H5392     1.0  0.68290  0.37009  0.34592  1.0000
  H   H5393     1.0  0.68073  0.35366  0.36416  1.0000
  H   H5394     1.0  0.66780  0.32950  0.37236  1.0000
  H   H5395     1.0  0.66635  0.31441  0.36213  1.0000
  H   H5396     1.0  0.69497  0.31359  0.37743  1.0000
  H   H5397     1.0  0.68027  0.30038  0.38479  1.0000
  H   H5398     1.0  0.69535  0.29892  0.36567  1.0000
  H   H5399     1.0  0.57328  0.46037  0.25549  1.0000
  H   H5400     1.0  0.72516  0.27149  0.00420  1.0000
  H   H5401     1.0  0.69355  0.45637  0.26934  1.0000
  H   H5402     1.0  0.63329  0.35185  0.30649  1.0000
  H   H5403     1.0  0.65025  0.33400  0.30636  1.0000
  H   H5404     1.0  0.63327  0.33486  0.32439  1.0000
  H   H5405     1.0  0.65361  0.37063  0.37603  1.0000
  H   H5406     1.0  0.67048  0.38109  0.37106  1.0000
  H   H5407     1.0  0.65606  0.38714  0.35767  1.0000
  H   H5408     1.0  0.70448  0.28448  0.00483  1.0000
  H   H5409     1.0  0.57744  0.24164  0.29667  1.0000
  H   H5410     1.0  0.68136  0.27753  0.06841  1.0000
  H   H5411     1.0  0.57411  0.32603  0.26503  1.0000
  C   C3064     1.0  0.51957  0.23784  0.20495  1.0000
  H   H5412     1.0  0.68934  0.45663  0.34230  1.0000
  H   H5413     1.0  0.50097  0.24626  0.25654  1.0000
  H   H5414     1.0  0.70650  0.26806  0.22017  1.0000
  C   C3065     1.0  0.53102  0.26056  0.34246  1.0000
  H   H5415     1.0  0.66690  0.45917  0.26258  1.0000
  H   H5416     1.0  0.69300  0.25899  0.01065  1.0000
  H   H5417     1.0  0.58692  0.46842  0.26187  1.0000
  C   C3066     1.0  0.61675  0.47561  0.27932  1.0000
  C   C3067     1.0  0.56147  0.25694  0.35733  1.0000
  H   H5418     1.0  0.68668  0.43568  0.34604  1.0000
  H   H5419     1.0  0.52964  0.23337  0.33657  1.0000
  C   C3068     1.0  0.57026  0.23501  0.18177  1.0000
  H   H5420     1.0  0.69170  0.24990  0.08502  1.0000
  H   H5421     1.0  0.72147  0.31160  0.29742  1.0000
  H   H5422     1.0  0.56227  0.26044  0.32569  1.0000
  H   H5423     1.0  0.53561  0.27221  0.33925  1.0000
  H   H5424     1.0  0.71293  0.43864  0.32632  1.0000
  H   H5425     1.0  0.55876  0.31432  0.28867  1.0000
  H   H5426     1.0  0.53544  0.24532  0.18148  1.0000
  H   H5427     1.0  0.55278  0.26920  0.35553  1.0000
  H   H5428     1.0  0.54256  0.26164  0.30877  1.0000
  C   C3069     1.0  0.69833  0.45716  0.24340  1.0000
  C   C3070     1.0  0.73415  0.34027  0.16633  1.0000
  C   C3071     1.0  0.56745  0.30637  0.25001  1.0000
  C   C3072     1.0  0.54385  0.31678  0.27065  1.0000
  H   H5429     1.0  0.71243  0.29379  0.20052  1.0000
  H   H5430     1.0  0.64349  0.27319  0.04839  1.0000
  H   H5431     1.0  0.72761  0.34837  0.18927  1.0000
  H   H5432     1.0  0.61838  0.24297  0.16831  1.0000
  H   H5433     1.0  0.67326  0.29454  0.07887  1.0000
  C   C3073     1.0  0.60027  0.24661  0.22182  1.0000
  C   C3074     1.0  0.51703  0.26084  0.35825  1.0000
  H   H5434     1.0  0.71326  0.26299  0.14171  1.0000
  S   S685      1.0  0.50725  0.30700  0.17317  1.0000
  H   H5435     1.0  0.71769  0.41581  0.16294  1.0000
  S   S686      1.0  0.61736  0.43910  0.20430  1.0000
  C   C3075     1.0  0.73767  0.23400  0.09174  1.0000
  H   H5436     1.0  0.58480  0.31871  0.22898  1.0000
  H   H5437     1.0  0.71957  0.24980  0.07810  1.0000
  H   H5438     1.0  0.69563  0.27010  0.03411  1.0000
  H   H5439     1.0  0.67223  0.44151  0.17388  1.0000
  C   C3076     1.0  0.67543  0.31395  0.44752  1.0000
  C   C3077     1.0  0.68989  0.28590  0.45845  1.0000
  H   H5440     1.0  0.65949  0.26865  0.05980  1.0000
  C   C3078     1.0  0.67262  0.28832  0.43100  1.0000
  C   C3079     1.0  0.69537  0.42163  0.21203  1.0000
  H   H5441     1.0  0.68698  0.43342  0.21499  1.0000
  H   H5442     1.0  0.62507  0.24509  0.20756  1.0000
  H   H5443     1.0  0.49510  0.26722  0.15572  1.0000
  C   C3080     1.0  0.73294  0.38335  0.24880  1.0000
  Fe  Fe347     1.0  0.53483  0.29361  0.22164  1.0000
  S   S687      1.0  0.66895  0.24529  0.36781  1.0000
  H   H5444     1.0  0.53637  0.30899  0.26879  1.0000
  C   C3081     1.0  0.50019  0.25488  0.15241  1.0000
  H   H5445     1.0  0.59842  0.29397  0.21690  1.0000
  C   C3082     1.0  0.68093  0.32424  0.45650  1.0000
  H   H5446     1.0  0.68496  0.31284  0.43587  1.0000
  H   H5447     1.0  0.69869  0.28743  0.44619  1.0000
  H   H5448     1.0  0.66066  0.27841  0.45643  1.0000
  C   C3083     1.0  0.53846  0.30222  0.30098  1.0000
  C   C3084     1.0  0.52035  0.25419  0.29003  1.0000
  H   H5449     1.0  0.67308  0.30064  0.42254  1.0000
  H   H5450     1.0  0.68548  0.28092  0.43043  1.0000
  H   H5451     1.0  0.52795  0.34997  0.25300  1.0000
  H   H5452     1.0  0.50213  0.23704  0.18357  1.0000
  H   H5453     1.0  0.69741  0.33570  0.43484  1.0000
  H   H5454     1.0  0.50893  0.35790  0.23400  1.0000
  H   H5455     1.0  0.57070  0.31065  0.22301  1.0000
  H   H5456     1.0  0.71088  0.34491  0.28516  1.0000
  C   C3085     1.0  0.50978  0.23407  0.25617  1.0000
  H   H5457     1.0  0.57494  0.24169  0.37640  1.0000
  H   H5458     1.0  0.70364  0.26433  0.11584  1.0000
  C   C3086     1.0  0.65363  0.26335  0.05307  1.0000
  C   C3087     1.0  0.67733  0.23278  0.45679  1.0000
  H   H5459     1.0  0.56094  0.37044  0.26745  1.0000
  H   H5460     1.0  0.52136  0.34207  0.22294  1.0000
  H   H5461     1.0  0.65669  0.42926  0.16230  1.0000
  S   S688      1.0  0.71068  0.42061  0.27256  1.0000
  C   C3088     1.0  0.68050  0.41948  0.19233  1.0000
  C   C3089     1.0  0.67552  0.42779  0.17538  1.0000
  C   C3090     1.0  0.66034  0.42256  0.17421  1.0000
  H   H5462     1.0  0.53931  0.26364  0.24924  1.0000
  H   H5463     1.0  0.72003  0.37477  0.32558  1.0000
  H   H5464     1.0  0.70192  0.43854  0.17048  1.0000
  Fe  Fe348     1.0  0.71619  0.43247  0.29014  1.0000
  H   H5465     1.0  0.67003  0.42512  0.20146  1.0000
  C   C3091     1.0  0.68821  0.27297  0.09206  1.0000
  H   H5466     1.0  0.70409  0.40127  0.16960  1.0000
  C   C3092     1.0  0.63173  0.23313  0.43629  1.0000
  H   H5467     1.0  0.68564  0.42471  0.16481  1.0000
  C   C3093     1.0  0.69040  0.46548  0.25812  1.0000
  H   H5468     1.0  0.66315  0.40905  0.17471  1.0000
  S   S689      1.0  0.62481  0.23468  0.38813  1.0000
  H   H5469     1.0  0.71813  0.27769  0.22781  1.0000
  H   H5470     1.0  0.62860  0.29714  0.17021  1.0000
  H   H5471     1.0  0.70764  0.42134  0.21420  1.0000
  H   H5472     1.0  0.56025  0.29507  0.28308  1.0000
  H   H5473     1.0  0.72931  0.34431  0.33066  1.0000
  H   H5474     1.0  0.68305  0.27807  0.10338  1.0000
  Fe  Fe349     1.0  0.71018  0.31060  0.09025  1.0000
  H   H5475     1.0  0.49876  0.27952  0.34581  1.0000
  H   H5476     1.0  0.61829  0.28963  0.19114  1.0000
  H   H5477     1.0  0.70242  0.46630  0.30562  1.0000
  H   H5478     1.0  0.69299  0.24859  0.12800  1.0000
  H   H5479     1.0  0.73053  0.46149  0.17499  1.0000
  H   H5480     1.0  0.60088  0.29064  0.23778  1.0000
  H   H5481     1.0  0.54477  0.24039  0.36922  1.0000
  H   H5482     1.0  0.72771  0.43236  0.18206  1.0000
  H   H5483     1.0  0.63632  0.23431  0.42307  1.0000
  H   H5484     1.0  0.69997  0.27699  0.08574  1.0000
  C   C3094     1.0  0.55636  0.34956  0.26112  1.0000
  H   H5485     1.0  0.65842  0.44295  0.23216  1.0000
  S   S690      1.0  0.62352  0.23476  0.13063  1.0000
  S   S691      1.0  0.51767  0.23756  0.30692  1.0000
  H   H5486     1.0  0.61534  0.26489  0.21232  1.0000
  C   C3095     1.0  0.62967  0.24184  0.46159  1.0000
  H   H5487     1.0  0.69603  0.27943  0.23632  1.0000
  H   H5488     1.0  0.63677  0.30285  0.47380  1.0000
  H   H5489     1.0  0.67618  0.40692  0.22508  1.0000
  H   H5490     1.0  0.73425  0.29663  0.25841  1.0000
  C   C3096     1.0  0.72406  0.35031  0.34103  1.0000
  H   H5491     1.0  0.72784  0.28175  0.17873  1.0000
  H   H5492     1.0  0.56274  0.25416  0.28430  1.0000
  C   C3097     1.0  0.65419  0.46421  0.21227  1.0000
  C   C3098     1.0  0.55177  0.30687  0.28562  1.0000
  H   H5493     1.0  0.67946  0.25055  0.10529  1.0000
  H   H5494     1.0  0.64546  0.26991  0.16751  1.0000
  C   C3099     1.0  0.52175  0.35072  0.23028  1.0000
  H   H5495     1.0  0.69716  0.39499  0.22357  1.0000
  H   H5496     1.0  0.55084  0.35802  0.25076  1.0000
  H   H5497     1.0  0.71163  0.45177  0.24338  1.0000
  H   H5498     1.0  0.52965  0.35951  0.22242  1.0000
  H   H5499     1.0  0.73042  0.26202  0.27883  1.0000
  C   C3100     1.0  0.68898  0.40710  0.22532  1.0000
  H   H5500     1.0  0.62792  0.46957  0.18713  1.0000
  C   C3101     1.0  0.71512  0.24928  0.14422  1.0000
  N   N175      1.0  0.70605  0.24446  0.10371  1.0000
  S   S692      1.0  0.71747  0.33179  0.09491  1.0000
  H   H5501     1.0  0.71410  0.35498  0.29944  1.0000
  H   H5502     1.0  0.57305  0.26368  0.37327  1.0000
  H   H5503     1.0  0.73212  0.38838  0.15646  1.0000
  C   C3102     1.0  0.72206  0.34253  0.18272  1.0000
  H   H5504     1.0  0.71975  0.45089  0.35380  1.0000
  H   H5505     1.0  0.73699  0.35240  0.15905  1.0000
  Fe  Fe350     1.0  0.72423  0.31339  0.11750  1.0000
  H   H5506     1.0  0.61072  0.45366  0.24031  1.0000
  S   S693      1.0  0.65230  0.23694  0.09595  1.0000
  H   H5507     1.0  0.69616  0.47614  0.25616  1.0000
  H   H5508     1.0  0.68946  0.23606  0.45019  1.0000
  H   H5509     1.0  0.72536  0.24697  0.36540  1.0000
  H   H5510     1.0  0.61132  0.46500  0.28012  1.0000
  C   C3103     1.0  0.73905  0.29785  0.05991  1.0000
  C   C3104     1.0  0.66503  0.47020  0.28967  1.0000
  H   H5511     1.0  0.56952  0.23866  0.32744  1.0000
  H   H5512     1.0  0.73018  0.39035  0.22341  1.0000
  C   C3105     1.0  0.68520  0.24063  0.40904  1.0000
  H   H5513     1.0  0.50511  0.25735  0.18007  1.0000
  H   H5514     1.0  0.57294  0.25734  0.34745  1.0000
  S   S694      1.0  0.72526  0.30323  0.44574  1.0000
  H   H5515     1.0  0.55531  0.25468  0.38411  1.0000
  C   C3106     1.0  0.72321  0.44897  0.34089  1.0000
  H   H5516     1.0  0.72809  0.32055  0.20140  1.0000
  H   H5517     1.0  0.63924  0.46019  0.28566  1.0000
  H   H5518     1.0  0.73009  0.47714  0.34185  1.0000
  C   C3107     1.0  0.58481  0.46536  0.25095  1.0000
  S   S695      1.0  0.66826  0.47370  0.21569  1.0000
  H   H5519     1.0  0.72761  0.39564  0.25117  1.0000
  H   H5520     1.0  0.60437  0.24238  0.23373  1.0000
  C   C3108     1.0  0.59867  0.45023  0.24655  1.0000
  C   C3109     1.0  0.71911  0.24338  0.12806  1.0000
  C   C3110     1.0  0.52582  0.23781  0.18651  1.0000
  C   C3111     1.0  0.71923  0.45857  0.17361  1.0000
  H   H5521     1.0  0.72896  0.47330  0.23325  1.0000
  H   H5522     1.0  0.51031  0.28780  0.35517  1.0000
  H   H5523     1.0  0.72723  0.37846  0.17802  1.0000
  H   H5524     1.0  0.73562  0.26250  0.24860  1.0000
  H   H5525     1.0  0.70845  0.46879  0.17664  1.0000
  C   C3112     1.0  0.67128  0.47085  0.26004  1.0000
  H   H5526     1.0  0.68379  0.23309  0.42144  1.0000
  C   C3113     1.0  0.71143  0.47402  0.30174  1.0000
  H   H5527     1.0  0.67568  0.23316  0.05299  1.0000
  H   H5528     1.0  0.73044  0.24769  0.12027  1.0000
  H   H5529     1.0  0.72863  0.33536  0.15892  1.0000
  H   H5530     1.0  0.72570  0.24174  0.26909  1.0000
  H   H5531     1.0  0.73779  0.33050  0.29917  1.0000
  H   H5532     1.0  0.67947  0.23833  0.01455  1.0000
  H   H5533     1.0  0.71697  0.28571  0.01797  1.0000
  C   C3114     1.0  0.63887  0.23344  0.18014  1.0000
  H   H5534     1.0  0.57738  0.47836  0.19097  1.0000
  H   H5535     1.0  0.64107  0.47899  0.30584  1.0000
  C   C3115     1.0  0.58653  0.47624  0.22072  1.0000
  H   H5536     1.0  0.66865  0.47801  0.24777  1.0000
  H   H5537     1.0  0.63943  0.46523  0.26391  1.0000
  H   H5538     1.0  0.59957  0.47536  0.18774  1.0000
  H   H5539     1.0  0.53020  0.23328  0.21120  1.0000
  C   C3116     1.0  0.63568  0.47033  0.27527  1.0000
  H   H5540     1.0  0.73264  0.42167  0.46580  1.0000
  C   C3117     1.0  0.73745  0.28796  0.17074  1.0000
  H   H5541     1.0  0.61234  0.47937  0.29143  1.0000
  H   H5542     1.0  0.66922  0.23624  0.44782  1.0000
  H   H5543     1.0  0.73717  0.31533  0.27879  1.0000
  N   N176      1.0  0.66207  0.48075  0.27312  1.0000
  C   C3118     1.0  0.73728  0.48060  0.28462  1.0000
  N   N177      1.0  0.58249  0.48083  0.23734  1.0000
  S   S696      1.0  0.73856  0.37371  0.28053  1.0000
  H   H5544     1.0  0.48923  0.23294  0.15711  1.0000
  C   C3119     1.0  0.73894  0.37048  0.26117  1.0000
  S   S697      1.0  0.53057  0.26606  0.66179  1.0000
  C   C3120     1.0  0.73296  0.37072  0.58063  1.0000
  Fe  Fe351     1.0  0.65497  0.25727  0.51822  1.0000
  S   S698      1.0  0.67207  0.27492  0.51169  1.0000
  S   S699      1.0  0.63042  0.26828  0.51116  1.0000
  S   S700      1.0  0.70920  0.28103  0.56285  1.0000
  Fe  Fe352     1.0  0.73715  0.32892  0.55203  1.0000
  C   C3121     1.0  0.59170  0.24616  0.56969  1.0000
  H   H5545     1.0  0.69940  0.25038  0.50226  1.0000
  H   H5546     1.0  0.71879  0.23614  0.53523  1.0000
  H   H5547     1.0  0.73414  0.38383  0.74734  1.0000
  S   S701      1.0  0.70631  0.41856  0.64364  1.0000
  H   H5548     1.0  0.52038  0.27205  0.59305  1.0000
  Fe  Fe353     1.0  0.57149  0.29175  0.71178  1.0000
  S   S702      1.0  0.54551  0.29249  0.72635  1.0000
  S   S703      1.0  0.58336  0.27106  0.69802  1.0000
  Fe  Fe354     1.0  0.57449  0.32213  0.72229  1.0000
  S   S704      1.0  0.54812  0.32564  0.73735  1.0000
  S   S705      1.0  0.59663  0.33229  0.72202  1.0000
  Fe  Fe355     1.0  0.55391  0.29793  0.74622  1.0000
  S   S706      1.0  0.54467  0.28565  0.77261  1.0000
  S   S707      1.0  0.58042  0.29460  0.73265  1.0000
  S   S708      1.0  0.56737  0.31891  0.70010  1.0000
  Fe  Fe356     1.0  0.66077  0.39855  0.73353  1.0000
  S   S709      1.0  0.64215  0.41927  0.72218  1.0000
  S   S710      1.0  0.68397  0.38494  0.71891  1.0000
  Fe  Fe357     1.0  0.64003  0.39853  0.76808  1.0000
  S   S711      1.0  0.62007  0.41970  0.75925  1.0000
  S   S712      1.0  0.63522  0.38628  0.79510  1.0000
  Fe  Fe358     1.0  0.62309  0.40560  0.73969  1.0000
  S   S713      1.0  0.60090  0.40130  0.73304  1.0000
  Fe  Fe359     1.0  0.64126  0.43113  0.74287  1.0000
  S   S714      1.0  0.64186  0.38402  0.74949  1.0000
  S   S715      1.0  0.66106  0.41090  0.75325  1.0000
  H   H5549     1.0  0.50976  0.29218  0.64514  1.0000
  H   H5550     1.0  0.68454  0.23614  0.84094  1.0000
  H   H5551     1.0  0.58918  0.25402  0.64827  1.0000
  Fe  Fe360     1.0  0.71820  0.29236  0.77225  1.0000
  S   S716      1.0  0.71084  0.28305  0.79959  1.0000
  S   S717      1.0  0.71055  0.28301  0.75451  1.0000
  Fe  Fe361     1.0  0.70738  0.30969  0.80046  1.0000
  S   S718      1.0  0.68481  0.31935  0.81869  1.0000
  H   H5552     1.0  0.49488  0.25844  0.55347  1.0000
  H   H5553     1.0  0.73353  0.34517  0.69841  1.0000
  S   S719      1.0  0.71282  0.31916  0.77290  1.0000
  H   H5554     1.0  0.68961  0.28387  0.86091  1.0000
  H   H5555     1.0  0.65234  0.46548  0.78700  1.0000
  C   C3122     1.0  0.65104  0.25392  0.85209  1.0000
  Fe  Fe362     1.0  0.73741  0.28076  0.79977  1.0000
  H   H5556     1.0  0.73518  0.28980  0.69767  1.0000
  C   C3123     1.0  0.50462  0.24037  0.57381  1.0000
  H   H5557     1.0  0.55021  0.25935  0.56694  1.0000
  C   C3124     1.0  0.69126  0.27821  0.76420  1.0000
  C   C3125     1.0  0.68010  0.28731  0.77544  1.0000
  C   C3126     1.0  0.66491  0.28288  0.78366  1.0000
  C   C3127     1.0  0.66110  0.26917  0.78097  1.0000
  C   C3128     1.0  0.67209  0.26043  0.76937  1.0000
  C   C3129     1.0  0.68723  0.26488  0.76108  1.0000
  H   H5558     1.0  0.68315  0.29775  0.77777  1.0000
  H   H5559     1.0  0.65621  0.28993  0.79224  1.0000
  C   C3130     1.0  0.50414  0.31816  0.71044  1.0000
  H   H5560     1.0  0.69607  0.25767  0.75267  1.0000
  H   H5561     1.0  0.71899  0.43021  0.68419  1.0000
  C   C3131     1.0  0.65231  0.47084  0.77406  1.0000
  C   C3132     1.0  0.67991  0.24985  0.72606  1.0000
  H   H5562     1.0  0.56116  0.24314  0.66903  1.0000
  C   C3133     1.0  0.63872  0.31274  0.49340  1.0000
  H   H5563     1.0  0.63438  0.23291  0.64830  1.0000
  H   H5564     1.0  0.54195  0.26673  0.59441  1.0000
  C   C3134     1.0  0.65412  0.23804  0.86584  1.0000
  H   H5565     1.0  0.66278  0.25529  0.71019  1.0000
  H   H5566     1.0  0.56919  0.24438  0.72717  1.0000
  C   C3135     1.0  0.64918  0.46167  0.76440  1.0000
  S   S720      1.0  0.62758  0.23859  0.77068  1.0000
  H   H5567     1.0  0.64683  0.44936  0.76991  1.0000
  H   H5568     1.0  0.58239  0.24597  0.68205  1.0000
  C   C3136     1.0  0.64923  0.36767  0.80100  1.0000
  C   C3137     1.0  0.66270  0.36098  0.78950  1.0000
  C   C3138     1.0  0.67365  0.34601  0.79472  1.0000
  C   C3139     1.0  0.67123  0.33785  0.81144  1.0000
  C   C3140     1.0  0.65763  0.34450  0.82281  1.0000
  C   C3141     1.0  0.64669  0.35935  0.81762  1.0000
  H   H5569     1.0  0.66476  0.36740  0.77664  1.0000
  H   H5570     1.0  0.68402  0.34094  0.78584  1.0000
  H   H5571     1.0  0.65569  0.33829  0.83574  1.0000
  H   H5572     1.0  0.63637  0.36455  0.82656  1.0000
  C   C3142     1.0  0.55721  0.26628  0.77934  1.0000
  C   C3143     1.0  0.57294  0.26101  0.76984  1.0000
  C   C3144     1.0  0.58307  0.24579  0.77551  1.0000
  C   C3145     1.0  0.73606  0.24100  0.55289  1.0000
  H   H5573     1.0  0.51262  0.29469  0.60811  1.0000
  C   C3146     1.0  0.55143  0.25595  0.79435  1.0000
  H   H5574     1.0  0.57741  0.26866  0.75820  1.0000
  H   H5575     1.0  0.59515  0.24185  0.76805  1.0000
  H   H5576     1.0  0.50322  0.25017  0.58053  1.0000
  H   H5577     1.0  0.53922  0.25991  0.80172  1.0000
  C   C3147     1.0  0.59684  0.35117  0.72652  1.0000
  C   C3148     1.0  0.58325  0.36465  0.72642  1.0000
  C   C3149     1.0  0.58460  0.37989  0.72862  1.0000
  C   C3150     1.0  0.59941  0.38169  0.73123  1.0000
  C   C3151     1.0  0.61278  0.36801  0.73190  1.0000
  C   C3152     1.0  0.61156  0.35291  0.72937  1.0000
  H   H5578     1.0  0.57186  0.36350  0.72418  1.0000
  H   H5579     1.0  0.57415  0.39038  0.72812  1.0000
  H   H5580     1.0  0.62413  0.36917  0.73412  1.0000
  H   H5581     1.0  0.62210  0.34251  0.72955  1.0000
  C   C3153     1.0  0.69999  0.40932  0.66453  1.0000
  C   C3154     1.0  0.70822  0.39336  0.67110  1.0000
  C   C3155     1.0  0.70286  0.38579  0.68767  1.0000
  C   C3156     1.0  0.68969  0.39441  0.69796  1.0000
  C   C3157     1.0  0.68151  0.41043  0.69143  1.0000
  C   C3158     1.0  0.68648  0.41778  0.67467  1.0000
  H   H5582     1.0  0.71848  0.38665  0.66332  1.0000
  H   H5583     1.0  0.70901  0.37327  0.69249  1.0000
  H   H5584     1.0  0.67165  0.41736  0.69930  1.0000
  H   H5585     1.0  0.68015  0.43018  0.66966  1.0000
  C   C3159     1.0  0.72771  0.38088  0.52171  1.0000
  H   H5586     1.0  0.63131  0.24271  0.72233  1.0000
  S   S721      1.0  0.72546  0.32176  0.53526  1.0000
  H   H5587     1.0  0.71970  0.37568  0.58285  1.0000
  C   C3160     1.0  0.68221  0.27635  0.52615  1.0000
  C   C3161     1.0  0.67903  0.26763  0.54259  1.0000
  C   C3162     1.0  0.68726  0.26930  0.55385  1.0000
  C   C3163     1.0  0.69887  0.27942  0.54861  1.0000
  C   C3164     1.0  0.70223  0.28792  0.53212  1.0000
  C   C3165     1.0  0.69381  0.28647  0.52094  1.0000
  H   H5588     1.0  0.67005  0.25984  0.54667  1.0000
  H   H5589     1.0  0.68452  0.26293  0.56666  1.0000
  H   H5590     1.0  0.71118  0.29572  0.52802  1.0000
  H   H5591     1.0  0.66898  0.25026  0.76677  1.0000
  C   C3166     1.0  0.54563  0.26713  0.67153  1.0000
  C   C3167     1.0  0.54358  0.28137  0.67744  1.0000
  C   C3168     1.0  0.55515  0.28259  0.68553  1.0000
  C   C3169     1.0  0.56909  0.26973  0.68742  1.0000
  C   C3170     1.0  0.57141  0.25568  0.68109  1.0000
  C   C3171     1.0  0.55949  0.25418  0.67352  1.0000
  H   H5592     1.0  0.53284  0.29142  0.67603  1.0000
  H   H5593     1.0  0.55331  0.29361  0.69015  1.0000
  H   H5594     1.0  0.73459  0.26368  0.53384  1.0000
  H   H5595     1.0  0.71638  0.30145  0.48062  1.0000
  H   H5596     1.0  0.51232  0.26716  0.69912  1.0000
  H   H5597     1.0  0.67797  0.27717  0.60665  1.0000
  H   H5598     1.0  0.69824  0.36539  0.77378  1.0000
  H   H5599     1.0  0.65787  0.24096  0.87589  1.0000
  S   S722      1.0  0.64244  0.45854  0.73579  1.0000
  C   C3172     1.0  0.56147  0.24054  0.79990  1.0000
  H   H5600     1.0  0.50903  0.27607  0.63645  1.0000
  H   H5601     1.0  0.70205  0.40551  0.53451  1.0000
  S   S723      1.0  0.64294  0.26268  0.79266  1.0000
  H   H5602     1.0  0.49655  0.26019  0.72810  1.0000
  H   H5603     1.0  0.70368  0.26361  0.86260  1.0000
  H   H5604     1.0  0.64547  0.23499  0.59315  1.0000
  H   H5605     1.0  0.70071  0.26161  0.83549  1.0000
  H   H5606     1.0  0.60194  0.24294  0.73679  1.0000
  H   H5607     1.0  0.65284  0.27196  0.82168  1.0000
  H   H5608     1.0  0.62813  0.24059  0.87889  1.0000
  H   H5609     1.0  0.68183  0.24727  0.61935  1.0000
  C   C3173     1.0  0.50516  0.28977  0.63534  1.0000
  C   C3174     1.0  0.57906  0.25154  0.58254  1.0000
  Fe  Fe363     1.0  0.73378  0.40949  0.63550  1.0000
  C   C3175     1.0  0.73422  0.23435  0.79811  1.0000
  C   C3176     1.0  0.69712  0.46821  0.71528  1.0000
  C   C3177     1.0  0.70269  0.23792  0.51019  1.0000
  H   H5610     1.0  0.53715  0.29609  0.62762  1.0000
  H   H5611     1.0  0.49074  0.28601  0.73967  1.0000
  C   C3178     1.0  0.64732  0.30499  0.82015  1.0000
  H   H5612     1.0  0.65996  0.29476  0.84002  1.0000
  C   C3179     1.0  0.64545  0.30905  0.47609  1.0000
  C   C3180     1.0  0.70176  0.25937  0.60558  1.0000
  H   H5613     1.0  0.63821  0.30229  0.81482  1.0000
  C   C3181     1.0  0.49225  0.24694  0.56249  1.0000
  H   H5614     1.0  0.49418  0.33041  0.68875  1.0000
  H   H5615     1.0  0.68959  0.24405  0.71653  1.0000
  C   C3182     1.0  0.73587  0.39955  0.48532  1.0000
  H   H5616     1.0  0.71875  0.43219  0.70460  1.0000
  H   H5617     1.0  0.63609  0.43577  0.68755  1.0000
  C   C3183     1.0  0.66303  0.29755  0.47466  1.0000
  N   N178      1.0  0.63881  0.28319  0.72610  1.0000
  C   C3184     1.0  0.64994  0.26659  0.73145  1.0000
  C   C3185     1.0  0.62254  0.28478  0.73867  1.0000
  C   C3186     1.0  0.63495  0.28324  0.70995  1.0000
  C   C3187     1.0  0.64674  0.29763  0.72360  1.0000
  C   C3188     1.0  0.65895  0.29548  0.73482  1.0000
  C   C3189     1.0  0.66582  0.26164  0.71827  1.0000
  C   C3190     1.0  0.62313  0.29907  0.70241  1.0000
  C   C3191     1.0  0.62320  0.28487  0.75640  1.0000
  C   C3192     1.0  0.60645  0.28361  0.76828  1.0000
  C   C3193     1.0  0.66425  0.31165  0.73260  1.0000
  H   H5618     1.0  0.69625  0.24626  0.63110  1.0000
  C   C3194     1.0  0.62175  0.29838  0.68531  1.0000
  H   H5619     1.0  0.64301  0.25648  0.73494  1.0000
  H   H5620     1.0  0.65371  0.26591  0.74297  1.0000
  H   H5621     1.0  0.61389  0.29665  0.73479  1.0000
  H   H5622     1.0  0.61633  0.27466  0.73947  1.0000
  H   H5623     1.0  0.62943  0.27245  0.71146  1.0000
  H   H5624     1.0  0.64650  0.28173  0.70019  1.0000
  H   H5625     1.0  0.65396  0.30057  0.71064  1.0000
  H   H5626     1.0  0.63694  0.30909  0.72512  1.0000
  H   H5627     1.0  0.67041  0.28608  0.73157  1.0000
  H   H5628     1.0  0.65348  0.29144  0.74809  1.0000
  S   S724      1.0  0.59690  0.26046  0.55126  1.0000
  H   H5629     1.0  0.67056  0.27266  0.71031  1.0000
  H   H5630     1.0  0.62750  0.31046  0.70117  1.0000
  H   H5631     1.0  0.61041  0.30024  0.71014  1.0000
  H   H5632     1.0  0.63259  0.27437  0.76132  1.0000
  H   H5633     1.0  0.62597  0.29672  0.75652  1.0000
  H   H5634     1.0  0.59636  0.29369  0.76382  1.0000
  H   H5635     1.0  0.60348  0.27150  0.76948  1.0000
  H   H5636     1.0  0.60695  0.28453  0.78075  1.0000
  H   H5637     1.0  0.65324  0.32149  0.73592  1.0000
  H   H5638     1.0  0.67286  0.30976  0.74084  1.0000
  H   H5639     1.0  0.67077  0.31567  0.71960  1.0000
  S   S725      1.0  0.64461  0.24145  0.54237  1.0000
  C   C3195     1.0  0.72869  0.30401  0.47621  1.0000
  C   C3196     1.0  0.50349  0.23776  0.71826  1.0000
  H   H5640     1.0  0.61294  0.30969  0.68043  1.0000
  H   H5641     1.0  0.63400  0.29782  0.67653  1.0000
  H   H5642     1.0  0.61688  0.28738  0.68611  1.0000
  H   H5643     1.0  0.71855  0.36995  0.71721  1.0000
  S   S726      1.0  0.51810  0.33139  0.70608  1.0000
  C   C3197     1.0  0.73211  0.36931  0.71437  1.0000
  C   C3198     1.0  0.71301  0.28130  0.71119  1.0000
  H   H5644     1.0  0.72521  0.40586  0.72635  1.0000
  C   C3199     1.0  0.51883  0.26116  0.70948  1.0000
  H   H5645     1.0  0.73225  0.40455  0.52299  1.0000
  Fe  Fe364     1.0  0.64217  0.23809  0.78873  1.0000
  C   C3200     1.0  0.67566  0.26329  0.85158  1.0000
  H   H5646     1.0  0.67012  0.30099  0.48179  1.0000
  C   C3201     1.0  0.50306  0.30559  0.72479  1.0000
  C   C3202     1.0  0.72409  0.36282  0.49989  1.0000
  H   H5647     1.0  0.56460  0.24447  0.60697  1.0000
  H   H5648     1.0  0.73736  0.38542  0.59513  1.0000
  C   C3203     1.0  0.71356  0.37276  0.74954  1.0000
  H   H5649     1.0  0.57571  0.24331  0.74513  1.0000
  H   H5650     1.0  0.62900  0.23995  0.67540  1.0000
  C   C3204     1.0  0.55363  0.23416  0.75046  1.0000
  H   H5651     1.0  0.70196  0.25826  0.59303  1.0000
  C   C3205     1.0  0.53383  0.29224  0.61785  1.0000
  H   H5652     1.0  0.64320  0.25221  0.84456  1.0000
  H   H5653     1.0  0.53769  0.27853  0.61969  1.0000
  C   C3206     1.0  0.65204  0.29072  0.83434  1.0000
  H   H5654     1.0  0.49778  0.34183  0.75390  1.0000
  H   H5655     1.0  0.54591  0.25975  0.75346  1.0000
  H   H5656     1.0  0.52158  0.27107  0.71364  1.0000
  H   H5657     1.0  0.59966  0.25802  0.62685  1.0000
  H   H5658     1.0  0.71052  0.36350  0.74470  1.0000
  C   C3207     1.0  0.72456  0.35003  0.49038  1.0000
  H   H5659     1.0  0.70926  0.28100  0.84662  1.0000
  H   H5660     1.0  0.71494  0.27196  0.70374  1.0000
  H   H5661     1.0  0.64298  0.26376  0.85865  1.0000
  H   H5662     1.0  0.70441  0.38465  0.74728  1.0000
  H   H5663     1.0  0.57039  0.27479  0.63325  1.0000
  H   H5664     1.0  0.72850  0.25705  0.77994  1.0000
  C   C3208     1.0  0.71669  0.42416  0.69756  1.0000
  C   C3209     1.0  0.73659  0.30660  0.48732  1.0000
  H   H5665     1.0  0.57310  0.26457  0.58122  1.0000
  H   H5666     1.0  0.71619  0.25558  0.52125  1.0000
  N   N179      1.0  0.73568  0.38068  0.72290  1.0000
  H   H5667     1.0  0.71169  0.24642  0.78864  1.0000
  C   C3210     1.0  0.63271  0.24240  0.59263  1.0000
  H   H5668     1.0  0.73522  0.26743  0.73242  1.0000
  C   C3211     1.0  0.71131  0.39896  0.54226  1.0000
  H   H5669     1.0  0.72234  0.24492  0.55664  1.0000
  H   H5670     1.0  0.69591  0.28627  0.59873  1.0000
  H   H5671     1.0  0.53946  0.25621  0.73668  1.0000
  Fe  Fe365     1.0  0.63618  0.24725  0.49843  1.0000
  C   C3212     1.0  0.72961  0.28495  0.71074  1.0000
  H   H5672     1.0  0.59352  0.46011  0.77723  1.0000
  N   N180      1.0  0.60222  0.35512  0.78960  1.0000
  C   C3213     1.0  0.59416  0.34182  0.78889  1.0000
  C   C3214     1.0  0.60247  0.35446  0.80732  1.0000
  C   C3215     1.0  0.59165  0.37170  0.78310  1.0000
  C   C3216     1.0  0.61947  0.35396  0.77885  1.0000
  C   C3217     1.0  0.63215  0.33746  0.78286  1.0000
  C   C3218     1.0  0.59365  0.34063  0.77138  1.0000
  C   C3219     1.0  0.59640  0.38733  0.78461  1.0000
  C   C3220     1.0  0.60452  0.33716  0.81928  1.0000
  C   C3221     1.0  0.60757  0.33809  0.83563  1.0000
  C   C3222     1.0  0.64791  0.33652  0.76918  1.0000
  C   C3223     1.0  0.58422  0.32752  0.77250  1.0000
  C   C3224     1.0  0.58330  0.40298  0.78009  1.0000
  H   H5673     1.0  0.58119  0.34361  0.79640  1.0000
  H   H5674     1.0  0.60048  0.32928  0.79459  1.0000
  H   H5675     1.0  0.61240  0.36043  0.80756  1.0000
  H   H5676     1.0  0.59061  0.36188  0.81339  1.0000
  H   H5677     1.0  0.57837  0.37222  0.78950  1.0000
  H   H5678     1.0  0.59215  0.37346  0.76970  1.0000
  H   H5679     1.0  0.61898  0.35662  0.76558  1.0000
  H   H5680     1.0  0.62509  0.36378  0.77983  1.0000
  H   H5681     1.0  0.62712  0.32649  0.78417  1.0000
  H   H5682     1.0  0.63586  0.33668  0.79447  1.0000
  H   H5683     1.0  0.58731  0.35249  0.76444  1.0000
  H   H5684     1.0  0.60644  0.33699  0.76411  1.0000
  H   H5685     1.0  0.60840  0.38890  0.77601  1.0000
  H   H5686     1.0  0.59756  0.38664  0.79730  1.0000
  H   H5687     1.0  0.59298  0.33245  0.82218  1.0000
  H   H5688     1.0  0.61493  0.32796  0.81391  1.0000
  H   H5689     1.0  0.60853  0.32564  0.84409  1.0000
  H   H5690     1.0  0.61936  0.34210  0.83350  1.0000
  H   H5691     1.0  0.59719  0.34696  0.84171  1.0000
  H   H5692     1.0  0.64495  0.33704  0.75726  1.0000
  H   H5693     1.0  0.65387  0.34696  0.76760  1.0000
  H   H5694     1.0  0.65689  0.32469  0.77245  1.0000
  H   H5695     1.0  0.58977  0.31530  0.77961  1.0000
  H   H5696     1.0  0.57096  0.33121  0.77860  1.0000
  H   H5697     1.0  0.58479  0.32621  0.75986  1.0000
  H   H5698     1.0  0.58695  0.41398  0.78125  1.0000
  H   H5699     1.0  0.58217  0.40482  0.76714  1.0000
  H   H5700     1.0  0.57104  0.40213  0.78856  1.0000
  H   H5701     1.0  0.66718  0.27184  0.85951  1.0000
  S   S727      1.0  0.73749  0.30481  0.57047  1.0000
  H   H5702     1.0  0.70474  0.29288  0.70597  1.0000
  Fe  Fe366     1.0  0.53159  0.24266  0.65435  1.0000
  C   C3225     1.0  0.66918  0.23752  0.82437  1.0000
  H   H5703     1.0  0.52916  0.24933  0.75786  1.0000
  C   C3226     1.0  0.54131  0.25090  0.74951  1.0000
  H   H5704     1.0  0.71960  0.35426  0.77140  1.0000
  C   C3227     1.0  0.50801  0.25130  0.72381  1.0000
  H   H5705     1.0  0.64168  0.31657  0.82482  1.0000
  H   H5706     1.0  0.53485  0.28381  0.57861  1.0000
  H   H5707     1.0  0.72689  0.40016  0.69182  1.0000
  C   C3228     1.0  0.71127  0.36660  0.76829  1.0000
  C   C3229     1.0  0.51515  0.29801  0.61859  1.0000
  C   C3230     1.0  0.64844  0.46870  0.74783  1.0000
  C   C3231     1.0  0.53335  0.27121  0.58581  1.0000
  H   H5708     1.0  0.69630  0.29321  0.50821  1.0000
  H   H5709     1.0  0.70674  0.27657  0.72410  1.0000
  H   H5710     1.0  0.73701  0.38751  0.53997  1.0000
  H   H5711     1.0  0.49734  0.27324  0.61700  1.0000
  H   H5712     1.0  0.71393  0.37553  0.77388  1.0000
  H   H5713     1.0  0.61442  0.24659  0.65260  1.0000
  C   C3232     1.0  0.57745  0.23562  0.79062  1.0000
  H   H5714     1.0  0.67534  0.23987  0.73617  1.0000
  C   C3233     1.0  0.72536  0.24465  0.78422  1.0000
  H   H5715     1.0  0.72696  0.29503  0.71751  1.0000
  H   H5716     1.0  0.73556  0.37358  0.70070  1.0000
  H   H5717     1.0  0.54566  0.23705  0.59061  1.0000
  Fe  Fe367     1.0  0.62046  0.25088  0.53409  1.0000
  S   S728      1.0  0.49499  0.23786  0.61991  1.0000
  N   N181      1.0  0.64276  0.38848  0.67962  1.0000
  C   C3234     1.0  0.65537  0.38327  0.66480  1.0000
  C   C3235     1.0  0.62677  0.38356  0.68094  1.0000
  C   C3236     1.0  0.63922  0.40723  0.67634  1.0000
  C   C3237     1.0  0.64872  0.38144  0.69564  1.0000
  C   C3238     1.0  0.66055  0.36398  0.69747  1.0000
  C   C3239     1.0  0.67147  0.38996  0.66001  1.0000
  C   C3240     1.0  0.62469  0.41550  0.68884  1.0000
  C   C3241     1.0  0.62758  0.36482  0.68335  1.0000
  C   C3242     1.0  0.61110  0.36195  0.68238  1.0000
  C   C3243     1.0  0.66093  0.35591  0.71559  1.0000
  C   C3244     1.0  0.68521  0.38058  0.64819  1.0000
  C   C3245     1.0  0.62428  0.43396  0.68614  1.0000
  H   H5718     1.0  0.64978  0.38752  0.65369  1.0000
  H   H5719     1.0  0.65909  0.36961  0.66651  1.0000
  H   H5720     1.0  0.61720  0.38731  0.69175  1.0000
  H   H5721     1.0  0.62159  0.39029  0.66977  1.0000
  H   H5722     1.0  0.63650  0.41278  0.66379  1.0000
  H   H5723     1.0  0.65040  0.41143  0.67631  1.0000
  H   H5724     1.0  0.65552  0.38978  0.69770  1.0000
  H   H5725     1.0  0.63790  0.38117  0.70633  1.0000
  H   H5726     1.0  0.67339  0.36515  0.69080  1.0000
  H   H5727     1.0  0.65707  0.35527  0.69236  1.0000
  H   H5728     1.0  0.66905  0.40328  0.65368  1.0000
  H   H5729     1.0  0.67608  0.38887  0.67113  1.0000
  H   H5730     1.0  0.62582  0.40945  0.70174  1.0000
  H   H5731     1.0  0.61256  0.41460  0.68730  1.0000
  H   H5732     1.0  0.63731  0.35921  0.67377  1.0000
  H   H5733     1.0  0.62990  0.35813  0.69577  1.0000
  H   H5734     1.0  0.60069  0.36754  0.69154  1.0000
  H   H5735     1.0  0.60861  0.36746  0.66979  1.0000
  H   H5736     1.0  0.61160  0.34841  0.68517  1.0000
  H   H5737     1.0  0.67171  0.34524  0.71635  1.0000
  H   H5738     1.0  0.66212  0.36481  0.72215  1.0000
  H   H5739     1.0  0.64938  0.35141  0.72196  1.0000
  H   H5740     1.0  0.68898  0.36737  0.65435  1.0000
  H   H5741     1.0  0.68099  0.38134  0.63687  1.0000
  H   H5742     1.0  0.69625  0.38622  0.64440  1.0000
  H   H5743     1.0  0.62224  0.44063  0.67359  1.0000
  H   H5744     1.0  0.61397  0.43943  0.69547  1.0000
  H   H5745     1.0  0.62573  0.32001  0.49450  1.0000
  H   H5746     1.0  0.65850  0.30713  0.81029  1.0000
  H   H5747     1.0  0.71219  0.40756  0.54939  1.0000
  H   H5748     1.0  0.70354  0.42296  0.70162  1.0000
  S   S729      1.0  0.66155  0.23725  0.50398  1.0000
  H   H5749     1.0  0.63892  0.30104  0.50300  1.0000
  H   H5750     1.0  0.72395  0.36991  0.53094  1.0000
  H   H5751     1.0  0.49569  0.24449  0.70905  1.0000
  H   H5752     1.0  0.64636  0.32004  0.49574  1.0000
  C   C3246     1.0  0.69530  0.24492  0.61889  1.0000
  H   H5753     1.0  0.68751  0.46404  0.72616  1.0000
  H   H5754     1.0  0.73684  0.28245  0.83322  1.0000
  C   C3247     1.0  0.58973  0.25230  0.63584  1.0000
  C   C3248     1.0  0.57337  0.26209  0.63090  1.0000
  C   C3249     1.0  0.67772  0.24606  0.83235  1.0000
  H   H5755     1.0  0.71714  0.38654  0.51551  1.0000
  H   H5756     1.0  0.53078  0.25291  0.70500  1.0000
  H   H5757     1.0  0.52865  0.26496  0.56549  1.0000
  H   H5758     1.0  0.68780  0.28219  0.83285  1.0000
  S   S730      1.0  0.73349  0.30670  0.80304  1.0000
  C   C3250     1.0  0.73161  0.37496  0.74151  1.0000
  H   H5759     1.0  0.49544  0.28117  0.66968  1.0000
  H   H5760     1.0  0.72036  0.34042  0.71874  1.0000
  C   C3251     1.0  0.66120  0.27454  0.82806  1.0000
  C   C3252     1.0  0.69109  0.27065  0.84205  1.0000
  H   H5761     1.0  0.69004  0.27796  0.62062  1.0000
  H   H5762     1.0  0.67210  0.27740  0.81807  1.0000
  H   H5763     1.0  0.73037  0.30596  0.50018  1.0000
  C   C3253     1.0  0.55596  0.23727  0.54453  1.0000
  H   H5764     1.0  0.71529  0.36024  0.51200  1.0000
  H   H5765     1.0  0.71443  0.25964  0.60614  1.0000
  C   C3254     1.0  0.53724  0.25954  0.57405  1.0000
  H   H5766     1.0  0.64043  0.28904  0.84363  1.0000
  H   H5767     1.0  0.69480  0.46585  0.70415  1.0000
  C   C3255     1.0  0.73339  0.34029  0.71180  1.0000
  H   H5768     1.0  0.57440  0.26318  0.61752  1.0000
  H   H5769     1.0  0.56298  0.25595  0.63814  1.0000
  H   H5770     1.0  0.70950  0.46081  0.71734  1.0000
  H   H5771     1.0  0.71143  0.39679  0.72141  1.0000
  H   H5772     1.0  0.62403  0.24199  0.62479  1.0000
  C   C3256     1.0  0.60172  0.46881  0.76996  1.0000
  N   N182      1.0  0.66641  0.25946  0.84104  1.0000
  C   C3257     1.0  0.72464  0.39766  0.71857  1.0000
  H   H5773     1.0  0.68564  0.25684  0.73115  1.0000
  S   S731      1.0  0.72724  0.35245  0.56193  1.0000
  C   C3258     1.0  0.69883  0.27497  0.85386  1.0000
  Fe  Fe368     1.0  0.72834  0.29673  0.55261  1.0000
  H   H5774     1.0  0.61764  0.24883  0.70810  1.0000
  H   H5775     1.0  0.51079  0.30387  0.73337  1.0000
  Fe  Fe369     1.0  0.54150  0.31985  0.71620  1.0000
  H   H5776     1.0  0.68020  0.25183  0.86043  1.0000
  H   H5777     1.0  0.72915  0.24036  0.80880  1.0000
  H   H5778     1.0  0.66198  0.24683  0.81583  1.0000
  H   H5779     1.0  0.54081  0.29784  0.60560  1.0000
  H   H5780     1.0  0.73467  0.39188  0.47742  1.0000
  H   H5781     1.0  0.61468  0.46245  0.77090  1.0000
  H   H5782     1.0  0.63151  0.25485  0.59491  1.0000
  S   S732      1.0  0.53470  0.24244  0.62773  1.0000
  C   C3259     1.0  0.49151  0.29557  0.72844  1.0000
  C   C3260     1.0  0.69067  0.27618  0.60814  1.0000
  C   C3261     1.0  0.57411  0.24015  0.59707  1.0000
  H   H5783     1.0  0.68755  0.25118  0.82234  1.0000
  H   H5784     1.0  0.51203  0.31171  0.61671  1.0000
  H   H5785     1.0  0.71884  0.37521  0.49303  1.0000
  C   C3262     1.0  0.72406  0.24277  0.52265  1.0000
  H   H5786     1.0  0.70701  0.38811  0.55123  1.0000
  H   H5787     1.0  0.72934  0.23867  0.77343  1.0000
  C   C3263     1.0  0.72841  0.40710  0.70019  1.0000
  H   H5788     1.0  0.59785  0.48091  0.78982  1.0000
  C   C3264     1.0  0.53553  0.24179  0.58371  1.0000
  H   H5789     1.0  0.68278  0.26447  0.47763  1.0000
  H   H5790     1.0  0.72354  0.40406  0.49287  1.0000
  C   C3265     1.0  0.72833  0.39334  0.53148  1.0000
  H   H5791     1.0  0.67984  0.24240  0.59589  1.0000
  H   H5792     1.0  0.73352  0.35155  0.47826  1.0000
  H   H5793     1.0  0.60085  0.47172  0.75679  1.0000
  H   H5794     1.0  0.55202  0.25066  0.54456  1.0000
  C   C3266     1.0  0.49337  0.32073  0.69988  1.0000
  H   H5795     1.0  0.60741  0.24170  0.60424  1.0000
  H   H5796     1.0  0.52468  0.24721  0.55403  1.0000
  H   H5797     1.0  0.57590  0.24176  0.52304  1.0000
  H   H5798     1.0  0.72817  0.33733  0.49775  1.0000
  H   H5799     1.0  0.69468  0.23785  0.52274  1.0000
  H   H5800     1.0  0.52397  0.24259  0.59356  1.0000
  H   H5801     1.0  0.71206  0.35147  0.48814  1.0000
  C   C3267     1.0  0.57092  0.23608  0.73933  1.0000
  H   H5802     1.0  0.66104  0.28499  0.48151  1.0000
  C   C3268     1.0  0.62313  0.23836  0.71729  1.0000
  H   H5803     1.0  0.72769  0.23799  0.49768  1.0000
  H   H5804     1.0  0.63072  0.24412  0.58000  1.0000
  H   H5805     1.0  0.73579  0.24068  0.87434  1.0000
  H   H5806     1.0  0.51490  0.24595  0.73387  1.0000
  C   C3269     1.0  0.72103  0.23403  0.51058  1.0000
  H   H5807     1.0  0.54877  0.23454  0.53704  1.0000
  H   H5808     1.0  0.72726  0.23357  0.90454  1.0000
  H   H5809     1.0  0.71150  0.23373  0.95582  1.0000
  H   H5810     1.0  0.73152  0.23393  0.95860  1.0000
  H   H5811     1.0  0.73773  0.26707  0.50377  1.0000
  H   H5812     1.0  0.73380  0.23332  0.92980  1.0000
  C   C3270     1.0  0.52270  0.23595  0.56372  1.0000
  H   H5813     1.0  0.49277  0.23744  0.55572  1.0000
  H   H5814     1.0  0.58203  0.23667  0.54249  1.0000
  C   C3271     1.0  0.57426  0.23379  0.53571  1.0000
  H   H5815     1.0  0.72796  0.23421  0.60709  1.0000
  H   H5816     1.0  0.73906  0.23730  0.57797  1.0000
  C   C3272     1.0  0.59234  0.23358  0.63641  1.0000
  H   H5817     1.0  0.59556  0.23349  0.71365  1.0000
  C   C3273     1.0  0.62157  0.23378  0.65604  1.0000
  H   H5818     1.0  0.55703  0.23263  0.81158  1.0000
  H   H5819     1.0  0.69596  0.23304  0.56931  1.0000
  S   S733      1.0  0.50874  0.23222  0.66223  1.0000
  C   C3274     1.0  0.61978  0.23360  0.60532  1.0000
  H   H5820     1.0  0.71134  0.23237  0.58972  1.0000
  H   H5821     1.0  0.58823  0.23237  0.62574  1.0000
  H   H5822     1.0  0.68989  0.23219  0.80392  1.0000
  C   C3275     1.0  0.60946  0.23219  0.73140  1.0000
  S   S734      1.0  0.73918  0.62698  0.43781  1.0000
  Fe  Fe370     1.0  0.64309  0.53450  0.21321  1.0000
  S   S735      1.0  0.64422  0.51946  0.19510  1.0000
  S   S736      1.0  0.62024  0.54645  0.22969  1.0000
  Fe  Fe371     1.0  0.68056  0.52901  0.20728  1.0000
  S   S737      1.0  0.68501  0.51315  0.18915  1.0000
  S   S738      1.0  0.70320  0.53426  0.21110  1.0000
  Fe  Fe372     1.0  0.66451  0.53243  0.17929  1.0000
  S   S739      1.0  0.66980  0.54397  0.15230  1.0000
  Fe  Fe373     1.0  0.66464  0.50151  0.20671  1.0000
  C   C3276     1.0  0.58522  0.49085  0.20544  1.0000
  S   S740      1.0  0.66150  0.54914  0.19623  1.0000
  S   S741      1.0  0.66207  0.51568  0.22595  1.0000
  Fe  Fe374     1.0  0.51261  0.63601  0.20455  1.0000
  S   S742      1.0  0.52649  0.61798  0.22315  1.0000
  H   H5823     1.0  0.53334  0.50420  0.27270  1.0000
  Fe  Fe375     1.0  0.54124  0.65458  0.18884  1.0000
  S   S743      1.0  0.55718  0.63793  0.20609  1.0000
  S   S744      1.0  0.54930  0.67586  0.16888  1.0000
  Fe  Fe376     1.0  0.54861  0.61745  0.20158  1.0000
  S   S745      1.0  0.56668  0.59612  0.19138  1.0000
  Fe  Fe377     1.0  0.53375  0.64037  0.22578  1.0000
  S   S746      1.0  0.52956  0.64846  0.24977  1.0000
  S   S747      1.0  0.53403  0.63410  0.18289  1.0000
  S   S748      1.0  0.51842  0.65829  0.20866  1.0000
  S   S749      1.0  0.69497  0.58141  0.25872  1.0000
  H   H5824     1.0  0.49855  0.70563  0.27307  1.0000
  N   N183      1.0  0.72055  0.70781  0.09505  1.0000
  H   H5825     1.0  0.53610  0.51300  0.25081  1.0000
  C   C3277     1.0  0.73053  0.67012  0.18040  1.0000
  S   S750      1.0  0.73274  0.64006  0.12216  1.0000
  H   H5826     1.0  0.61232  0.48612  0.26961  1.0000
  C   C3278     1.0  0.69550  0.71559  0.16840  1.0000
  S   S751      1.0  0.57862  0.68761  0.25805  1.0000
  H   H5827     1.0  0.64743  0.48354  0.19174  1.0000
  C   C3279     1.0  0.53269  0.70749  0.20829  1.0000
  Fe  Fe378     1.0  0.54179  0.71566  0.30437  1.0000
  S   S752      1.0  0.71731  0.51453  0.31350  1.0000
  H   H5828     1.0  0.50789  0.69179  0.21101  1.0000
  S   S753      1.0  0.65670  0.69923  0.40006  1.0000
  C   C3280     1.0  0.58760  0.48446  0.18984  1.0000
  C   C3281     1.0  0.71913  0.66357  0.17660  1.0000
  C   C3282     1.0  0.69472  0.64884  0.09142  1.0000
  C   C3283     1.0  0.68626  0.65484  0.07849  1.0000
  C   C3284     1.0  0.67342  0.66909  0.07856  1.0000
  C   C3285     1.0  0.66909  0.67746  0.09149  1.0000
  C   C3286     1.0  0.67733  0.67120  0.10459  1.0000
  C   C3287     1.0  0.69009  0.65686  0.10460  1.0000
  H   H5829     1.0  0.68986  0.64873  0.06822  1.0000
  H   H5830     1.0  0.66712  0.67388  0.06838  1.0000
  Fe  Fe379     1.0  0.64836  0.72679  0.39273  1.0000
  C   C3288     1.0  0.59990  0.72652  0.32845  1.0000
  H   H5831     1.0  0.70989  0.62719  0.22819  1.0000
  C   C3289     1.0  0.65174  0.69292  0.20193  1.0000
  S   S754      1.0  0.70962  0.63988  0.16795  1.0000
  C   C3290     1.0  0.71131  0.68382  0.37519  1.0000
  C   C3291     1.0  0.70200  0.67184  0.38391  1.0000
  C   C3292     1.0  0.68529  0.67660  0.39165  1.0000
  C   C3293     1.0  0.67769  0.69341  0.39044  1.0000
  C   C3294     1.0  0.68685  0.70544  0.38130  1.0000
  C   C3295     1.0  0.70367  0.70066  0.37388  1.0000
  H   H5832     1.0  0.70749  0.65891  0.38440  1.0000
  H   H5833     1.0  0.67823  0.66724  0.39848  1.0000
  H   H5834     1.0  0.68108  0.71845  0.37996  1.0000
  H   H5835     1.0  0.71072  0.71003  0.36711  1.0000
  Fe  Fe380     1.0  0.72242  0.62637  0.14748  1.0000
  H   H5836     1.0  0.73381  0.62226  0.25537  1.0000
  C   C3296     1.0  0.71771  0.55960  0.14764  1.0000
  C   C3297     1.0  0.70404  0.69150  0.32555  1.0000
  C   C3298     1.0  0.54262  0.66047  0.25124  1.0000
  C   C3299     1.0  0.55705  0.66260  0.23914  1.0000
  C   C3300     1.0  0.56781  0.67126  0.24119  1.0000
  C   C3301     1.0  0.56416  0.67800  0.25523  1.0000
  C   C3302     1.0  0.54939  0.67648  0.26698  1.0000
  C   C3303     1.0  0.53871  0.66766  0.26502  1.0000
  H   H5837     1.0  0.56012  0.65725  0.22842  1.0000
  H   H5838     1.0  0.57905  0.67258  0.23193  1.0000
  H   H5839     1.0  0.54644  0.68164  0.27784  1.0000
  H   H5840     1.0  0.52754  0.66614  0.27439  1.0000
  C   C3304     1.0  0.56725  0.68136  0.16981  1.0000
  C   C3305     1.0  0.57406  0.67520  0.18388  1.0000
  C   C3306     1.0  0.58890  0.67900  0.18398  1.0000
  C   C3307     1.0  0.58982  0.69575  0.15623  1.0000
  C   C3308     1.0  0.57505  0.69182  0.15608  1.0000
  H   H5841     1.0  0.56782  0.66767  0.19475  1.0000
  H   H5842     1.0  0.67036  0.57074  0.24922  1.0000
  H   H5843     1.0  0.56975  0.69675  0.14522  1.0000
  C   C3309     1.0  0.70018  0.54835  0.22356  1.0000
  C   C3310     1.0  0.68432  0.55516  0.23188  1.0000
  C   C3311     1.0  0.68253  0.56586  0.24236  1.0000
  C   C3312     1.0  0.69661  0.56959  0.24450  1.0000
  C   C3313     1.0  0.71234  0.56309  0.23583  1.0000
  C   C3314     1.0  0.71410  0.55256  0.22538  1.0000
  H   H5844     1.0  0.67353  0.55195  0.23049  1.0000
  C   C3315     1.0  0.72388  0.64774  0.17313  1.0000
  C   C3316     1.0  0.62023  0.50044  0.23193  1.0000
  Fe  Fe381     1.0  0.57773  0.71543  0.30425  1.0000
  H   H5845     1.0  0.51463  0.71429  0.22960  1.0000
  H   H5846     1.0  0.65131  0.72078  0.46287  1.0000
  H   H5847     1.0  0.49243  0.65783  0.26790  1.0000
  H   H5848     1.0  0.59213  0.72559  0.41235  1.0000
  H   H5849     1.0  0.73316  0.67245  0.44923  1.0000
  S   S755      1.0  0.72772  0.54164  0.27025  1.0000
  C   C3317     1.0  0.73199  0.50512  0.23031  1.0000
  H   H5850     1.0  0.70784  0.60086  0.07284  1.0000
  Fe  Fe382     1.0  0.73821  0.56926  0.29350  1.0000
  C   C3318     1.0  0.68826  0.55025  0.14967  1.0000
  C   C3319     1.0  0.70362  0.53958  0.14553  1.0000
  C   C3320     1.0  0.70234  0.57024  0.15174  1.0000
  C   C3321     1.0  0.68763  0.56549  0.15297  1.0000
  H   H5851     1.0  0.70410  0.52760  0.14336  1.0000
  H   H5852     1.0  0.70171  0.58190  0.15448  1.0000
  H   H5853     1.0  0.67579  0.57354  0.15665  1.0000
  C   C3322     1.0  0.60545  0.56043  0.21905  1.0000
  C   C3323     1.0  0.59353  0.57257  0.22658  1.0000
  C   C3324     1.0  0.58158  0.58375  0.21819  1.0000
  C   C3325     1.0  0.58144  0.58261  0.20234  1.0000
  C   C3326     1.0  0.59338  0.57050  0.19483  1.0000
  C   C3327     1.0  0.60540  0.55948  0.20313  1.0000
  H   H5854     1.0  0.59353  0.57332  0.23892  1.0000
  H   H5855     1.0  0.57239  0.59307  0.22403  1.0000
  H   H5856     1.0  0.59329  0.56959  0.18258  1.0000
  H   H5857     1.0  0.61453  0.55013  0.19727  1.0000
  H   H5858     1.0  0.57297  0.49954  0.20684  1.0000
  H   H5859     1.0  0.58923  0.50477  0.22881  1.0000
  C   C3328     1.0  0.72031  0.49797  0.30379  1.0000
  H   H5860     1.0  0.72915  0.63238  0.47073  1.0000
  C   C3329     1.0  0.53835  0.50128  0.26023  1.0000
  C   C3330     1.0  0.64393  0.48518  0.27243  1.0000
  C   C3331     1.0  0.70693  0.68302  0.45795  1.0000
  H   H5861     1.0  0.69653  0.65218  0.11468  1.0000
  H   H5862     1.0  0.66127  0.67648  0.18448  1.0000
  H   H5863     1.0  0.72264  0.69727  0.33402  1.0000
  H   H5864     1.0  0.70676  0.50528  0.26986  1.0000
  H   H5865     1.0  0.58953  0.49566  0.24984  1.0000
  Fe  Fe383     1.0  0.64820  0.70833  0.11196  1.0000
  N   N184      1.0  0.71349  0.71951  0.31695  1.0000
  C   C3332     1.0  0.61533  0.72574  0.33164  1.0000
  C   C3333     1.0  0.70851  0.61941  0.26064  1.0000
  H   H5866     1.0  0.72635  0.54762  0.21878  1.0000
  H   H5867     1.0  0.70552  0.66157  0.24758  1.0000
  H   H5868     1.0  0.70169  0.61699  0.04608  1.0000
  C   C3334     1.0  0.65675  0.51240  0.27321  1.0000
  C   C3335     1.0  0.70704  0.61167  0.27910  1.0000
  H   H5869     1.0  0.73868  0.70646  0.30842  1.0000
  H   H5870     1.0  0.67443  0.63127  0.12584  1.0000
  Fe  Fe384     1.0  0.56987  0.70332  0.27735  1.0000
  H   H5871     1.0  0.71313  0.72641  0.10992  1.0000
  H   H5872     1.0  0.49914  0.67504  0.23772  1.0000
  H   H5873     1.0  0.49989  0.68802  0.25006  1.0000
  H   H5874     1.0  0.58004  0.71118  0.19359  1.0000
  H   H5875     1.0  0.60923  0.71909  0.22973  1.0000
  S   S756      1.0  0.54615  0.72230  0.27677  1.0000
  H   H5876     1.0  0.67950  0.72200  0.33304  1.0000
  H   H5877     1.0  0.71224  0.60913  0.25400  1.0000
  H   H5878     1.0  0.69600  0.62651  0.25888  1.0000
  C   C3336     1.0  0.60353  0.70218  0.21327  1.0000
  H   H5879     1.0  0.70384  0.71098  0.19101  1.0000
  S   S757      1.0  0.58464  0.72164  0.27637  1.0000
  H   H5880     1.0  0.72258  0.63905  0.21227  1.0000
  C   C3337     1.0  0.70218  0.67649  0.33988  1.0000
  C   C3338     1.0  0.58559  0.72772  0.40224  1.0000
  C   C3339     1.0  0.69333  0.60881  0.05435  1.0000
  H   H5881     1.0  0.69654  0.72241  0.10445  1.0000
  C   C3340     1.0  0.70463  0.67852  0.13675  1.0000
  H   H5882     1.0  0.69846  0.60302  0.28310  1.0000
  H   H5883     1.0  0.71932  0.60455  0.28168  1.0000
  H   H5884     1.0  0.70207  0.62140  0.28650  1.0000
  H   H5885     1.0  0.63641  0.49286  0.28149  1.0000
  C   C3341     1.0  0.55693  0.49357  0.25812  1.0000
  C   C3342     1.0  0.56436  0.48952  0.24067  1.0000
  C   C3343     1.0  0.73371  0.72856  0.28924  1.0000
  S   S758      1.0  0.51555  0.71480  0.31927  1.0000
  H   H5886     1.0  0.70093  0.50760  0.25058  1.0000
  N   N185      1.0  0.67006  0.61448  0.19885  1.0000
  C   C3344     1.0  0.66000  0.60346  0.21236  1.0000
  C   C3345     1.0  0.67713  0.62367  0.20691  1.0000
  C   C3346     1.0  0.65875  0.62630  0.18798  1.0000
  C   C3347     1.0  0.68416  0.60449  0.18829  1.0000
  C   C3348     1.0  0.69709  0.59172  0.19751  1.0000
  C   C3349     1.0  0.65516  0.58993  0.20700  1.0000
  C   C3350     1.0  0.66642  0.63986  0.17432  1.0000
  C   C3351     1.0  0.66427  0.63675  0.21594  1.0000
  C   C3352     1.0  0.67262  0.64441  0.22456  1.0000
  C   C3353     1.0  0.70844  0.57972  0.18683  1.0000
  C   C3354     1.0  0.64190  0.58234  0.22053  1.0000
  C   C3355     1.0  0.65321  0.65251  0.16589  1.0000
  H   H5887     1.0  0.64827  0.61110  0.21827  1.0000
  H   H5888     1.0  0.66657  0.59702  0.22265  1.0000
  H   H5889     1.0  0.68393  0.61474  0.21622  1.0000
  H   H5890     1.0  0.68672  0.62988  0.19774  1.0000
  H   H5891     1.0  0.64721  0.63253  0.19562  1.0000
  H   H5892     1.0  0.65443  0.61937  0.18142  1.0000
  H   H5893     1.0  0.67935  0.59806  0.18161  1.0000
  H   H5894     1.0  0.69138  0.61278  0.17838  1.0000
  H   H5895     1.0  0.69107  0.58431  0.20913  1.0000
  H   H5896     1.0  0.70499  0.59822  0.20062  1.0000
  H   H5897     1.0  0.65019  0.59498  0.19565  1.0000
  H   H5898     1.0  0.66620  0.57980  0.20456  1.0000
  H   H5899     1.0  0.67598  0.63423  0.16460  1.0000
  H   H5900     1.0  0.67228  0.64683  0.17934  1.0000
  H   H5901     1.0  0.65814  0.64701  0.20709  1.0000
  H   H5902     1.0  0.65461  0.63106  0.22551  1.0000
  H   H5903     1.0  0.67839  0.63470  0.23411  1.0000
  H   H5904     1.0  0.68222  0.65052  0.21536  1.0000
  H   H5905     1.0  0.66324  0.65387  0.23076  1.0000
  H   H5906     1.0  0.71809  0.57125  0.19331  1.0000
  H   H5907     1.0  0.70121  0.57192  0.18463  1.0000
  H   H5908     1.0  0.71473  0.58655  0.17484  1.0000
  H   H5909     1.0  0.64657  0.57625  0.23203  1.0000
  H   H5910     1.0  0.63043  0.59194  0.22327  1.0000
  H   H5911     1.0  0.63858  0.57285  0.21629  1.0000
  H   H5912     1.0  0.64697  0.64630  0.16044  1.0000
  H   H5913     1.0  0.64378  0.65936  0.17484  1.0000
  H   H5914     1.0  0.65918  0.66163  0.15579  1.0000
  H   H5915     1.0  0.73672  0.55631  0.09566  1.0000
  H   H5916     1.0  0.72322  0.56603  0.23735  1.0000
  H   H5917     1.0  0.72785  0.48695  0.25383  1.0000
  H   H5918     1.0  0.67416  0.67755  0.11454  1.0000
  H   H5919     1.0  0.52911  0.71949  0.19970  1.0000
  H   H5920     1.0  0.72255  0.50197  0.22574  1.0000
  H   H5921     1.0  0.52788  0.72638  0.24961  1.0000
  Fe  Fe385     1.0  0.71573  0.56800  0.27201  1.0000
  C   C3356     1.0  0.72756  0.50041  0.24943  1.0000
  H   H5922     1.0  0.67426  0.49968  0.25550  1.0000
  H   H5923     1.0  0.66152  0.59935  0.13333  1.0000
  H   H5924     1.0  0.65345  0.63050  0.12634  1.0000
  H   H5925     1.0  0.69681  0.69172  0.45220  1.0000
  Fe  Fe386     1.0  0.66105  0.72089  0.13451  1.0000
  H   H5926     1.0  0.66517  0.69095  0.34256  1.0000
  C   C3357     1.0  0.72100  0.69454  0.11076  1.0000
  H   H5927     1.0  0.72442  0.70628  0.29714  1.0000
  C   C3358     1.0  0.70490  0.68787  0.11881  1.0000
  H   H5928     1.0  0.62618  0.71702  0.32684  1.0000
  H   H5929     1.0  0.72384  0.69926  0.12026  1.0000
  S   S759      1.0  0.73224  0.67798  0.36532  1.0000
  H   H5930     1.0  0.59578  0.70372  0.14554  1.0000
  S   S760      1.0  0.71288  0.56337  0.29948  1.0000
  H   H5931     1.0  0.65235  0.71075  0.34584  1.0000
  H   H5932     1.0  0.73365  0.71434  0.34037  1.0000
  H   H5933     1.0  0.63141  0.70777  0.19110  1.0000
  H   H5934     1.0  0.69787  0.49031  0.31851  1.0000
  Fe  Fe387     1.0  0.72236  0.62384  0.11310  1.0000
  H   H5935     1.0  0.71090  0.70264  0.46628  1.0000
  H   H5936     1.0  0.70676  0.67094  0.17602  1.0000
  H   H5937     1.0  0.68043  0.61483  0.05289  1.0000
  C   C3359     1.0  0.71342  0.70323  0.08318  1.0000
  S   S761      1.0  0.71121  0.63147  0.09077  1.0000
  H   H5938     1.0  0.66173  0.62245  0.14486  1.0000
  H   H5939     1.0  0.72984  0.51882  0.22702  1.0000
  C   C3360     1.0  0.68250  0.72333  0.16017  1.0000
  H   H5940     1.0  0.73480  0.57848  0.09132  1.0000
  C   C3361     1.0  0.50099  0.71407  0.30859  1.0000
  C   C3362     1.0  0.65686  0.70806  0.46901  1.0000
  C   C3363     1.0  0.61162  0.48658  0.23332  1.0000
  H   H5941     1.0  0.67869  0.67667  0.22907  1.0000
  H   H5942     1.0  0.72688  0.68250  0.18281  1.0000
  H   H5943     1.0  0.66273  0.69690  0.36176  1.0000
  H   H5944     1.0  0.63148  0.68641  0.19657  1.0000
  S   S762      1.0  0.65395  0.69607  0.09050  1.0000
  H   H5945     1.0  0.51050  0.61819  0.15460  1.0000
  C   C3364     1.0  0.71834  0.54420  0.14464  1.0000
  S   S763      1.0  0.56492  0.69526  0.30516  1.0000
  C   C3365     1.0  0.71713  0.73164  0.32454  1.0000
  H   H5946     1.0  0.58757  0.49499  0.17891  1.0000
  H   H5947     1.0  0.69711  0.59674  0.05049  1.0000
  H   H5948     1.0  0.72065  0.67089  0.06299  1.0000
  C   C3366     1.0  0.49437  0.70923  0.28489  1.0000
  H   H5949     1.0  0.70121  0.68315  0.07187  1.0000
  H   H5950     1.0  0.57114  0.71985  0.21184  1.0000
  H   H5951     1.0  0.70355  0.67078  0.46242  1.0000
  C   C3367     1.0  0.71079  0.70420  0.33021  1.0000
  H   H5952     1.0  0.65474  0.70424  0.20311  1.0000
  C   C3368     1.0  0.62226  0.68356  0.23058  1.0000
  C   C3369     1.0  0.66312  0.68821  0.18603  1.0000
  H   H5953     1.0  0.69632  0.71998  0.30244  1.0000
  H   H5954     1.0  0.67629  0.68646  0.18655  1.0000
  H   H5955     1.0  0.59395  0.70111  0.22505  1.0000
  C   C3370     1.0  0.62053  0.66744  0.22700  1.0000
  H   H5956     1.0  0.64232  0.49316  0.26009  1.0000
  H   H5957     1.0  0.70230  0.70766  0.34165  1.0000
  H   H5958     1.0  0.67966  0.49386  0.27493  1.0000
  H   H5959     1.0  0.69331  0.67331  0.14187  1.0000
  C   C3371     1.0  0.62131  0.65318  0.24221  1.0000
  H   H5960     1.0  0.72402  0.67618  0.08796  1.0000
  H   H5961     1.0  0.61279  0.68596  0.24198  1.0000
  H   H5962     1.0  0.63438  0.68060  0.23412  1.0000
  Fe  Fe388     1.0  0.62898  0.70837  0.14729  1.0000
  C   C3372     1.0  0.62160  0.71374  0.22252  1.0000
  C   C3373     1.0  0.63359  0.71075  0.23416  1.0000
  H   H5963     1.0  0.64534  0.57004  0.13582  1.0000
  H   H5964     1.0  0.61594  0.48259  0.22140  1.0000
  C   C3374     1.0  0.70565  0.66849  0.22135  1.0000
  H   H5965     1.0  0.65475  0.68259  0.21237  1.0000
  H   H5966     1.0  0.62860  0.70364  0.24663  1.0000
  H   H5967     1.0  0.60849  0.66901  0.22377  1.0000
  H   H5968     1.0  0.63067  0.66363  0.21669  1.0000
  H   H5969     1.0  0.65696  0.53772  0.27294  1.0000
  N   N186      1.0  0.62057  0.69892  0.21688  1.0000
  C   C3375     1.0  0.50612  0.70871  0.29368  1.0000
  C   C3376     1.0  0.73644  0.61588  0.22336  1.0000
  S   S764      1.0  0.68490  0.72166  0.13981  1.0000
  H   H5970     1.0  0.62480  0.72376  0.21157  1.0000
  C   C3377     1.0  0.59256  0.49266  0.23745  1.0000
  H   H5971     1.0  0.53156  0.49252  0.25904  1.0000
  H   H5972     1.0  0.69537  0.65013  0.24104  1.0000
  H   H5973     1.0  0.70447  0.68699  0.14451  1.0000
  H   H5974     1.0  0.62027  0.64173  0.23930  1.0000
  H   H5975     1.0  0.63320  0.65072  0.24613  1.0000
  H   H5976     1.0  0.61081  0.65623  0.25263  1.0000
  C   C3378     1.0  0.51813  0.70420  0.22277  1.0000
  S   S765      1.0  0.62159  0.71852  0.12282  1.0000
  H   H5977     1.0  0.49281  0.64286  0.24831  1.0000
  H   H5978     1.0  0.70017  0.70252  0.08849  1.0000
  H   H5979     1.0  0.62940  0.72207  0.28775  1.0000
  S   S766      1.0  0.65505  0.69656  0.13650  1.0000
  S   S767      1.0  0.61594  0.69291  0.17031  1.0000
  C   C3379     1.0  0.71438  0.68326  0.06588  1.0000
  C   C3380     1.0  0.72296  0.68696  0.07737  1.0000
  H   H5980     1.0  0.70673  0.55931  0.10662  1.0000
  C   C3381     1.0  0.59688  0.68918  0.17010  1.0000
  H   H5981     1.0  0.65396  0.58321  0.09816  1.0000
  H   H5982     1.0  0.60597  0.72092  0.18969  1.0000
  H   H5983     1.0  0.59417  0.67400  0.19485  1.0000
  H   H5984     1.0  0.51918  0.70433  0.28881  1.0000
  C   C3382     1.0  0.58016  0.72093  0.19972  1.0000
  H   H5985     1.0  0.65214  0.55725  0.12063  1.0000
  H   H5986     1.0  0.69063  0.68950  0.23220  1.0000
  H   H5987     1.0  0.60286  0.69272  0.20703  1.0000
  H   H5988     1.0  0.70415  0.67914  0.11184  1.0000
  H   H5989     1.0  0.49529  0.60608  0.19720  1.0000
  H   H5990     1.0  0.72049  0.67656  0.43444  1.0000
  H   H5991     1.0  0.73053  0.61147  0.20205  1.0000
  H   H5992     1.0  0.69116  0.61869  0.07530  1.0000
  C   C3383     1.0  0.66896  0.49625  0.26901  1.0000
  H   H5993     1.0  0.49903  0.62966  0.17034  1.0000
  S   S768      1.0  0.59847  0.71238  0.31750  1.0000
  H   H5994     1.0  0.70958  0.52324  0.25353  1.0000
  H   H5995     1.0  0.67306  0.52873  0.25748  1.0000
  C   C3384     1.0  0.72149  0.63052  0.25424  1.0000
  H   H5996     1.0  0.66061  0.69819  0.17507  1.0000
  C   C3385     1.0  0.72778  0.71432  0.30328  1.0000
  C   C3386     1.0  0.63327  0.69654  0.20116  1.0000
  S   S769      1.0  0.73619  0.56554  0.14592  1.0000
  H   H5997     1.0  0.56218  0.50164  0.23179  1.0000
  C   C3387     1.0  0.71011  0.50971  0.25622  1.0000
  C   C3388     1.0  0.69828  0.72779  0.30982  1.0000
  H   H5998     1.0  0.54328  0.70800  0.21305  1.0000
  C   C3389     1.0  0.67898  0.72596  0.19275  1.0000
  H   H5999     1.0  0.68229  0.60058  0.13231  1.0000
  H   H6000     1.0  0.69167  0.69711  0.32254  1.0000
  C   C3390     1.0  0.69370  0.71681  0.18474  1.0000
  H   H6001     1.0  0.59695  0.72964  0.20776  1.0000
  S   S770      1.0  0.70964  0.61222  0.13839  1.0000
  N   N187      1.0  0.61338  0.69130  0.38111  1.0000
  C   C3391     1.0  0.60353  0.70092  0.39428  1.0000
  C   C3392     1.0  0.61935  0.67322  0.38888  1.0000
  C   C3393     1.0  0.62854  0.69848  0.37245  1.0000
  C   C3394     1.0  0.60372  0.69299  0.36829  1.0000
  C   C3395     1.0  0.58667  0.68810  0.37469  1.0000
  C   C3396     1.0  0.59697  0.71978  0.38809  1.0000
  C   C3397     1.0  0.64134  0.68947  0.35929  1.0000
  C   C3398     1.0  0.60788  0.66540  0.40481  1.0000
  C   C3399     1.0  0.61413  0.64660  0.40952  1.0000
  C   C3400     1.0  0.57732  0.69277  0.36073  1.0000
  C   C3401     1.0  0.70676  0.65512  0.23758  1.0000
  C   C3402     1.0  0.65630  0.69757  0.35195  1.0000
  H   H6002     1.0  0.61127  0.69957  0.40327  1.0000
  H   H6003     1.0  0.59257  0.69581  0.40173  1.0000
  H   H6004     1.0  0.62222  0.66539  0.37964  1.0000
  H   H6005     1.0  0.63131  0.67141  0.39263  1.0000
  H   H6006     1.0  0.63520  0.69877  0.38171  1.0000
  H   H6007     1.0  0.62494  0.71156  0.36603  1.0000
  H   H6008     1.0  0.60181  0.70590  0.36081  1.0000
  H   H6009     1.0  0.61095  0.68521  0.35919  1.0000
  H   H6010     1.0  0.57864  0.69446  0.38462  1.0000
  H   H6011     1.0  0.58844  0.67447  0.37929  1.0000
  H   H6012     1.0  0.60741  0.72625  0.38291  1.0000
  H   H6013     1.0  0.58974  0.72220  0.37850  1.0000
  H   H6014     1.0  0.63578  0.69013  0.34888  1.0000
  H   H6015     1.0  0.64605  0.67624  0.36473  1.0000
  H   H6016     1.0  0.60776  0.67060  0.41533  1.0000
  H   H6017     1.0  0.59493  0.66785  0.40346  1.0000
  H   H6018     1.0  0.60599  0.64141  0.42119  1.0000
  H   H6019     1.0  0.61393  0.64065  0.39966  1.0000
  H   H6020     1.0  0.62699  0.64356  0.41149  1.0000
  H   H6021     1.0  0.56535  0.68870  0.36540  1.0000
  H   H6022     1.0  0.57462  0.70644  0.35596  1.0000
  H   H6023     1.0  0.58473  0.68669  0.35034  1.0000
  H   H6024     1.0  0.64616  0.70374  0.22957  1.0000
  C   C3403     1.0  0.72186  0.63122  0.22500  1.0000
  C   C3404     1.0  0.59759  0.71928  0.20211  1.0000
  H   H6025     1.0  0.67469  0.52254  0.27895  1.0000
  C   C3405     1.0  0.70947  0.68963  0.47197  1.0000
  H   H6026     1.0  0.64773  0.51702  0.26500  1.0000
  H   H6027     1.0  0.64836  0.59506  0.11391  1.0000
  Fe  Fe389     1.0  0.73354  0.59312  0.13812  1.0000
  H   H6028     1.0  0.61667  0.50486  0.24364  1.0000
  H   H6029     1.0  0.71332  0.71309  0.07168  1.0000
  H   H6030     1.0  0.50064  0.71344  0.20627  1.0000
  H   H6031     1.0  0.69710  0.66767  0.33641  1.0000
  C   C3406     1.0  0.50325  0.70278  0.21669  1.0000
  H   H6032     1.0  0.63390  0.49577  0.22907  1.0000
  H   H6033     1.0  0.50264  0.64026  0.14882  1.0000
  H   H6034     1.0  0.72920  0.67127  0.23971  1.0000
  C   C3407     1.0  0.49996  0.62861  0.15753  1.0000
  H   H6035     1.0  0.70695  0.70862  0.16219  1.0000
  H   H6036     1.0  0.71496  0.69278  0.05412  1.0000
  H   H6037     1.0  0.71441  0.66990  0.34296  1.0000
  H   H6038     1.0  0.64966  0.51046  0.28618  1.0000
  H   H6039     1.0  0.72604  0.69357  0.43859  1.0000
  H   H6040     1.0  0.71893  0.63846  0.26332  1.0000
  C   C3408     1.0  0.71127  0.57053  0.09885  1.0000
  H   H6041     1.0  0.73130  0.68361  0.10866  1.0000
  Fe  Fe390     1.0  0.72674  0.53725  0.29727  1.0000
  H   H6042     1.0  0.66087  0.70005  0.45983  1.0000
  H   H6043     1.0  0.53689  0.69733  0.20138  1.0000
  H   H6044     1.0  0.64449  0.72481  0.24404  1.0000
  H   H6045     1.0  0.73627  0.52095  0.17631  1.0000
  S   S771      1.0  0.73116  0.63228  0.39378  1.0000
  H   H6046     1.0  0.59499  0.49789  0.20329  1.0000
  C   C3409     1.0  0.70883  0.48766  0.30896  1.0000
  H   H6047     1.0  0.57423  0.72256  0.40722  1.0000
  C   C3410     1.0  0.66599  0.52614  0.27048  1.0000
  C   C3411     1.0  0.73355  0.72600  0.33076  1.0000
  H   H6048     1.0  0.63291  0.57261  0.12117  1.0000
  H   H6049     1.0  0.71809  0.71017  0.98486  1.0000
  H   H6050     1.0  0.71565  0.66818  0.13754  1.0000
  H   H6051     1.0  0.73558  0.68821  0.07017  1.0000
  H   H6052     1.0  0.60181  0.73004  0.09102  1.0000
  H   H6053     1.0  0.61678  0.51115  0.22189  1.0000
  C   C3412     1.0  0.72264  0.68134  0.44425  1.0000
  C   C3413     1.0  0.70962  0.72371  0.09956  1.0000
  C   C3414     1.0  0.72941  0.56795  0.09963  1.0000
  H   H6054     1.0  0.71260  0.68683  0.31476  1.0000
  H   H6055     1.0  0.70518  0.66298  0.21134  1.0000
  N   N188      1.0  0.72197  0.64112  0.23696  1.0000
  C   C3415     1.0  0.63527  0.72719  0.23635  1.0000
  H   H6056     1.0  0.52274  0.69238  0.23112  1.0000
  N   N189      1.0  0.60614  0.62764  0.16531  1.0000
  C   C3416     1.0  0.61193  0.60937  0.16526  1.0000
  C   C3417     1.0  0.58816  0.63296  0.16397  1.0000
  C   C3418     1.0  0.61687  0.63714  0.15094  1.0000
  C   C3419     1.0  0.60740  0.63108  0.18117  1.0000
  C   C3420     1.0  0.60140  0.61882  0.19735  1.0000
  C   C3421     1.0  0.63027  0.60173  0.16647  1.0000
  C   C3422     1.0  0.61238  0.65623  0.14913  1.0000
  C   C3423     1.0  0.58490  0.63412  0.14675  1.0000
  C   C3424     1.0  0.56648  0.63629  0.14755  1.0000
  C   C3425     1.0  0.60047  0.62507  0.21265  1.0000
  C   C3426     1.0  0.63356  0.58283  0.17165  1.0000
  C   C3427     1.0  0.62305  0.66482  0.13349  1.0000
  H   H6057     1.0  0.61073  0.60684  0.15374  1.0000
  H   H6058     1.0  0.60369  0.60209  0.17526  1.0000
  H   H6059     1.0  0.58085  0.62433  0.17329  1.0000
  H   H6060     1.0  0.58227  0.64527  0.16723  1.0000
  H   H6061     1.0  0.61695  0.63422  0.13910  1.0000
  H   H6062     1.0  0.63000  0.63314  0.15215  1.0000
  H   H6063     1.0  0.62037  0.63135  0.18085  1.0000
  H   H6064     1.0  0.60012  0.64375  0.18250  1.0000
  H   H6065     1.0  0.61006  0.60647  0.19817  1.0000
  H   H6066     1.0  0.58898  0.61703  0.19782  1.0000
  H   H6067     1.0  0.63844  0.60507  0.15419  1.0000
  H   H6068     1.0  0.63393  0.60635  0.17542  1.0000
  H   H6069     1.0  0.61462  0.65944  0.15984  1.0000
  H   H6070     1.0  0.59918  0.66149  0.14852  1.0000
  H   H6071     1.0  0.58904  0.64496  0.13767  1.0000
  H   H6072     1.0  0.59148  0.62286  0.14183  1.0000
  H   H6073     1.0  0.56200  0.62515  0.15564  1.0000
  H   H6074     1.0  0.55917  0.64750  0.15234  1.0000
  H   H6075     1.0  0.56448  0.63779  0.13497  1.0000
  H   H6076     1.0  0.59157  0.63724  0.21275  1.0000
  H   H6077     1.0  0.59606  0.61605  0.22397  1.0000
  H   H6078     1.0  0.61289  0.62636  0.21296  1.0000
  H   H6079     1.0  0.62888  0.57753  0.16389  1.0000
  H   H6080     1.0  0.64709  0.57764  0.17031  1.0000
  H   H6081     1.0  0.62748  0.57900  0.18484  1.0000
  H   H6082     1.0  0.62082  0.66258  0.12226  1.0000
  H   H6083     1.0  0.61976  0.67842  0.13277  1.0000
  H   H6084     1.0  0.63645  0.66035  0.13367  1.0000
  N   N190      1.0  0.68311  0.59190  0.10235  1.0000
  C   C3428     1.0  0.68311  0.59496  0.08424  1.0000
  C   C3429     1.0  0.67353  0.57863  0.11181  1.0000
  C   C3430     1.0  0.67524  0.60799  0.10807  1.0000
  C   C3431     1.0  0.70053  0.58618  0.10530  1.0000
  H   H6085     1.0  0.69357  0.69787  0.11873  1.0000
  C   C3432     1.0  0.69464  0.60629  0.07225  1.0000
  C   C3433     1.0  0.67117  0.60666  0.12704  1.0000
  C   C3434     1.0  0.65498  0.58289  0.11082  1.0000
  C   C3435     1.0  0.64584  0.56987  0.12284  1.0000
  C   C3436     1.0  0.68989  0.68204  0.22384  1.0000
  C   C3437     1.0  0.66476  0.62380  0.13123  1.0000
  H   H6086     1.0  0.67037  0.60090  0.08212  1.0000
  H   H6087     1.0  0.68629  0.58302  0.08015  1.0000
  H   H6088     1.0  0.67927  0.56694  0.10728  1.0000
  H   H6089     1.0  0.67430  0.57517  0.12503  1.0000
  H   H6090     1.0  0.66367  0.61432  0.10350  1.0000
  H   H6091     1.0  0.68351  0.61690  0.10249  1.0000
  H   H6092     1.0  0.70737  0.59642  0.10009  1.0000
  H   H6093     1.0  0.70030  0.58310  0.11873  1.0000
  H   H6094     1.0  0.69356  0.68042  0.35105  1.0000
  S   S772      1.0  0.67696  0.72805  0.21290  1.0000
  H   H6095     1.0  0.68846  0.69047  0.21175  1.0000
  H   H6096     1.0  0.72221  0.59910  0.22184  1.0000
  H   H6097     1.0  0.56291  0.50265  0.25995  1.0000
  H   H6098     1.0  0.71639  0.67457  0.21708  1.0000
  H   H6099     1.0  0.73045  0.56694  0.11244  1.0000
  H   H6100     1.0  0.65757  0.48890  0.30478  1.0000
  H   H6101     1.0  0.66525  0.72771  0.31013  1.0000
  C   C3438     1.0  0.73303  0.60453  0.21438  1.0000
  H   H6102     1.0  0.71108  0.57141  0.08583  1.0000
  H   H6103     1.0  0.73020  0.53588  0.14156  1.0000
  H   H6104     1.0  0.68113  0.71309  0.46470  1.0000
  C   C3439     1.0  0.73450  0.49444  0.29151  1.0000
  C   C3440     1.0  0.73765  0.64769  0.23116  1.0000
  C   C3441     1.0  0.73807  0.70976  0.08683  1.0000
  H   H6105     1.0  0.73805  0.65385  0.25427  1.0000
  H   H6106     1.0  0.73621  0.50373  0.25478  1.0000
  H   H6107     1.0  0.73870  0.71730  0.07397  1.0000
  C   C3442     1.0  0.49171  0.68588  0.24317  1.0000
  H   H6108     1.0  0.73875  0.60832  0.23553  1.0000
  C   C3443     1.0  0.73904  0.65977  0.24095  1.0000
  H   H6109     1.0  0.48986  0.62613  0.24141  1.0000
  S   S773      1.0  0.65662  0.73169  0.10888  1.0000
  S   S774      1.0  0.63560  0.73179  0.14763  1.0000
  H   H6110     1.0  0.55846  0.48229  0.26814  1.0000
  H   H6111     1.0  0.55663  0.48195  0.23878  1.0000
  C   C3444     1.0  0.70894  0.49326  0.69775  1.0000
  C   C3445     1.0  0.61221  0.51526  0.81432  1.0000
  Fe  Fe391     1.0  0.52961  0.66332  0.74943  1.0000
  S   S775      1.0  0.55314  0.64783  0.73728  1.0000
  S   S776      1.0  0.70680  0.65724  0.54095  1.0000
  Fe  Fe392     1.0  0.54611  0.66714  0.77524  1.0000
  S   S777      1.0  0.57090  0.65211  0.76519  1.0000
  S   S778      1.0  0.53983  0.67587  0.79915  1.0000
  Fe  Fe393     1.0  0.56571  0.66607  0.74041  1.0000
  S   S779      1.0  0.58553  0.67517  0.71954  1.0000
  Fe  Fe394     1.0  0.55637  0.63507  0.76303  1.0000
  S   S780      1.0  0.56530  0.60751  0.77134  1.0000
  S   S781      1.0  0.54209  0.68270  0.75049  1.0000
  S   S782      1.0  0.53170  0.64891  0.77513  1.0000
  Fe  Fe395     1.0  0.66257  0.52458  0.77168  1.0000
  S   S783      1.0  0.67100  0.53587  0.74480  1.0000
  C   C3446     1.0  0.73410  0.60115  0.90052  1.0000
  Fe  Fe396     1.0  0.66378  0.55508  0.78333  1.0000
  S   S784      1.0  0.67220  0.56815  0.75732  1.0000
  S   S785      1.0  0.65921  0.57241  0.80052  1.0000
  Fe  Fe397     1.0  0.65318  0.55909  0.75110  1.0000
  S   S786      1.0  0.63773  0.57782  0.73413  1.0000
  Fe  Fe398     1.0  0.68897  0.54403  0.75378  1.0000
  S   S787      1.0  0.71542  0.54482  0.74169  1.0000
  S   S788      1.0  0.64338  0.54745  0.77744  1.0000
  S   S789      1.0  0.68211  0.53113  0.78032  1.0000
  Fe  Fe399     1.0  0.63029  0.68874  0.81634  1.0000
  S   S790      1.0  0.61290  0.69553  0.83930  1.0000
  S   S791      1.0  0.63906  0.66188  0.81508  1.0000
  Fe  Fe400     1.0  0.59965  0.71533  0.82120  1.0000
  H   H6112     1.0  0.58462  0.67378  0.81523  1.0000
  S   S792      1.0  0.61616  0.70730  0.79843  1.0000
  Fe  Fe401     1.0  0.72431  0.59638  0.83095  1.0000
  H   H6113     1.0  0.61633  0.49666  0.79139  1.0000
  S   S793      1.0  0.71390  0.57350  0.83664  1.0000
  Fe  Fe402     1.0  0.72594  0.63039  0.80926  1.0000
  S   S794      1.0  0.71602  0.65065  0.78951  1.0000
  S   S795      1.0  0.71089  0.62201  0.83465  1.0000
  C   C3447     1.0  0.66003  0.65818  0.80526  1.0000
  C   C3448     1.0  0.66718  0.67126  0.79497  1.0000
  C   C3449     1.0  0.68444  0.66868  0.78918  1.0000
  C   C3450     1.0  0.69448  0.65312  0.79398  1.0000
  C   C3451     1.0  0.68723  0.63981  0.80338  1.0000
  C   C3452     1.0  0.66996  0.64229  0.80878  1.0000
  H   H6114     1.0  0.65948  0.68345  0.79175  1.0000
  H   H6115     1.0  0.69004  0.67894  0.78171  1.0000
  H   H6116     1.0  0.69497  0.62764  0.80657  1.0000
  H   H6117     1.0  0.66435  0.63204  0.81609  1.0000
  C   C3453     1.0  0.67552  0.57272  0.80910  1.0000
  C   C3454     1.0  0.68606  0.55799  0.81518  1.0000
  C   C3455     1.0  0.69773  0.55840  0.82367  1.0000
  C   C3456     1.0  0.69942  0.57355  0.82552  1.0000
  C   C3457     1.0  0.68933  0.58833  0.81886  1.0000
  C   C3458     1.0  0.67716  0.58788  0.81100  1.0000
  H   H6118     1.0  0.68467  0.54624  0.81403  1.0000
  H   H6119     1.0  0.70534  0.54691  0.82902  1.0000
  H   H6120     1.0  0.69042  0.60003  0.82040  1.0000
  H   H6121     1.0  0.66883  0.59927  0.80661  1.0000
  C   C3459     1.0  0.58394  0.69643  0.71711  1.0000
  C   C3460     1.0  0.57667  0.70413  0.73053  1.0000
  Fe  Fe403     1.0  0.63111  0.72448  0.79950  1.0000
  H   H6122     1.0  0.65105  0.49022  0.72805  1.0000
  C   C3461     1.0  0.53322  0.72019  0.71742  1.0000
  C   C3462     1.0  0.58931  0.70590  0.70141  1.0000
  H   H6123     1.0  0.57284  0.69680  0.74276  1.0000
  H   H6124     1.0  0.69103  0.51684  0.71615  1.0000
  H   H6125     1.0  0.62953  0.60433  0.81839  1.0000
  H   H6126     1.0  0.59509  0.69993  0.69105  1.0000
  C   C3463     1.0  0.54936  0.68845  0.80508  1.0000
  C   C3464     1.0  0.54407  0.69044  0.82144  1.0000
  H   H6127     1.0  0.59166  0.61526  0.81073  1.0000
  C   C3465     1.0  0.56391  0.70758  0.81665  1.0000
  C   C3466     1.0  0.56930  0.70571  0.80016  1.0000
  C   C3467     1.0  0.56181  0.69633  0.79430  1.0000
  H   H6128     1.0  0.68309  0.53602  0.68249  1.0000
  H   H6129     1.0  0.71885  0.70113  0.55854  1.0000
  H   H6130     1.0  0.57886  0.71185  0.79188  1.0000
  H   H6131     1.0  0.56557  0.69525  0.78151  1.0000
  C   C3468     1.0  0.58529  0.59940  0.76069  1.0000
  C   C3469     1.0  0.59328  0.58312  0.76674  1.0000
  C   C3470     1.0  0.60935  0.57646  0.75864  1.0000
  C   C3471     1.0  0.61741  0.58592  0.74424  1.0000
  C   C3472     1.0  0.60933  0.60214  0.73803  1.0000
  C   C3473     1.0  0.59337  0.60896  0.74636  1.0000
  H   H6132     1.0  0.58708  0.57572  0.77784  1.0000
  H   H6133     1.0  0.61539  0.56394  0.76343  1.0000
  H   H6134     1.0  0.61548  0.60952  0.72689  1.0000
  H   H6135     1.0  0.58726  0.62153  0.74159  1.0000
  C   C3474     1.0  0.70186  0.67673  0.54586  1.0000
  C   C3475     1.0  0.68683  0.68778  0.54363  1.0000
  C   C3476     1.0  0.68360  0.70391  0.54624  1.0000
  C   C3477     1.0  0.61080  0.63691  0.81068  1.0000
  C   C3478     1.0  0.70992  0.69749  0.55432  1.0000
  C   C3479     1.0  0.71337  0.68159  0.55123  1.0000
  H   H6136     1.0  0.67790  0.68403  0.53951  1.0000
  C   C3480     1.0  0.56651  0.72329  0.64051  1.0000
  C   C3481     1.0  0.72490  0.56250  0.68574  1.0000
  C   C3482     1.0  0.70852  0.56320  0.69480  1.0000
  C   C3483     1.0  0.70529  0.55853  0.71220  1.0000
  C   C3484     1.0  0.71847  0.55314  0.72037  1.0000
  H   H6137     1.0  0.56149  0.61628  0.82403  1.0000
  H   H6138     1.0  0.69978  0.59908  0.60628  1.0000
  H   H6139     1.0  0.69846  0.56656  0.68840  1.0000
  H   H6140     1.0  0.69271  0.55849  0.71920  1.0000
  H   H6141     1.0  0.72903  0.56924  0.56455  1.0000
  H   H6142     1.0  0.63044  0.60510  0.83880  1.0000
  C   C3485     1.0  0.54962  0.70676  0.69326  1.0000
  H   H6143     1.0  0.69207  0.64281  0.51950  1.0000
  C   C3486     1.0  0.65159  0.48470  0.74086  1.0000
  H   H6144     1.0  0.67309  0.59530  0.71352  1.0000
  H   H6145     1.0  0.68328  0.49328  0.71210  1.0000
  H   H6146     1.0  0.52019  0.67808  0.66115  1.0000
  H   H6147     1.0  0.56842  0.64970  0.81300  1.0000
  H   H6148     1.0  0.69105  0.67310  0.51207  1.0000
  H   H6149     1.0  0.58579  0.62964  0.79274  1.0000
  H   H6150     1.0  0.65728  0.50607  0.74497  1.0000
  C   C3487     1.0  0.72752  0.69238  0.84015  1.0000
  H   H6151     1.0  0.49280  0.61845  0.75300  1.0000
  C   C3488     1.0  0.72072  0.62494  0.59659  1.0000
  H   H6152     1.0  0.71170  0.65467  0.48446  1.0000
  C   C3489     1.0  0.49408  0.65938  0.74019  1.0000
  H   H6153     1.0  0.57758  0.63460  0.82839  1.0000
  H   H6154     1.0  0.53506  0.66839  0.71006  1.0000
  C   C3490     1.0  0.48932  0.70262  0.67855  1.0000
  H   H6155     1.0  0.55010  0.65164  0.70191  1.0000
  Fe  Fe404     1.0  0.62846  0.71373  0.83674  1.0000
  H   H6156     1.0  0.71086  0.60990  0.63216  1.0000
  H   H6157     1.0  0.72993  0.60822  0.51323  1.0000
  S   S796      1.0  0.69178  0.72896  0.55442  1.0000
  C   C3491     1.0  0.60844  0.66915  0.78495  1.0000
  H   H6158     1.0  0.49985  0.70393  0.66771  1.0000
  H   H6159     1.0  0.56830  0.65924  0.83892  1.0000
  S   S797      1.0  0.65726  0.49862  0.78032  1.0000
  C   C3492     1.0  0.72514  0.51077  0.70279  1.0000
  H   H6160     1.0  0.61359  0.62904  0.80155  1.0000
  H   H6161     1.0  0.62200  0.66809  0.71552  1.0000
  C   C3493     1.0  0.51136  0.67467  0.63377  1.0000
  C   C3494     1.0  0.58300  0.66888  0.84899  1.0000
  C   C3495     1.0  0.72394  0.60293  0.58229  1.0000
  H   H6162     1.0  0.67013  0.68882  0.49724  1.0000
  N   N191      1.0  0.59440  0.64903  0.81009  1.0000
  H   H6163     1.0  0.56781  0.60951  0.80476  1.0000
  H   H6164     1.0  0.60366  0.66364  0.82108  1.0000
  H   H6165     1.0  0.57474  0.66664  0.86146  1.0000
  H   H6166     1.0  0.72449  0.51150  0.64499  1.0000
  H   H6167     1.0  0.71168  0.60837  0.57885  1.0000
  S   S798      1.0  0.73758  0.60484  0.80488  1.0000
  C   C3496     1.0  0.63156  0.62095  0.75950  1.0000
  C   C3497     1.0  0.56586  0.62024  0.81044  1.0000
  H   H6168     1.0  0.68536  0.70343  0.50682  1.0000
  H   H6169     1.0  0.69939  0.58938  0.76551  1.0000
  H   H6170     1.0  0.68381  0.61711  0.78173  1.0000
  C   C3498     1.0  0.71207  0.59059  0.75829  1.0000
  H   H6171     1.0  0.66518  0.54443  0.70845  1.0000
  N   N192      1.0  0.72355  0.60636  0.59873  1.0000
  H   H6172     1.0  0.52233  0.64757  0.70484  1.0000
  H   H6173     1.0  0.63629  0.67553  0.72223  1.0000
  C   C3499     1.0  0.61940  0.59914  0.78309  1.0000
  C   C3500     1.0  0.73245  0.50975  0.66750  1.0000
  C   C3501     1.0  0.66553  0.61937  0.76765  1.0000
  H   H6174     1.0  0.55611  0.63036  0.80537  1.0000
  H   H6175     1.0  0.68175  0.59386  0.63598  1.0000
  H   H6176     1.0  0.50979  0.72371  0.60651  1.0000
  H   H6177     1.0  0.72195  0.70174  0.96681  1.0000
  H   H6178     1.0  0.56921  0.70955  0.64454  1.0000
  H   H6179     1.0  0.65032  0.64623  0.72524  1.0000
  H   H6180     1.0  0.73748  0.64752  0.88896  1.0000
  H   H6181     1.0  0.62081  0.66089  0.78180  1.0000
  H   H6182     1.0  0.71417  0.69751  0.83996  1.0000
  H   H6183     1.0  0.71966  0.70024  0.91387  1.0000
  H   H6184     1.0  0.65436  0.53675  0.69794  1.0000
  C   C3502     1.0  0.50058  0.67802  0.65038  1.0000
  H   H6185     1.0  0.64717  0.70334  0.47942  1.0000
  H   H6186     1.0  0.62670  0.62900  0.76872  1.0000
  C   C3503     1.0  0.60503  0.68161  0.76907  1.0000
  H   H6187     1.0  0.59504  0.69238  0.77209  1.0000
  H   H6188     1.0  0.61641  0.68625  0.76209  1.0000
  H   H6189     1.0  0.60119  0.67586  0.76106  1.0000
  H   H6190     1.0  0.59741  0.65018  0.78390  1.0000
  C   C3504     1.0  0.69579  0.70285  0.49572  1.0000
  C   C3505     1.0  0.67166  0.70847  0.47537  1.0000
  S   S799      1.0  0.50621  0.67342  0.73903  1.0000
  C   C3506     1.0  0.70177  0.60737  0.62678  1.0000
  S   S800      1.0  0.64699  0.70509  0.81511  1.0000
  C   C3507     1.0  0.71183  0.70206  0.50120  1.0000
  C   C3508     1.0  0.60671  0.72962  0.75559  1.0000
  H   H6191     1.0  0.50435  0.67422  0.70457  1.0000
  H   H6192     1.0  0.71231  0.60397  0.75392  1.0000
  H   H6193     1.0  0.50913  0.71796  0.74321  1.0000
  C   C3509     1.0  0.51366  0.72944  0.74142  1.0000
  H   H6194     1.0  0.73218  0.52917  0.64499  1.0000
  H   H6195     1.0  0.72778  0.52347  0.69925  1.0000
  H   H6196     1.0  0.69124  0.60415  0.70652  1.0000
  H   H6197     1.0  0.62109  0.64360  0.80670  1.0000
  C   C3510     1.0  0.51160  0.67246  0.69203  1.0000
  H   H6198     1.0  0.60244  0.61890  0.83329  1.0000
  C   C3511     1.0  0.73778  0.55845  0.69407  1.0000
  H   H6199     1.0  0.53433  0.68458  0.82979  1.0000
  H   H6200     1.0  0.56808  0.72177  0.61577  1.0000
  H   H6201     1.0  0.71178  0.51312  0.72823  1.0000
  C   C3512     1.0  0.72418  0.71157  0.97152  1.0000
  H   H6202     1.0  0.69948  0.58461  0.64555  1.0000
  H   H6203     1.0  0.55182  0.72988  0.69659  1.0000
  C   C3513     1.0  0.58165  0.65742  0.83887  1.0000
  C   C3514     1.0  0.71014  0.59895  0.61180  1.0000
  C   C3515     1.0  0.61268  0.62562  0.82776  1.0000
  H   H6204     1.0  0.73732  0.68041  0.88674  1.0000
  N   N193      1.0  0.60370  0.51320  0.77234  1.0000
  C   C3516     1.0  0.61592  0.52336  0.76110  1.0000
  H   H6205     1.0  0.62036  0.49107  0.76532  1.0000
  H   H6206     1.0  0.73229  0.58981  0.55445  1.0000
  C   C3517     1.0  0.58593  0.52215  0.77197  1.0000
  C   C3518     1.0  0.58074  0.54025  0.77440  1.0000
  C   C3519     1.0  0.61584  0.52763  0.74240  1.0000
  H   H6207     1.0  0.50404  0.68037  0.62401  1.0000
  C   C3520     1.0  0.61237  0.52073  0.79583  1.0000
  H   H6208     1.0  0.51540  0.66111  0.63430  1.0000
  C   C3521     1.0  0.56299  0.54821  0.77223  1.0000
  C   C3522     1.0  0.62478  0.54166  0.73295  1.0000
  H   H6209     1.0  0.62875  0.51670  0.76237  1.0000
  H   H6210     1.0  0.61420  0.53513  0.76496  1.0000
  H   H6211     1.0  0.48963  0.67263  0.65306  1.0000
  H   H6212     1.0  0.59509  0.50523  0.79892  1.0000
  H   H6213     1.0  0.61694  0.52417  0.81807  1.0000
  H   H6214     1.0  0.60490  0.50022  0.75348  1.0000
  H   H6215     1.0  0.58295  0.52227  0.76014  1.0000
  H   H6216     1.0  0.57723  0.51526  0.78174  1.0000
  H   H6217     1.0  0.58878  0.54823  0.76526  1.0000
  H   H6218     1.0  0.58101  0.54051  0.78710  1.0000
  H   H6219     1.0  0.62238  0.51659  0.73698  1.0000
  H   H6220     1.0  0.60306  0.53159  0.74022  1.0000
  H   H6221     1.0  0.71266  0.51456  0.80366  1.0000
  H   H6222     1.0  0.69739  0.65403  0.60405  1.0000
  H   H6223     1.0  0.62535  0.52121  0.78927  1.0000
  H   H6224     1.0  0.60475  0.53346  0.79349  1.0000
  H   H6225     1.0  0.54729  0.72461  0.62879  1.0000
  H   H6226     1.0  0.52243  0.68021  0.63033  1.0000
  H   H6227     1.0  0.73574  0.59330  0.62973  1.0000
  H   H6228     1.0  0.56193  0.54880  0.75950  1.0000
  H   H6229     1.0  0.55409  0.54110  0.78136  1.0000
  H   H6230     1.0  0.55957  0.56110  0.77422  1.0000
  H   H6231     1.0  0.62602  0.54333  0.71945  1.0000
  H   H6232     1.0  0.61751  0.55347  0.73657  1.0000
  H   H6233     1.0  0.63735  0.53890  0.73555  1.0000
  C   C3523     1.0  0.59160  0.66141  0.82075  1.0000
  N   N194      1.0  0.67324  0.65754  0.85929  1.0000
  C   C3524     1.0  0.68154  0.64707  0.87326  1.0000
  C   C3525     1.0  0.66849  0.64668  0.85085  1.0000
  C   C3526     1.0  0.68579  0.66655  0.84673  1.0000
  C   C3527     1.0  0.65821  0.67033  0.86507  1.0000
  C   C3528     1.0  0.64469  0.66368  0.87948  1.0000
  C   C3529     1.0  0.68761  0.65653  0.88264  1.0000
  C   C3530     1.0  0.67973  0.67807  0.83125  1.0000
  C   C3531     1.0  0.66454  0.62982  0.86153  1.0000
  C   C3532     1.0  0.65866  0.62086  0.85190  1.0000
  C   C3533     1.0  0.63067  0.67789  0.88478  1.0000
  C   C3534     1.0  0.69299  0.64502  0.89817  1.0000
  C   C3535     1.0  0.69399  0.68417  0.81798  1.0000
  H   H6234     1.0  0.69257  0.63786  0.86841  1.0000
  H   H6235     1.0  0.67321  0.63959  0.88270  1.0000
  H   H6236     1.0  0.65767  0.65364  0.84513  1.0000
  H   H6237     1.0  0.67857  0.64342  0.84018  1.0000
  H   H6238     1.0  0.69728  0.65743  0.84257  1.0000
  H   H6239     1.0  0.68969  0.67473  0.85225  1.0000
  H   H6240     1.0  0.66195  0.68013  0.86851  1.0000
  H   H6241     1.0  0.65181  0.67714  0.85473  1.0000
  H   H6242     1.0  0.64979  0.65660  0.89052  1.0000
  H   H6243     1.0  0.63904  0.65572  0.87549  1.0000
  H   H6244     1.0  0.69856  0.66144  0.87473  1.0000
  H   H6245     1.0  0.67771  0.66697  0.88661  1.0000
  H   H6246     1.0  0.67067  0.68920  0.83481  1.0000
  H   H6247     1.0  0.67372  0.67176  0.82568  1.0000
  H   H6248     1.0  0.67588  0.62141  0.86537  1.0000
  H   H6249     1.0  0.65482  0.63146  0.87282  1.0000
  H   H6250     1.0  0.65472  0.60957  0.86026  1.0000
  H   H6251     1.0  0.64797  0.62900  0.84665  1.0000
  H   H6252     1.0  0.66900  0.61685  0.84179  1.0000
  H   H6253     1.0  0.62116  0.67283  0.89517  1.0000
  H   H6254     1.0  0.63551  0.68643  0.88896  1.0000
  H   H6255     1.0  0.62459  0.68505  0.87435  1.0000
  H   H6256     1.0  0.69805  0.65186  0.90417  1.0000
  H   H6257     1.0  0.68225  0.64054  0.90715  1.0000
  H   H6258     1.0  0.70282  0.63418  0.89495  1.0000
  H   H6259     1.0  0.68919  0.69215  0.80700  1.0000
  H   H6260     1.0  0.69962  0.69163  0.82265  1.0000
  H   H6261     1.0  0.70363  0.67352  0.81402  1.0000
  H   H6262     1.0  0.61905  0.60458  0.79345  1.0000
  H   H6263     1.0  0.53785  0.72509  0.60800  1.0000
  C   C3536     1.0  0.69140  0.59651  0.64060  1.0000
  H   H6264     1.0  0.60919  0.67623  0.79360  1.0000
  H   H6265     1.0  0.63976  0.61896  0.82103  1.0000
  H   H6266     1.0  0.70389  0.71774  0.85765  1.0000
  H   H6267     1.0  0.57826  0.72754  0.63799  1.0000
  H   H6268     1.0  0.72199  0.55859  0.76644  1.0000
  H   H6269     1.0  0.54581  0.67177  0.68853  1.0000
  C   C3537     1.0  0.70162  0.65344  0.59077  1.0000
  C   C3538     1.0  0.63424  0.60251  0.76904  1.0000
  H   H6270     1.0  0.67235  0.60782  0.76338  1.0000
  C   C3539     1.0  0.65635  0.61252  0.73814  1.0000
  C   C3540     1.0  0.52656  0.65765  0.69456  1.0000
  H   H6271     1.0  0.69822  0.53398  0.70258  1.0000
  H   H6272     1.0  0.67955  0.51534  0.69047  1.0000
  H   H6273     1.0  0.70500  0.49196  0.68696  1.0000
  C   C3541     1.0  0.68085  0.52634  0.69399  1.0000
  H   H6274     1.0  0.62068  0.58552  0.78781  1.0000
  H   H6275     1.0  0.64904  0.64237  0.76099  1.0000
  H   H6276     1.0  0.62112  0.62259  0.75343  1.0000
  H   H6277     1.0  0.55786  0.69835  0.70146  1.0000
  C   C3542     1.0  0.65511  0.49371  0.75042  1.0000
  C   C3543     1.0  0.62636  0.65514  0.74010  1.0000
  C   C3544     1.0  0.55113  0.70010  0.82711  1.0000
  H   H6278     1.0  0.73016  0.67601  0.82389  1.0000
  H   H6279     1.0  0.66719  0.71751  0.48358  1.0000
  C   C3545     1.0  0.66442  0.53322  0.70486  1.0000
  S   S801      1.0  0.64131  0.71432  0.85641  1.0000
  C   C3546     1.0  0.70580  0.63550  0.58880  1.0000
  H   H6280     1.0  0.69459  0.63020  0.59447  1.0000
  C   C3547     1.0  0.72408  0.56342  0.77620  1.0000
  H   H6281     1.0  0.53221  0.65255  0.68326  1.0000
  H   H6282     1.0  0.70366  0.72946  0.96293  1.0000
  H   H6283     1.0  0.67214  0.71254  0.54426  1.0000
  C   C3548     1.0  0.62910  0.61275  0.82634  1.0000
  C   C3549     1.0  0.60705  0.49744  0.76621  1.0000
  C   C3550     1.0  0.68126  0.60089  0.71739  1.0000
  H   H6284     1.0  0.71249  0.56310  0.78605  1.0000
  N   N195      1.0  0.64630  0.62638  0.74678  1.0000
  C   C3551     1.0  0.51035  0.67083  0.66439  1.0000
  H   H6285     1.0  0.72117  0.50342  0.78723  1.0000
  H   H6286     1.0  0.71438  0.63992  0.51288  1.0000
  H   H6287     1.0  0.50563  0.64394  0.68959  1.0000
  C   C3552     1.0  0.67807  0.62631  0.77187  1.0000
  H   H6288     1.0  0.57920  0.68211  0.84287  1.0000
  C   C3553     1.0  0.70019  0.67279  0.50003  1.0000
  H   H6289     1.0  0.53977  0.70054  0.69355  1.0000
  H   H6290     1.0  0.59059  0.72456  0.57665  1.0000
  H   H6291     1.0  0.66702  0.62583  0.71335  1.0000
  H   H6292     1.0  0.72009  0.53310  0.77642  1.0000
  H   H6293     1.0  0.67866  0.68180  0.47863  1.0000
  H   H6294     1.0  0.72305  0.69965  0.49130  1.0000
  C   C3554     1.0  0.67905  0.69114  0.48510  1.0000
  N   N196      1.0  0.71106  0.51077  0.69544  1.0000
  H   H6295     1.0  0.61412  0.65156  0.74462  1.0000
  H   H6296     1.0  0.68715  0.59152  0.72705  1.0000
  C   C3555     1.0  0.71552  0.51821  0.67711  1.0000
  H   H6297     1.0  0.62041  0.50276  0.81707  1.0000
  H   H6298     1.0  0.71513  0.58557  0.61675  1.0000
  H   H6299     1.0  0.72495  0.67309  0.55306  1.0000
  H   H6300     1.0  0.51001  0.63785  0.75183  1.0000
  H   H6301     1.0  0.67184  0.63791  0.77640  1.0000
  H   H6302     1.0  0.61285  0.63322  0.83624  1.0000
  H   H6303     1.0  0.73424  0.61428  0.89960  1.0000
  H   H6304     1.0  0.58264  0.66686  0.79131  1.0000
  H   H6305     1.0  0.71323  0.69206  0.51239  1.0000
  H   H6306     1.0  0.71500  0.58499  0.74733  1.0000
  C   C3556     1.0  0.70079  0.65679  0.49470  1.0000
  H   H6307     1.0  0.66368  0.72345  0.86997  1.0000
  H   H6308     1.0  0.69335  0.61941  0.62288  1.0000
  H   H6309     1.0  0.71569  0.53161  0.67503  1.0000
  H   H6310     1.0  0.70594  0.51786  0.67085  1.0000
  C   C3557     1.0  0.67326  0.73131  0.81815  1.0000
  C   C3558     1.0  0.54017  0.66274  0.69905  1.0000
  C   C3559     1.0  0.72275  0.50508  0.72181  1.0000
  C   C3560     1.0  0.65673  0.63234  0.75455  1.0000
  C   C3561     1.0  0.62470  0.67076  0.72630  1.0000
  C   C3562     1.0  0.58210  0.62606  0.80636  1.0000
  H   H6311     1.0  0.69326  0.71511  0.48704  1.0000
  C   C3563     1.0  0.65509  0.48697  0.76720  1.0000
  H   H6312     1.0  0.71257  0.67098  0.50279  1.0000
  C   C3564     1.0  0.73397  0.59481  0.51307  1.0000
  C   C3565     1.0  0.58007  0.64038  0.81501  1.0000
  H   H6313     1.0  0.70336  0.63028  0.50453  1.0000
  Fe  Fe405     1.0  0.73309  0.62240  0.84351  1.0000
  C   C3566     1.0  0.73205  0.67512  0.83638  1.0000
  H   H6314     1.0  0.63587  0.59432  0.76053  1.0000
  C   C3567     1.0  0.71605  0.72158  0.85366  1.0000
  H   H6315     1.0  0.73190  0.72462  0.54952  1.0000
  H   H6316     1.0  0.63449  0.63627  0.72576  1.0000
  H   H6317     1.0  0.56817  0.72740  0.73840  1.0000
  H   H6318     1.0  0.70893  0.63589  0.57530  1.0000
  S   S802      1.0  0.72978  0.56474  0.66419  1.0000
  H   H6319     1.0  0.66621  0.63824  0.74483  1.0000
  H   H6320     1.0  0.62918  0.65850  0.75036  1.0000
  C   C3568     1.0  0.63990  0.64072  0.73372  1.0000
  H   H6321     1.0  0.61436  0.68062  0.73085  1.0000
  H   H6322     1.0  0.64540  0.59852  0.77432  1.0000
  H   H6323     1.0  0.50496  0.72550  0.77604  1.0000
  H   H6324     1.0  0.59304  0.73075  0.75871  1.0000
  H   H6325     1.0  0.73252  0.71816  0.92384  1.0000
  H   H6326     1.0  0.72188  0.71774  0.88414  1.0000
  H   H6327     1.0  0.59595  0.66642  0.85048  1.0000
  H   H6328     1.0  0.64811  0.60825  0.73294  1.0000
  H   H6329     1.0  0.73679  0.50249  0.69763  1.0000
  H   H6330     1.0  0.68810  0.62900  0.76085  1.0000
  Fe  Fe406     1.0  0.73452  0.64944  0.53517  1.0000
  C   C3569     1.0  0.73389  0.51545  0.64880  1.0000
  H   H6331     1.0  0.66132  0.60156  0.74699  1.0000
  S   S803      1.0  0.57195  0.71995  0.82450  1.0000
  H   H6332     1.0  0.68616  0.72645  0.82001  1.0000
  H   H6333     1.0  0.73151  0.62293  0.75650  1.0000
  H   H6334     1.0  0.66120  0.52368  0.71617  1.0000
  H   H6335     1.0  0.72141  0.68470  0.86646  1.0000
  H   H6336     1.0  0.70981  0.70399  0.88393  1.0000
  C   C3570     1.0  0.72413  0.51066  0.79451  1.0000
  C   C3571     1.0  0.69549  0.52201  0.70282  1.0000
  C   C3572     1.0  0.69521  0.70879  0.55151  1.0000
  C   C3573     1.0  0.67133  0.61644  0.72391  1.0000
  H   H6337     1.0  0.65627  0.61636  0.77929  1.0000
  H   H6338     1.0  0.68516  0.60303  0.65091  1.0000
  H   H6339     1.0  0.53714  0.71765  0.75003  1.0000
  H   H6340     1.0  0.69152  0.66084  0.58428  1.0000
  H   H6341     1.0  0.73565  0.50228  0.74116  1.0000
  H   H6342     1.0  0.72047  0.57710  0.59193  1.0000
  H   H6343     1.0  0.58605  0.64450  0.84531  1.0000
  S   S804      1.0  0.73058  0.63397  0.86501  1.0000
  C   C3574     1.0  0.59498  0.65859  0.79242  1.0000
  H   H6344     1.0  0.67993  0.62105  0.72816  1.0000
  H   H6345     1.0  0.60757  0.60427  0.77878  1.0000
  N   N197      1.0  0.72885  0.70820  0.86169  1.0000
  H   H6346     1.0  0.71356  0.68322  0.91028  1.0000
  H   H6347     1.0  0.73310  0.60903  0.57223  1.0000
  C   C3575     1.0  0.60648  0.50828  0.78985  1.0000
  H   H6348     1.0  0.58315  0.48977  0.77663  1.0000
  N   N198      1.0  0.69623  0.68898  0.48782  1.0000
  N   N199      1.0  0.73890  0.55257  0.78296  1.0000
  H   H6349     1.0  0.55714  0.70913  0.68043  1.0000
  H   H6350     1.0  0.71941  0.72320  0.84002  1.0000
  C   C3576     1.0  0.72268  0.70619  0.88021  1.0000
  H   H6351     1.0  0.51720  0.65798  0.66326  1.0000
  C   C3577     1.0  0.70276  0.64154  0.50881  1.0000
  H   H6352     1.0  0.73365  0.59423  0.91355  1.0000
  H   H6353     1.0  0.51673  0.68382  0.68626  1.0000
  H   H6354     1.0  0.54671  0.70170  0.83975  1.0000
  H   H6355     1.0  0.72402  0.66715  0.84556  1.0000
  C   C3578     1.0  0.72472  0.58195  0.76914  1.0000
  C   C3579     1.0  0.59647  0.48459  0.77679  1.0000
  H   H6356     1.0  0.52677  0.70976  0.72040  1.0000
  H   H6357     1.0  0.59940  0.51496  0.82168  1.0000
  C   C3580     1.0  0.73558  0.72616  0.91182  1.0000
  C   C3581     1.0  0.71707  0.72862  0.96172  1.0000
  H   H6358     1.0  0.72147  0.49200  0.72586  1.0000
  H   H6359     1.0  0.54344  0.71519  0.72421  1.0000
  C   C3582     1.0  0.73790  0.50577  0.72744  1.0000
  C   C3583     1.0  0.72427  0.68867  0.90906  1.0000
  C   C3584     1.0  0.72809  0.58439  0.58136  1.0000
  H   H6360     1.0  0.72410  0.53812  0.80329  1.0000
  C   C3585     1.0  0.58638  0.72320  0.69888  1.0000
  H   H6361     1.0  0.73278  0.67971  0.91671  1.0000
  N   N200      1.0  0.50048  0.67085  0.68194  1.0000
  H   H6362     1.0  0.73194  0.62941  0.58864  1.0000
  C   C3586     1.0  0.57410  0.72142  0.72807  1.0000
  H   H6363     1.0  0.72307  0.59033  0.51292  1.0000
  C   C3587     1.0  0.73018  0.52583  0.78287  1.0000
  C   C3588     1.0  0.49881  0.64249  0.74703  1.0000
  C   C3589     1.0  0.55927  0.72855  0.62505  1.0000
  H   H6364     1.0  0.51452  0.70532  0.77109  1.0000
  H   H6365     1.0  0.71125  0.72864  0.49445  1.0000
  C   C3590     1.0  0.54182  0.72317  0.69879  1.0000
  H   H6366     1.0  0.71916  0.62845  0.60846  1.0000
  H   H6367     1.0  0.61286  0.71628  0.75729  1.0000
  H   H6368     1.0  0.71264  0.65910  0.58519  1.0000
  C   C3591     1.0  0.72503  0.58249  0.56538  1.0000
  H   H6369     1.0  0.72269  0.60098  0.89693  1.0000
  H   H6370     1.0  0.68938  0.65735  0.49079  1.0000
  H   H6371     1.0  0.73483  0.70026  0.82998  1.0000
  C   C3592     1.0  0.51686  0.71738  0.77124  1.0000
  H   H6372     1.0  0.72220  0.71704  0.51065  1.0000
  C   C3593     1.0  0.71121  0.71833  0.50560  1.0000
  H   H6373     1.0  0.71164  0.58679  0.56512  1.0000
  H   H6374     1.0  0.59014  0.73051  0.68664  1.0000
  C   C3594     1.0  0.49486  0.65471  0.68985  1.0000
  H   H6375     1.0  0.72181  0.68280  0.47477  1.0000
  H   H6376     1.0  0.52528  0.71486  0.77981  1.0000
  H   H6377     1.0  0.72167  0.58847  0.77947  1.0000
  C   C3595     1.0  0.52496  0.72578  0.75392  1.0000
  H   H6378     1.0  0.73780  0.70978  0.97003  1.0000
  C   C3596     1.0  0.73461  0.55360  0.71132  1.0000
  H   H6379     1.0  0.69788  0.48847  0.72485  1.0000
  H   H6380     1.0  0.69986  0.72157  0.51511  1.0000
  C   C3597     1.0  0.73468  0.53612  0.79257  1.0000
  H   H6381     1.0  0.72998  0.56414  0.80414  1.0000
  C   C3598     1.0  0.49873  0.73034  0.71199  1.0000
  H   H6382     1.0  0.49306  0.72362  0.72435  1.0000
  H   H6383     1.0  0.72335  0.72923  0.94854  1.0000
  H   H6384     1.0  0.72112  0.48430  0.69789  1.0000
  C   C3599     1.0  0.57837  0.73099  0.71212  1.0000
  H   H6385     1.0  0.55740  0.72852  0.65075  1.0000
  H   H6386     1.0  0.49275  0.70485  0.68917  1.0000
  H   H6387     1.0  0.73384  0.50251  0.80117  1.0000
  H   H6388     1.0  0.73660  0.72333  0.58569  1.0000
  H   H6389     1.0  0.53314  0.73055  0.69071  1.0000
  C   C3600     1.0  0.73355  0.69223  0.89099  1.0000
  H   H6390     1.0  0.73427  0.49602  0.67077  1.0000
  H   H6391     1.0  0.49617  0.69167  0.64885  1.0000
  C   C3601     1.0  0.69612  0.48670  0.71327  1.0000
  H   H6392     1.0  0.67264  0.72860  0.80646  1.0000
  H   H6393     1.0  0.50722  0.72108  0.70495  1.0000
  H   H6394     1.0  0.66494  0.72478  0.82861  1.0000
  C   C3602     1.0  0.73047  0.69174  0.85736  1.0000
  H   H6395     1.0  0.73724  0.58332  0.76173  1.0000
  H   H6396     1.0  0.73646  0.64033  0.73987  1.0000
  H   H6397     1.0  0.73849  0.58787  0.52450  1.0000
  C   C3603     1.0  0.61682  0.73604  0.34114  1.0000
  S   S805      1.0  0.71836  0.81275  0.01795  1.0000
  H   H6398     1.0  0.70594  0.77128  0.97927  1.0000
  H   H6399     1.0  0.73030  0.93131  0.16613  1.0000
  S   S806      1.0  0.55476  0.76599  0.26323  1.0000
  H   H6400     1.0  0.65358  0.80470  0.41519  1.0000
  C   C3604     1.0  0.66599  0.73369  0.18451  1.0000
  C   C3605     1.0  0.49621  0.76393  0.29105  1.0000
  H   H6401     1.0  0.68640  0.75052  0.97910  1.0000
  H   H6402     1.0  0.68567  0.76359  0.05551  1.0000
  H   H6403     1.0  0.65444  0.82271  0.17215  1.0000
  C   C3606     1.0  0.69486  0.77959  0.43626  1.0000
  H   H6404     1.0  0.55793  0.78648  0.30527  1.0000
  H   H6405     1.0  0.59647  0.80555  0.27471  1.0000
  S   S807      1.0  0.63658  0.77407  0.37628  1.0000
  Fe  Fe407     1.0  0.70504  0.82903  0.03606  1.0000
  H   H6406     1.0  0.64073  0.80071  0.39416  1.0000
  S   S808      1.0  0.71539  0.84835  0.04122  1.0000
  S   S809      1.0  0.68424  0.79805  0.02697  1.0000
  Fe  Fe408     1.0  0.67389  0.81591  0.04397  1.0000
  S   S810      1.0  0.64789  0.82127  0.05901  1.0000
  S   S811      1.0  0.68248  0.83738  0.02488  1.0000
  H   H6407     1.0  0.68942  0.80076  0.44775  1.0000
  H   H6408     1.0  0.66506  0.81609  0.99102  1.0000
  Fe  Fe409     1.0  0.72552  0.87570  0.14186  1.0000
  H   H6409     1.0  0.58345  0.76245  0.28483  1.0000
  S   S812      1.0  0.70129  0.87314  0.15996  1.0000
  H   H6410     1.0  0.57668  0.75697  0.34896  1.0000
  H   H6411     1.0  0.51957  0.74681  0.29543  1.0000
  H   H6412     1.0  0.62264  0.75308  0.00380  1.0000
  S   S813      1.0  0.62290  0.74177  0.40109  1.0000
  H   H6413     1.0  0.72901  0.93157  0.13380  1.0000
  S   S814      1.0  0.72860  0.88581  0.11443  1.0000
  Fe  Fe410     1.0  0.63833  0.78449  0.21134  1.0000
  S   S815      1.0  0.64656  0.76490  0.23248  1.0000
  S   S816      1.0  0.61199  0.79477  0.20845  1.0000
  Fe  Fe411     1.0  0.67324  0.78947  0.19419  1.0000
  S   S817      1.0  0.68460  0.77037  0.21399  1.0000
  S   S818      1.0  0.68850  0.80136  0.17022  1.0000
  Fe  Fe412     1.0  0.66762  0.75511  0.21317  1.0000
  C   C3607     1.0  0.68953  0.82119  0.10264  1.0000
  Fe  Fe413     1.0  0.66261  0.78179  0.23159  1.0000
  S   S819      1.0  0.66450  0.78519  0.25576  1.0000
  S   S820      1.0  0.65797  0.77313  0.19197  1.0000
  S   S821      1.0  0.65274  0.80240  0.21192  1.0000
  C   C3608     1.0  0.51053  0.75225  0.26616  1.0000
  C   C3609     1.0  0.70136  0.79998  0.37945  1.0000
  C   C3610     1.0  0.49592  0.78224  0.26296  1.0000
  H   H6414     1.0  0.61518  0.76494  0.02881  1.0000
  H   H6415     1.0  0.69771  0.80518  0.40321  1.0000
  S   S822      1.0  0.61587  0.76665  0.11467  1.0000
  C   C3611     1.0  0.68499  0.85600  0.10078  1.0000
  H   H6416     1.0  0.70011  0.73962  0.30087  1.0000
  H   H6417     1.0  0.69385  0.91105  0.17969  1.0000
  C   C3612     1.0  0.67583  0.75640  0.06143  1.0000
  H   H6418     1.0  0.73417  0.80542  0.22488  1.0000
  H   H6419     1.0  0.65114  0.86796  0.09649  1.0000
  Fe  Fe414     1.0  0.71937  0.82781  0.30227  1.0000
  S   S823      1.0  0.71052  0.81353  0.28965  1.0000
  S   S824      1.0  0.70272  0.83011  0.32714  1.0000
  H   H6420     1.0  0.62482  0.78494  0.45396  1.0000
  H   H6421     1.0  0.71887  0.81843  0.18472  1.0000
  H   H6422     1.0  0.61978  0.74266  0.03378  1.0000
  Fe  Fe415     1.0  0.71731  0.83218  0.26656  1.0000
  S   S825      1.0  0.70059  0.84192  0.24849  1.0000
  H   H6423     1.0  0.71747  0.73601  0.40143  1.0000
  Fe  Fe416     1.0  0.66083  0.75625  0.37015  1.0000
  S   S826      1.0  0.72381  0.84801  0.27961  1.0000
  H   H6424     1.0  0.58679  0.78942  0.30060  1.0000
  C   C3613     1.0  0.70682  0.74039  0.39523  1.0000
  C   C3614     1.0  0.62533  0.75372  0.02795  1.0000
  H   H6425     1.0  0.68072  0.82114  0.11472  1.0000
  S   S827      1.0  0.69565  0.80860  0.05589  1.0000
  H   H6426     1.0  0.68310  0.80032  0.09781  1.0000
  H   H6427     1.0  0.72372  0.73581  0.28260  1.0000
  H   H6428     1.0  0.58790  0.74940  0.08407  1.0000
  S   S828      1.0  0.66181  0.74389  0.39646  1.0000
  S   S829      1.0  0.55417  0.73500  0.30589  1.0000
  C   C3615     1.0  0.67753  0.86351  0.07394  1.0000
  C   C3616     1.0  0.66137  0.76363  0.05269  1.0000
  H   H6429     1.0  0.71645  0.90457  0.19475  1.0000
  H   H6430     1.0  0.70313  0.73823  0.07596  1.0000
  H   H6431     1.0  0.50871  0.80465  0.23488  1.0000
  C   C3617     1.0  0.67568  0.80056  0.25173  1.0000
  C   C3618     1.0  0.68976  0.79704  0.25824  1.0000
  C   C3619     1.0  0.69823  0.80952  0.25600  1.0000
  C   C3620     1.0  0.69209  0.82575  0.24809  1.0000
  C   C3621     1.0  0.67845  0.82914  0.24086  1.0000
  C   C3622     1.0  0.67035  0.81645  0.24250  1.0000
  H   H6432     1.0  0.69418  0.78462  0.26495  1.0000
  H   H6433     1.0  0.70936  0.80657  0.26068  1.0000
  H   H6434     1.0  0.67389  0.84164  0.23443  1.0000
  H   H6435     1.0  0.65956  0.81914  0.23727  1.0000
  C   C3623     1.0  0.69722  0.85340  0.16282  1.0000
  C   C3624     1.0  0.70410  0.84434  0.15040  1.0000
  C   C3625     1.0  0.70102  0.82856  0.15274  1.0000
  C   C3626     1.0  0.69134  0.82153  0.16765  1.0000
  C   C3627     1.0  0.68440  0.83056  0.18012  1.0000
  C   C3628     1.0  0.68722  0.84656  0.17763  1.0000
  H   H6436     1.0  0.71165  0.84958  0.13885  1.0000
  H   H6437     1.0  0.70639  0.82166  0.14303  1.0000
  H   H6438     1.0  0.67693  0.82523  0.19168  1.0000
  H   H6439     1.0  0.68183  0.85353  0.18727  1.0000
  C   C3629     1.0  0.62569  0.78130  0.09936  1.0000
  C   C3630     1.0  0.61565  0.79590  0.09240  1.0000
  C   C3631     1.0  0.62273  0.80807  0.08025  1.0000
  C   C3632     1.0  0.63995  0.80560  0.07463  1.0000
  C   C3633     1.0  0.65017  0.79101  0.08157  1.0000
  C   C3634     1.0  0.64302  0.77888  0.09408  1.0000
  H   H6440     1.0  0.60228  0.79781  0.09634  1.0000
  H   H6441     1.0  0.61479  0.81935  0.07498  1.0000
  H   H6442     1.0  0.66352  0.78915  0.07739  1.0000
  H   H6443     1.0  0.65087  0.76776  0.09965  1.0000
  C   C3635     1.0  0.72393  0.84660  0.05833  1.0000
  H   H6444     1.0  0.63091  0.74789  0.29363  1.0000
  H   H6445     1.0  0.59396  0.74549  0.10345  1.0000
  C   C3636     1.0  0.68246  0.83423  0.08830  1.0000
  H   H6446     1.0  0.67160  0.87655  0.07501  1.0000
  H   H6447     1.0  0.72369  0.94910  0.09417  1.0000
  H   H6448     1.0  0.71713  0.81206  0.35769  1.0000
  Fe  Fe417     1.0  0.69480  0.81884  0.00872  1.0000
  H   H6449     1.0  0.71988  0.94465  0.22459  1.0000
  H   H6450     1.0  0.71639  0.81780  0.37650  1.0000
  C   C3637     1.0  0.69495  0.76514  0.40891  1.0000
  H   H6451     1.0  0.70604  0.77730  0.23181  1.0000
  C   C3638     1.0  0.73220  0.81809  0.18357  1.0000
  H   H6452     1.0  0.71711  0.74393  0.31577  1.0000
  H   H6453     1.0  0.67086  0.78061  0.43219  1.0000
  H   H6454     1.0  0.69034  0.80990  0.37697  1.0000
  H   H6455     1.0  0.68486  0.87434  0.03955  1.0000
  C   C3639     1.0  0.68937  0.77946  0.34661  1.0000
  C   C3640     1.0  0.70453  0.78128  0.33583  1.0000
  C   C3641     1.0  0.70879  0.79672  0.33052  1.0000
  C   C3642     1.0  0.69781  0.81059  0.33571  1.0000
  C   C3643     1.0  0.68265  0.80883  0.34676  1.0000
  C   C3644     1.0  0.67838  0.79320  0.35220  1.0000
  H   H6456     1.0  0.71284  0.77083  0.33117  1.0000
  H   H6457     1.0  0.72054  0.79788  0.32213  1.0000
  H   H6458     1.0  0.67409  0.81961  0.35069  1.0000
  H   H6459     1.0  0.66654  0.79182  0.36036  1.0000
  C   C3645     1.0  0.57112  0.77337  0.24817  1.0000
  C   C3646     1.0  0.56742  0.78868  0.23734  1.0000
  C   C3647     1.0  0.58007  0.79506  0.22519  1.0000
  C   C3648     1.0  0.59657  0.78631  0.22395  1.0000
  C   C3649     1.0  0.60036  0.77101  0.23481  1.0000
  C   C3650     1.0  0.58762  0.76449  0.24689  1.0000
  H   H6460     1.0  0.55470  0.79560  0.23828  1.0000
  H   H6461     1.0  0.57707  0.80686  0.21679  1.0000
  H   H6462     1.0  0.61304  0.76410  0.23373  1.0000
  H   H6463     1.0  0.59058  0.75268  0.25521  1.0000
  H   H6464     1.0  0.68414  0.84770  0.11327  1.0000
  H   H6465     1.0  0.71261  0.74189  0.98121  1.0000
  C   C3651     1.0  0.51068  0.80553  0.24681  1.0000
  H   H6466     1.0  0.70592  0.76124  0.41464  1.0000
  H   H6467     1.0  0.69849  0.85362  0.09480  1.0000
  H   H6468     1.0  0.63213  0.79087  0.31610  1.0000
  H   H6469     1.0  0.52358  0.75931  0.31636  1.0000
  H   H6470     1.0  0.71202  0.76447  0.38474  1.0000
  C   C3652     1.0  0.61942  0.77515  0.31044  1.0000
  H   H6471     1.0  0.61734  0.79724  0.29168  1.0000
  H   H6472     1.0  0.55348  0.77209  0.29625  1.0000
  C   C3653     1.0  0.65559  0.75409  0.44024  1.0000
  C   C3654     1.0  0.66472  0.75024  0.45264  1.0000
  H   H6473     1.0  0.72822  0.79767  0.37260  1.0000
  C   C3655     1.0  0.60487  0.79486  0.26953  1.0000
  H   H6474     1.0  0.65982  0.74746  0.43034  1.0000
  H   H6475     1.0  0.67717  0.84796  0.05752  1.0000
  H   H6476     1.0  0.67693  0.78557  0.45850  1.0000
  H   H6477     1.0  0.62531  0.82072  0.23568  1.0000
  H   H6478     1.0  0.52256  0.75466  0.26620  1.0000
  C   C3656     1.0  0.71673  0.80731  0.37113  1.0000
  H   H6479     1.0  0.71400  0.94684  0.07910  1.0000
  Fe  Fe418     1.0  0.63068  0.74091  0.12206  1.0000
  H   H6480     1.0  0.73435  0.75918  0.98176  1.0000
  H   H6481     1.0  0.70425  0.80266  0.08841  1.0000
  H   H6482     1.0  0.67553  0.78725  0.38746  1.0000
  Fe  Fe419     1.0  0.56032  0.73994  0.27818  1.0000
  C   C3657     1.0  0.67033  0.86001  0.06085  1.0000
  C   C3658     1.0  0.63891  0.75327  0.03690  1.0000
  C   C3659     1.0  0.59830  0.74360  0.09055  1.0000
  C   C3660     1.0  0.57912  0.77466  0.28844  1.0000
  C   C3661     1.0  0.51123  0.76212  0.31329  1.0000
  H   H6483     1.0  0.64574  0.77288  0.30888  1.0000
  H   H6484     1.0  0.70372  0.94065  0.21739  1.0000
  Fe  Fe420     1.0  0.62507  0.75427  0.37402  1.0000
  H   H6485     1.0  0.71317  0.90114  0.16830  1.0000
  H   H6486     1.0  0.72396  0.87268  0.05239  1.0000
  H   H6487     1.0  0.70176  0.87115  0.11298  1.0000
  C   C3662     1.0  0.67010  0.81480  0.97834  1.0000
  H   H6488     1.0  0.73701  0.76148  0.09184  1.0000
  N   N201      1.0  0.68739  0.78342  0.40792  1.0000
  N   N202      1.0  0.65614  0.82831  0.29849  1.0000
  C   C3663     1.0  0.66821  0.83665  0.30121  1.0000
  C   C3664     1.0  0.66518  0.81130  0.29535  1.0000
  C   C3665     1.0  0.65045  0.83844  0.28286  1.0000
  C   C3666     1.0  0.64117  0.82732  0.31266  1.0000
  C   C3667     1.0  0.64404  0.82471  0.33035  1.0000
  C   C3668     1.0  0.66152  0.85526  0.30197  1.0000
  C   C3669     1.0  0.63886  0.83145  0.27681  1.0000
  C   C3670     1.0  0.67201  0.79831  0.30969  1.0000
  C   C3671     1.0  0.68265  0.78258  0.30390  1.0000
  C   C3672     1.0  0.62936  0.81948  0.34366  1.0000
  C   C3673     1.0  0.67206  0.86124  0.30983  1.0000
  C   C3674     1.0  0.63173  0.84417  0.26278  1.0000
  H   H6489     1.0  0.67945  0.83618  0.29094  1.0000
  H   H6490     1.0  0.67297  0.82995  0.31254  1.0000
  H   H6491     1.0  0.65701  0.80527  0.29207  1.0000
  H   H6492     1.0  0.67573  0.81257  0.28452  1.0000
  H   H6493     1.0  0.66141  0.84021  0.27245  1.0000
  H   H6494     1.0  0.64356  0.85111  0.28451  1.0000
  H   H6495     1.0  0.63134  0.83888  0.31100  1.0000
  H   H6496     1.0  0.63538  0.81728  0.31259  1.0000
  H   H6497     1.0  0.64566  0.83638  0.33227  1.0000
  H   H6498     1.0  0.65523  0.81514  0.33256  1.0000
  H   H6499     1.0  0.66194  0.86297  0.28920  1.0000
  H   H6500     1.0  0.64850  0.85767  0.30904  1.0000
  H   H6501     1.0  0.62833  0.82814  0.28697  1.0000
  H   H6502     1.0  0.64579  0.82027  0.27183  1.0000
  H   H6503     1.0  0.67985  0.80313  0.31467  1.0000
  H   H6504     1.0  0.66160  0.79452  0.31975  1.0000
  H   H6505     1.0  0.67560  0.77742  0.29824  1.0000
  H   H6506     1.0  0.69405  0.78527  0.29471  1.0000
  H   H6507     1.0  0.68650  0.77305  0.31460  1.0000
  H   H6508     1.0  0.62783  0.80731  0.34284  1.0000
  H   H6509     1.0  0.63164  0.81813  0.35611  1.0000
  H   H6510     1.0  0.61772  0.82895  0.34235  1.0000
  H   H6511     1.0  0.67122  0.85470  0.32301  1.0000
  H   H6512     1.0  0.68526  0.85898  0.30309  1.0000
  H   H6513     1.0  0.66753  0.87477  0.30931  1.0000
  H   H6514     1.0  0.62401  0.85552  0.26710  1.0000
  H   H6515     1.0  0.64191  0.84762  0.25219  1.0000
  H   H6516     1.0  0.62383  0.83878  0.25839  1.0000
  H   H6517     1.0  0.70984  0.97637  0.07981  1.0000
  C   C3675     1.0  0.61688  0.76517  0.27578  1.0000
  H   H6518     1.0  0.52236  0.80989  0.24426  1.0000
  C   C3676     1.0  0.62002  0.80122  0.25732  1.0000
  C   C3677     1.0  0.68952  0.78728  0.45147  1.0000
  C   C3678     1.0  0.61439  0.81589  0.24382  1.0000
  H   H6519     1.0  0.63328  0.78073  0.28493  1.0000
  H   H6520     1.0  0.60927  0.76394  0.26780  1.0000
  H   H6521     1.0  0.62898  0.76686  0.26737  1.0000
  C   C3679     1.0  0.68810  0.87579  0.11624  1.0000
  H   H6522     1.0  0.62855  0.79142  0.25109  1.0000
  H   H6523     1.0  0.62714  0.80546  0.26373  1.0000
  H   H6524     1.0  0.71946  0.94780  0.18809  1.0000
  H   H6525     1.0  0.70708  0.78236  0.42923  1.0000
  C   C3680     1.0  0.63350  0.77756  0.31655  1.0000
  H   H6526     1.0  0.60838  0.81194  0.23611  1.0000
  H   H6527     1.0  0.60550  0.82609  0.24932  1.0000
  N   N203      1.0  0.63258  0.75896  0.05306  1.0000
  H   H6528     1.0  0.62878  0.86541  0.12120  1.0000
  H   H6529     1.0  0.69833  0.78117  0.45980  1.0000
  C   C3681     1.0  0.73570  0.73908  0.33848  1.0000
  C   C3682     1.0  0.62438  0.77725  0.05091  1.0000
  C   C3683     1.0  0.63107  0.78901  0.03455  1.0000
  C   C3684     1.0  0.62667  0.73402  0.27878  1.0000
  H   H6530     1.0  0.65452  0.74059  0.19075  1.0000
  H   H6531     1.0  0.67614  0.74093  0.45188  1.0000
  C   C3685     1.0  0.62278  0.80717  0.03484  1.0000
  H   H6532     1.0  0.71268  0.78682  0.40040  1.0000
  N   N204      1.0  0.67536  0.85186  0.09076  1.0000
  H   H6533     1.0  0.57614  0.73324  0.19177  1.0000
  C   C3686     1.0  0.65928  0.75843  0.46588  1.0000
  H   H6534     1.0  0.69093  0.86339  0.06854  1.0000
  H   H6535     1.0  0.61084  0.77918  0.05162  1.0000
  H   H6536     1.0  0.62507  0.78209  0.06140  1.0000
  H   H6537     1.0  0.62840  0.78634  0.02378  1.0000
  H   H6538     1.0  0.64464  0.78778  0.03220  1.0000
  C   C3687     1.0  0.73570  0.83048  0.08205  1.0000
  H   H6539     1.0  0.51022  0.73969  0.27426  1.0000
  H   H6540     1.0  0.70754  0.96129  0.21213  1.0000
  H   H6541     1.0  0.64245  0.75828  0.07389  1.0000
  H   H6542     1.0  0.72203  0.95637  0.14613  1.0000
  H   H6543     1.0  0.65754  0.85088  0.12463  1.0000
  H   H6544     1.0  0.62773  0.81526  0.02300  1.0000
  H   H6545     1.0  0.60913  0.80925  0.03641  1.0000
  H   H6546     1.0  0.62543  0.81083  0.04506  1.0000
  H   H6547     1.0  0.62932  0.84623  0.13636  1.0000
  C   C3688     1.0  0.70011  0.79376  0.39839  1.0000
  H   H6548     1.0  0.68628  0.75360  0.09799  1.0000
  H   H6549     1.0  0.63306  0.77066  0.32960  1.0000
  H   H6550     1.0  0.72152  0.78635  0.99004  1.0000
  C   C3689     1.0  0.63291  0.85170  0.12297  1.0000
  H   H6551     1.0  0.63817  0.73557  0.26920  1.0000
  H   H6552     1.0  0.56487  0.76436  0.31253  1.0000
  H   H6553     1.0  0.69307  0.83399  0.07737  1.0000
  H   H6554     1.0  0.73510  0.95218  0.19541  1.0000
  H   H6555     1.0  0.62284  0.74561  0.08931  1.0000
  H   H6556     1.0  0.60904  0.75176  0.05836  1.0000
  H   H6557     1.0  0.69653  0.73431  0.40297  1.0000
  Fe  Fe421     1.0  0.63663  0.76000  0.40276  1.0000
  C   C3690     1.0  0.67219  0.78791  0.40067  1.0000
  H   H6558     1.0  0.51459  0.79025  0.27010  1.0000
  C   C3691     1.0  0.64477  0.77090  0.46633  1.0000
  C   C3692     1.0  0.68171  0.78623  0.42540  1.0000
  H   H6559     1.0  0.72171  0.74143  0.07892  1.0000
  H   H6560     1.0  0.66444  0.88581  0.04762  1.0000
  S   S830      1.0  0.60412  0.75986  0.36030  1.0000
  H   H6561     1.0  0.70771  0.92626  0.18970  1.0000
  H   H6562     1.0  0.70548  0.92331  0.16215  1.0000
  H   H6563     1.0  0.65702  0.85963  0.06542  1.0000
  H   H6564     1.0  0.65452  0.81216  0.37798  1.0000
  C   C3693     1.0  0.64815  0.81031  0.39123  1.0000
  H   H6565     1.0  0.57608  0.78440  0.27757  1.0000
  H   H6566     1.0  0.65501  0.83301  0.11901  1.0000
  H   H6567     1.0  0.72532  0.82043  0.06770  1.0000
  C   C3694     1.0  0.69919  0.75492  0.09179  1.0000
  H   H6568     1.0  0.71528  0.79565  0.20447  1.0000
  H   H6569     1.0  0.66669  0.87069  0.03581  1.0000
  C   C3695     1.0  0.59240  0.77808  0.29540  1.0000
  H   H6570     1.0  0.49290  0.73591  0.22090  1.0000
  C   C3696     1.0  0.73239  0.95503  0.13570  1.0000
  H   H6571     1.0  0.68554  0.88902  0.11690  1.0000
  C   C3697     1.0  0.70654  0.91263  0.17287  1.0000
  C   C3698     1.0  0.62016  0.78371  0.29188  1.0000
  H   H6572     1.0  0.69129  0.76298  0.38516  1.0000
  C   C3699     1.0  0.51212  0.78858  0.25878  1.0000
  C   C3700     1.0  0.67997  0.87408  0.10326  1.0000
  H   H6573     1.0  0.60926  0.76494  0.08209  1.0000
  H   H6574     1.0  0.67314  0.82943  0.08521  1.0000
  S   S831      1.0  0.68461  0.75987  0.35222  1.0000
  H   H6575     1.0  0.52289  0.78009  0.25276  1.0000
  H   H6576     1.0  0.68309  0.86864  0.12866  1.0000
  H   H6577     1.0  0.66635  0.87811  0.10743  1.0000
  H   H6578     1.0  0.70201  0.79003  0.37329  1.0000
  H   H6579     1.0  0.65063  0.84936  0.09184  1.0000
  H   H6580     1.0  0.63953  0.82217  0.39344  1.0000
  C   C3701     1.0  0.58754  0.74832  0.34406  1.0000
  H   H6581     1.0  0.70513  0.75704  0.10073  1.0000
  C   C3702     1.0  0.66075  0.80516  0.40222  1.0000
  C   C3703     1.0  0.71564  0.91554  0.18441  1.0000
  H   H6582     1.0  0.65732  0.77701  0.05300  1.0000
  H   H6583     1.0  0.60755  0.78059  0.31822  1.0000
  C   C3704     1.0  0.73667  0.97684  0.07403  1.0000
  H   H6584     1.0  0.67714  0.79974  0.42523  1.0000
  C   C3705     1.0  0.70914  0.73939  0.08530  1.0000
  H   H6585     1.0  0.64759  0.81050  0.97528  1.0000
  H   H6586     1.0  0.62876  0.73538  0.34342  1.0000
  S   S832      1.0  0.72055  0.76645  0.04431  1.0000
  C   C3706     1.0  0.70113  0.75930  0.39232  1.0000
  H   H6587     1.0  0.62017  0.76171  0.31282  1.0000
  C   C3707     1.0  0.71354  0.94787  0.21413  1.0000
  C   C3708     1.0  0.65174  0.84670  0.11693  1.0000
  H   H6588     1.0  0.66807  0.81488  0.39888  1.0000
  H   H6589     1.0  0.62638  0.84716  0.11618  1.0000
  C   C3709     1.0  0.68190  0.73250  0.32250  1.0000
  H   H6590     1.0  0.59812  0.79197  0.26169  1.0000
  N   N205      1.0  0.62806  0.79254  0.15242  1.0000
  C   C3710     1.0  0.61821  0.78641  0.16945  1.0000
  C   C3711     1.0  0.63251  0.80845  0.15216  1.0000
  C   C3712     1.0  0.61812  0.79606  0.13941  1.0000
  C   C3713     1.0  0.64334  0.77919  0.14869  1.0000
  C   C3714     1.0  0.65650  0.78405  0.13285  1.0000
  C   C3715     1.0  0.61045  0.77146  0.17142  1.0000
  C   C3716     1.0  0.60077  0.80789  0.14249  1.0000
  C   C3717     1.0  0.64380  0.80709  0.16394  1.0000
  C   C3718     1.0  0.64782  0.82379  0.16238  1.0000
  C   C3719     1.0  0.67085  0.76916  0.13019  1.0000
  C   C3720     1.0  0.60045  0.76681  0.18905  1.0000
  C   C3721     1.0  0.59171  0.81007  0.12881  1.0000
  H   H6591     1.0  0.60819  0.79667  0.17380  1.0000
  H   H6592     1.0  0.62626  0.78231  0.17860  1.0000
  H   H6593     1.0  0.63842  0.81411  0.13939  1.0000
  H   H6594     1.0  0.62109  0.81777  0.15582  1.0000
  H   H6595     1.0  0.61642  0.78429  0.13775  1.0000
  H   H6596     1.0  0.62503  0.80170  0.12710  1.0000
  H   H6597     1.0  0.64968  0.77443  0.15928  1.0000
  H   H6598     1.0  0.63977  0.76823  0.14726  1.0000
  H   H6599     1.0  0.66181  0.79407  0.13381  1.0000
  H   H6600     1.0  0.65109  0.78829  0.12172  1.0000
  H   H6601     1.0  0.60191  0.77429  0.16295  1.0000
  H   H6602     1.0  0.62025  0.76038  0.16888  1.0000
  H   H6603     1.0  0.60188  0.82040  0.14265  1.0000
  H   H6604     1.0  0.59277  0.80303  0.15439  1.0000
  H   H6605     1.0  0.63739  0.80322  0.17697  1.0000
  H   H6606     1.0  0.65573  0.79810  0.16127  1.0000
  H   H6607     1.0  0.65604  0.82745  0.15019  1.0000
  H   H6608     1.0  0.63630  0.83356  0.16410  1.0000
  H   H6609     1.0  0.67692  0.76450  0.14094  1.0000
  H   H6610     1.0  0.66633  0.75895  0.12844  1.0000
  H   H6611     1.0  0.68025  0.77288  0.11898  1.0000
  H   H6612     1.0  0.59425  0.75678  0.18991  1.0000
  H   H6613     1.0  0.60872  0.76240  0.19801  1.0000
  H   H6614     1.0  0.59072  0.77765  0.19248  1.0000
  H   H6615     1.0  0.59867  0.81602  0.11672  1.0000
  H   H6616     1.0  0.59027  0.79787  0.12798  1.0000
  H   H6617     1.0  0.57917  0.81815  0.13154  1.0000
  C   C3722     1.0  0.56290  0.77438  0.30147  1.0000
  Fe  Fe422     1.0  0.70710  0.79288  0.03695  1.0000
  C   C3723     1.0  0.51144  0.75094  0.24829  1.0000
  H   H6618     1.0  0.72498  0.74176  0.34883  1.0000
  C   C3724     1.0  0.72605  0.94419  0.19839  1.0000
  C   C3725     1.0  0.72224  0.83355  0.20575  1.0000
  H   H6619     1.0  0.62315  0.73394  0.24255  1.0000
  C   C3726     1.0  0.69405  0.80364  0.09953  1.0000
  C   C3727     1.0  0.71747  0.79744  0.21589  1.0000
  C   C3728     1.0  0.72351  0.85115  0.19509  1.0000
  H   H6620     1.0  0.72141  0.78146  0.23974  1.0000
  C   C3729     1.0  0.71828  0.78076  0.22830  1.0000
  S   S833      1.0  0.63019  0.77299  0.42430  1.0000
  H   H6621     1.0  0.69871  0.76591  0.08132  1.0000
  C   C3730     1.0  0.70977  0.86444  0.20243  1.0000
  C   C3731     1.0  0.73175  0.78526  0.97891  1.0000
  N   N206      1.0  0.60867  0.78008  0.28340  1.0000
  H   H6622     1.0  0.64629  0.74023  0.03895  1.0000
  H   H6623     1.0  0.67172  0.75708  0.07467  1.0000
  H   H6624     1.0  0.72250  0.83342  0.21863  1.0000
  H   H6625     1.0  0.70955  0.83205  0.20655  1.0000
  H   H6626     1.0  0.51112  0.76322  0.23964  1.0000
  H   H6627     1.0  0.73683  0.75067  0.32898  1.0000
  H   H6628     1.0  0.69639  0.76592  0.44075  1.0000
  C   C3732     1.0  0.51331  0.75993  0.29575  1.0000
  H   H6629     1.0  0.70657  0.80645  0.22105  1.0000
  H   H6630     1.0  0.68422  0.88268  0.09151  1.0000
  H   H6631     1.0  0.72228  0.85225  0.18235  1.0000
  H   H6632     1.0  0.53849  0.74347  0.24184  1.0000
  C   C3733     1.0  0.65698  0.85446  0.09834  1.0000
  C   C3734     1.0  0.61322  0.75154  0.08188  1.0000
  H   H6633     1.0  0.73552  0.85409  0.19431  1.0000
  C   C3735     1.0  0.64123  0.76674  0.44050  1.0000
  H   H6634     1.0  0.70108  0.82390  0.10372  1.0000
  H   H6635     1.0  0.69841  0.79463  0.11030  1.0000
  C   C3736     1.0  0.52742  0.73914  0.24184  1.0000
  H   H6636     1.0  0.52171  0.76779  0.28725  1.0000
  H   H6637     1.0  0.59424  0.76778  0.30627  1.0000
  C   C3737     1.0  0.67170  0.87357  0.04502  1.0000
  C   C3738     1.0  0.63590  0.77513  0.45361  1.0000
  H   H6638     1.0  0.71123  0.86466  0.21479  1.0000
  H   H6639     1.0  0.71043  0.87679  0.19414  1.0000
  H   H6640     1.0  0.69736  0.86207  0.20367  1.0000
  C   C3739     1.0  0.64681  0.75484  0.06163  1.0000
  H   H6641     1.0  0.68586  0.75770  0.41717  1.0000
  H   H6642     1.0  0.66432  0.77859  0.40683  1.0000
  C   C3740     1.0  0.73449  0.85999  0.07375  1.0000
  H   H6643     1.0  0.73722  0.87102  0.07521  1.0000
  H   H6644     1.0  0.64777  0.76058  0.02811  1.0000
  H   H6645     1.0  0.72775  0.77089  0.22277  1.0000
  C   C3741     1.0  0.66698  0.73811  0.31435  1.0000
  C   C3742     1.0  0.62005  0.74890  0.06391  1.0000
  H   H6646     1.0  0.50099  0.74589  0.24795  1.0000
  H   H6647     1.0  0.72574  0.80030  0.16338  1.0000
  C   C3743     1.0  0.63252  0.75343  0.00966  1.0000
  Fe  Fe423     1.0  0.73689  0.80015  0.28399  1.0000
  H   H6648     1.0  0.71075  0.73656  0.38315  1.0000
  C   C3744     1.0  0.60287  0.74715  0.34771  1.0000
  N   N207      1.0  0.73514  0.81934  0.19964  1.0000
  N   N208      1.0  0.49611  0.76484  0.27325  1.0000
  H   H6649     1.0  0.52790  0.73870  0.22894  1.0000
  H   H6650     1.0  0.60962  0.74582  0.29750  1.0000
  H   H6651     1.0  0.66622  0.76231  0.03970  1.0000
  H   H6652     1.0  0.49243  0.78354  0.25106  1.0000
  C   C3745     1.0  0.62073  0.74827  0.28786  1.0000
  H   H6653     1.0  0.63739  0.76478  0.00308  1.0000
  C   C3746     1.0  0.73365  0.80365  0.21271  1.0000
  H   H6654     1.0  0.72640  0.91800  0.20860  1.0000
  H   H6655     1.0  0.72112  0.97206  0.06013  1.0000
  H   H6656     1.0  0.65558  0.74219  0.32347  1.0000
  C   C3747     1.0  0.73634  0.94095  0.12876  1.0000
  C   C3748     1.0  0.73536  0.92571  0.20085  1.0000
  H   H6657     1.0  0.63969  0.73509  0.22417  1.0000
  C   C3749     1.0  0.72791  0.83144  0.06929  1.0000
  C   C3750     1.0  0.72706  0.86088  0.06077  1.0000
  C   C3751     1.0  0.73294  0.91923  0.17495  1.0000
  C   C3752     1.0  0.73850  0.80241  0.16068  1.0000
  H   H6658     1.0  0.68117  0.74325  0.06049  1.0000
  H   H6659     1.0  0.65189  0.74115  0.06422  1.0000
  H   H6660     1.0  0.64267  0.74227  0.00828  1.0000
  H   H6661     1.0  0.62546  0.73535  0.06476  1.0000
  H   H6662     1.0  0.68053  0.77283  0.97535  1.0000
  H   H6663     1.0  0.50025  0.81481  0.25224  1.0000
  H   H6664     1.0  0.65785  0.73868  0.16184  1.0000
  H   H6665     1.0  0.73915  0.91009  0.16699  1.0000
  H   H6666     1.0  0.73472  0.82915  0.17371  1.0000
  H   H6667     1.0  0.70702  0.73421  0.33542  1.0000
  H   H6668     1.0  0.73763  0.73716  0.29415  1.0000
  H   H6669     1.0  0.61689  0.73349  0.27291  1.0000
  S   S834      1.0  0.64946  0.73774  0.36583  1.0000
  C   C3753     1.0  0.72414  0.95154  0.08071  1.0000
  C   C3754     1.0  0.58604  0.73803  0.33453  1.0000
  C   C3755     1.0  0.66774  0.73236  0.16824  1.0000
  H   H6670     1.0  0.66870  0.74865  0.30359  1.0000
  H   H6671     1.0  0.49000  0.75393  0.29952  1.0000
  H   H6672     1.0  0.72685  0.77800  0.07741  1.0000
  H   H6673     1.0  0.57407  0.73867  0.33229  1.0000
  H   H6674     1.0  0.58180  0.74133  0.39756  1.0000
  H   H6675     1.0  0.65741  0.76127  0.97549  1.0000
  C   C3756     1.0  0.73836  0.76834  0.07874  1.0000
  H   H6676     1.0  0.68240  0.74290  0.32752  1.0000
  H   H6677     1.0  0.50505  0.77510  0.31432  1.0000
  H   H6678     1.0  0.50382  0.75348  0.32241  1.0000
  S   S835      1.0  0.69876  0.82223  0.98078  1.0000
  C   C3757     1.0  0.72192  0.97014  0.07319  1.0000
  H   H6679     1.0  0.73912  0.78418  0.01410  1.0000
  H   H6680     1.0  0.73621  0.94459  0.07460  1.0000
  H   H6681     1.0  0.73361  0.92602  0.78355  1.0000
  H   H6682     1.0  0.62205  0.81897  0.53180  1.0000
  Fe  Fe424     1.0  0.67535  0.74814  0.53885  1.0000
  S   S836      1.0  0.68761  0.76221  0.51466  1.0000
  N   N209      1.0  0.55001  0.75434  0.60268  1.0000
  Fe  Fe425     1.0  0.64140  0.77039  0.53689  1.0000
  S   S837      1.0  0.65115  0.78606  0.51226  1.0000
  S   S838      1.0  0.61487  0.77819  0.55050  1.0000
  Fe  Fe426     1.0  0.66559  0.76178  0.50536  1.0000
  Fe  Fe427     1.0  0.67209  0.78488  0.52397  1.0000
  S   S839      1.0  0.68149  0.80742  0.52308  1.0000
  S   S840      1.0  0.65427  0.74607  0.52935  1.0000
  S   S841      1.0  0.66142  0.77081  0.54865  1.0000
  Fe  Fe428     1.0  0.56876  0.76411  0.68276  1.0000
  S   S842      1.0  0.54536  0.78289  0.67892  1.0000
  C   C3758     1.0  0.62202  0.91548  0.80594  1.0000
  Fe  Fe429     1.0  0.58274  0.76659  0.64573  1.0000
  S   S843      1.0  0.56049  0.78548  0.63886  1.0000
  S   S844      1.0  0.60538  0.75549  0.62841  1.0000
  Fe  Fe430     1.0  0.56274  0.79675  0.65878  1.0000
  S   S845      1.0  0.56231  0.82393  0.65422  1.0000
  Fe  Fe431     1.0  0.54526  0.76972  0.65966  1.0000
  S   S846      1.0  0.52466  0.75726  0.66043  1.0000
  S   S847      1.0  0.58602  0.77889  0.66407  1.0000
  C   C3759     1.0  0.66852  0.85700  0.93549  1.0000
  Fe  Fe432     1.0  0.68567  0.93376  0.78507  1.0000
  S   S848      1.0  0.69852  0.91593  0.80456  1.0000
  S   S849      1.0  0.68367  0.96165  0.77726  1.0000
  Fe  Fe433     1.0  0.68203  0.90543  0.77123  1.0000
  S   S850      1.0  0.69437  0.88571  0.78985  1.0000
  S   S851      1.0  0.67986  0.89731  0.74923  1.0000
  Fe  Fe434     1.0  0.67913  0.90140  0.80798  1.0000
  S   S852      1.0  0.66513  0.88946  0.83280  1.0000
  Fe  Fe435     1.0  0.71246  0.90193  0.78453  1.0000
  H   H6683     1.0  0.64469  0.75392  0.71461  1.0000
  S   S853      1.0  0.66513  0.92025  0.78969  1.0000
  S   S854      1.0  0.70101  0.92069  0.76495  1.0000
  Fe  Fe436     1.0  0.68420  0.79979  0.88320  1.0000
  S   S855      1.0  0.65703  0.80741  0.89388  1.0000
  S   S856      1.0  0.69885  0.81523  0.86149  1.0000
  Fe  Fe437     1.0  0.68712  0.76627  0.90712  1.0000
  S   S857      1.0  0.66006  0.77121  0.91916  1.0000
  H   H6684     1.0  0.72861  0.86968  0.65774  1.0000
  Fe  Fe438     1.0  0.65620  0.78162  0.89313  1.0000
  S   S858      1.0  0.63651  0.77898  0.88158  1.0000
  Fe  Fe439     1.0  0.66393  0.79624  0.91866  1.0000
  S   S859      1.0  0.65349  0.80718  0.94165  1.0000
  S   S860      1.0  0.68308  0.77462  0.88118  1.0000
  S   S861      1.0  0.69125  0.79062  0.90796  1.0000
  C   C3760     1.0  0.66253  0.80440  0.76853  1.0000
  H   H6685     1.0  0.69620  0.88121  0.65610  1.0000
  H   H6686     1.0  0.72544  0.75434  0.93364  1.0000
  H   H6687     1.0  0.54793  0.77763  0.58453  1.0000
  H   H6688     1.0  0.60825  0.91779  0.80931  1.0000
  N   N210      1.0  0.52157  0.73511  0.72341  1.0000
  Fe  Fe440     1.0  0.70042  0.82760  0.60074  1.0000
  S   S862      1.0  0.71470  0.80162  0.60762  1.0000
  S   S863      1.0  0.68059  0.83299  0.58598  1.0000
  Fe  Fe441     1.0  0.70909  0.80634  0.63314  1.0000
  S   S864      1.0  0.70158  0.78725  0.65583  1.0000
  S   S865      1.0  0.69310  0.83152  0.62683  1.0000
  Fe  Fe442     1.0  0.61713  0.84459  0.70328  1.0000
  S   S866      1.0  0.62647  0.81850  0.71618  1.0000
  S   S867      1.0  0.61194  0.85110  0.67758  1.0000
  Fe  Fe443     1.0  0.61965  0.85940  0.73073  1.0000
  S   S868      1.0  0.62929  0.83448  0.74563  1.0000
  S   S869      1.0  0.61483  0.88103  0.74281  1.0000
  Fe  Fe444     1.0  0.64506  0.82900  0.72156  1.0000
  S   S870      1.0  0.67116  0.81438  0.72143  1.0000
  Fe  Fe445     1.0  0.60988  0.82632  0.73905  1.0000
  S   S871      1.0  0.59532  0.80920  0.75839  1.0000
  S   S872      1.0  0.63726  0.85469  0.70692  1.0000
  S   S873      1.0  0.59876  0.85166  0.72586  1.0000
  H   H6689     1.0  0.68282  0.93882  0.66314  1.0000
  C   C3761     1.0  0.65225  0.74792  0.87479  1.0000
  C   C3762     1.0  0.69359  0.79528  0.67383  1.0000
  C   C3763     1.0  0.68442  0.81162  0.67322  1.0000
  C   C3764     1.0  0.67714  0.81742  0.68789  1.0000
  C   C3765     1.0  0.67981  0.80718  0.70308  1.0000
  C   C3766     1.0  0.68946  0.79106  0.70365  1.0000
  C   C3767     1.0  0.69600  0.78499  0.68910  1.0000
  H   H6690     1.0  0.68246  0.81964  0.66154  1.0000
  H   H6691     1.0  0.66958  0.82984  0.68743  1.0000
  H   H6692     1.0  0.69144  0.78309  0.71540  1.0000
  H   H6693     1.0  0.70304  0.77235  0.68964  1.0000
  C   C3768     1.0  0.63039  0.75964  0.77224  1.0000
  C   C3769     1.0  0.61329  0.76139  0.77860  1.0000
  C   C3770     1.0  0.60248  0.77670  0.77445  1.0000
  C   C3771     1.0  0.60880  0.79022  0.76397  1.0000
  C   C3772     1.0  0.62591  0.78846  0.75771  1.0000
  C   C3773     1.0  0.63668  0.77316  0.76180  1.0000
  H   H6694     1.0  0.60835  0.75094  0.78664  1.0000
  H   H6695     1.0  0.58924  0.77804  0.77929  1.0000
  H   H6696     1.0  0.63089  0.79883  0.74965  1.0000
  H   H6697     1.0  0.64992  0.77184  0.75694  1.0000
  C   C3774     1.0  0.65309  0.73374  0.86911  1.0000
  C   C3775     1.0  0.70200  0.91008  0.65270  1.0000
  N   N211      1.0  0.70983  0.83759  0.72615  1.0000
  H   H6698     1.0  0.73027  0.82868  0.74805  1.0000
  H   H6699     1.0  0.72739  0.83694  0.69256  1.0000
  C   C3776     1.0  0.66656  0.81006  0.95287  1.0000
  N   N212      1.0  0.73406  0.74738  0.56858  1.0000
  H   H6700     1.0  0.66461  0.77255  0.95493  1.0000
  C   C3777     1.0  0.69252  0.84627  0.90519  1.0000
  C   C3778     1.0  0.69248  0.81549  0.95406  1.0000
  C   C3779     1.0  0.68286  0.81165  0.94536  1.0000
  S   S874      1.0  0.71634  0.86006  0.63485  1.0000
  H   H6701     1.0  0.64703  0.85629  0.58475  1.0000
  H   H6702     1.0  0.70489  0.81727  0.94795  1.0000
  H   H6703     1.0  0.68787  0.81041  0.93270  1.0000
  C   C3780     1.0  0.63840  0.76113  0.87411  1.0000
  C   C3781     1.0  0.62560  0.76015  0.86743  1.0000
  C   C3782     1.0  0.72755  0.74979  0.89039  1.0000
  C   C3783     1.0  0.70349  0.90479  0.68658  1.0000
  H   H6704     1.0  0.68068  0.84952  0.93809  1.0000
  H   H6705     1.0  0.70639  0.88567  0.70899  1.0000
  H   H6706     1.0  0.61477  0.77023  0.86703  1.0000
  H   H6707     1.0  0.72220  0.81779  0.88402  1.0000
  H   H6708     1.0  0.66940  0.87662  0.94661  1.0000
  H   H6709     1.0  0.64456  0.96052  0.79368  1.0000
  C   C3784     1.0  0.68432  0.89024  0.65922  1.0000
  H   H6710     1.0  0.62560  0.74760  0.70721  1.0000
  H   H6711     1.0  0.51308  0.74949  0.70106  1.0000
  C   C3785     1.0  0.55645  0.74756  0.61842  1.0000
  C   C3786     1.0  0.69126  0.97776  0.81441  1.0000
  C   C3787     1.0  0.66135  0.89380  0.74736  1.0000
  C   C3788     1.0  0.64632  0.89771  0.75852  1.0000
  C   C3789     1.0  0.63191  0.89420  0.75676  1.0000
  C   C3790     1.0  0.63269  0.88621  0.74429  1.0000
  C   C3791     1.0  0.64771  0.88239  0.73313  1.0000
  C   C3792     1.0  0.66193  0.88647  0.73449  1.0000
  H   H6712     1.0  0.64580  0.90359  0.76831  1.0000
  H   H6713     1.0  0.62019  0.89749  0.76517  1.0000
  H   H6714     1.0  0.64831  0.87644  0.72337  1.0000
  H   H6715     1.0  0.67350  0.88353  0.72578  1.0000
  C   C3793     1.0  0.67455  0.86880  0.84047  1.0000
  C   C3794     1.0  0.66538  0.85899  0.85362  1.0000
  C   C3795     1.0  0.67257  0.84241  0.85989  1.0000
  C   C3796     1.0  0.68914  0.83569  0.85333  1.0000
  C   C3797     1.0  0.69834  0.84557  0.84025  1.0000
  C   C3798     1.0  0.69106  0.86206  0.83378  1.0000
  H   H6716     1.0  0.65271  0.86428  0.85900  1.0000
  H   H6717     1.0  0.66532  0.83492  0.86984  1.0000
  H   H6718     1.0  0.71119  0.84050  0.83515  1.0000
  H   H6719     1.0  0.69835  0.86964  0.82385  1.0000
  C   C3799     1.0  0.57656  0.83040  0.66122  1.0000
  C   C3800     1.0  0.58355  0.82105  0.67481  1.0000
  C   C3801     1.0  0.59411  0.82739  0.68038  1.0000
  C   C3802     1.0  0.59801  0.84283  0.67208  1.0000
  C   C3803     1.0  0.59150  0.85173  0.65819  1.0000
  C   C3804     1.0  0.58065  0.84570  0.65298  1.0000
  H   H6720     1.0  0.58040  0.80923  0.68129  1.0000
  H   H6721     1.0  0.59928  0.82042  0.69100  1.0000
  H   H6722     1.0  0.59457  0.86357  0.65162  1.0000
  H   H6723     1.0  0.57533  0.85301  0.64252  1.0000
  C   C3805     1.0  0.68301  0.81321  0.54079  1.0000
  C   C3806     1.0  0.68356  0.80210  0.55616  1.0000
  C   C3807     1.0  0.68411  0.80774  0.56995  1.0000
  C   C3808     1.0  0.68404  0.82450  0.56842  1.0000
  C   C3809     1.0  0.68370  0.83539  0.55302  1.0000
  C   C3810     1.0  0.68342  0.82975  0.53930  1.0000
  H   H6724     1.0  0.68332  0.78928  0.55745  1.0000
  H   H6725     1.0  0.68407  0.79928  0.58186  1.0000
  H   H6726     1.0  0.68329  0.84839  0.55175  1.0000
  H   H6727     1.0  0.68307  0.83842  0.52752  1.0000
  C   C3811     1.0  0.61220  0.77209  0.57215  1.0000
  C   C3812     1.0  0.59823  0.78002  0.58238  1.0000
  C   C3813     1.0  0.59599  0.77514  0.59971  1.0000
  C   C3814     1.0  0.60767  0.76223  0.60683  1.0000
  C   C3815     1.0  0.62159  0.75437  0.59658  1.0000
  C   C3816     1.0  0.62387  0.75928  0.57930  1.0000
  H   H6728     1.0  0.58915  0.78990  0.57688  1.0000
  H   H6729     1.0  0.58528  0.78134  0.60753  1.0000
  C   C3817     1.0  0.68621  0.81700  0.97061  1.0000
  H   H6730     1.0  0.63458  0.75298  0.57153  1.0000
  H   H6731     1.0  0.61015  0.73494  0.76424  1.0000
  C   C3818     1.0  0.49939  0.75271  0.64977  1.0000
  H   H6732     1.0  0.50282  0.73993  0.65614  1.0000
  C   C3819     1.0  0.61246  0.73846  0.73769  1.0000
  H   H6733     1.0  0.70877  0.81565  0.74615  1.0000
  C   C3820     1.0  0.70748  0.84326  0.68003  1.0000
  H   H6734     1.0  0.69883  0.76418  0.84923  1.0000
  H   H6735     1.0  0.69138  0.97320  0.82742  1.0000
  H   H6736     1.0  0.73578  0.83685  0.71435  1.0000
  C   C3821     1.0  0.68871  0.96748  0.80549  1.0000
  C   C3822     1.0  0.72585  0.84304  0.72336  1.0000
  H   H6737     1.0  0.60477  0.76195  0.74534  1.0000
  H   H6738     1.0  0.66537  0.79588  0.75997  1.0000
  C   C3823     1.0  0.73087  0.93969  0.78208  1.0000
  H   H6739     1.0  0.68680  0.95513  0.81165  1.0000
  N   N213      1.0  0.63241  0.86681  0.81424  1.0000
  C   C3824     1.0  0.62424  0.85629  0.80887  1.0000
  C   C3825     1.0  0.62906  0.86297  0.83294  1.0000
  C   C3826     1.0  0.62411  0.88478  0.80866  1.0000
  C   C3827     1.0  0.65084  0.86460  0.80681  1.0000
  C   C3828     1.0  0.66047  0.84702  0.80417  1.0000
  C   C3829     1.0  0.62351  0.86108  0.79031  1.0000
  C   C3830     1.0  0.62963  0.89782  0.81412  1.0000
  C   C3831     1.0  0.63532  0.84479  0.84173  1.0000
  C   C3832     1.0  0.62776  0.84181  0.86032  1.0000
  C   C3833     1.0  0.67917  0.84610  0.79884  1.0000
  C   C3834     1.0  0.61895  0.84753  0.78520  1.0000
  H   H6740     1.0  0.61119  0.85695  0.81609  1.0000
  H   H6741     1.0  0.63036  0.84298  0.81166  1.0000
  H   H6742     1.0  0.63500  0.87051  0.83725  1.0000
  H   H6743     1.0  0.61545  0.86661  0.83804  1.0000
  H   H6744     1.0  0.62658  0.88839  0.79491  1.0000
  H   H6745     1.0  0.65319  0.87311  0.79442  1.0000
  H   H6746     1.0  0.65708  0.86839  0.81450  1.0000
  H   H6747     1.0  0.65659  0.84394  0.79433  1.0000
  H   H6748     1.0  0.65826  0.83723  0.81541  1.0000
  H   H6749     1.0  0.61376  0.87252  0.78794  1.0000
  H   H6750     1.0  0.63554  0.86344  0.78225  1.0000
  H   H6751     1.0  0.64330  0.89623  0.81053  1.0000
  H   H6752     1.0  0.62557  0.89678  0.82770  1.0000
  H   H6753     1.0  0.63211  0.83561  0.83699  1.0000
  H   H6754     1.0  0.64898  0.84218  0.84023  1.0000
  H   H6755     1.0  0.63331  0.82904  0.86642  1.0000
  H   H6756     1.0  0.63022  0.85076  0.86601  1.0000
  H   H6757     1.0  0.61414  0.84302  0.86264  1.0000
  H   H6758     1.0  0.68376  0.84851  0.80863  1.0000
  H   H6759     1.0  0.68578  0.83352  0.79673  1.0000
  H   H6760     1.0  0.68213  0.85535  0.78717  1.0000
  H   H6761     1.0  0.60731  0.84429  0.79345  1.0000
  H   H6762     1.0  0.61687  0.85217  0.77241  1.0000
  H   H6763     1.0  0.62915  0.83628  0.78544  1.0000
  H   H6764     1.0  0.63795  0.80082  0.77951  1.0000
  H   H6765     1.0  0.73007  0.76747  0.58095  1.0000
  H   H6766     1.0  0.61583  0.84873  0.56707  1.0000
  N   N214      1.0  0.61044  0.76824  0.71847  1.0000
  C   C3835     1.0  0.73915  0.77874  0.91383  1.0000
  H   H6767     1.0  0.66141  0.91257  0.67521  1.0000
  H   H6768     1.0  0.71574  0.93428  0.62740  1.0000
  H   H6769     1.0  0.62604  0.92452  0.81022  1.0000
  H   H6770     1.0  0.68041  0.87450  0.91621  1.0000
  H   H6771     1.0  0.73488  0.97669  0.73908  1.0000
  H   H6772     1.0  0.71492  0.83682  0.66992  1.0000
  C   C3836     1.0  0.63270  0.83170  0.54430  1.0000
  H   H6773     1.0  0.62615  0.73638  0.73502  1.0000
  C   C3837     1.0  0.52117  0.76415  0.72704  1.0000
  N   N215      1.0  0.63913  0.81534  0.63354  1.0000
  C   C3838     1.0  0.64779  0.82968  0.62620  1.0000
  C   C3839     1.0  0.64976  0.79991  0.62763  1.0000
  C   C3840     1.0  0.62323  0.82009  0.62737  1.0000
  C   C3841     1.0  0.63455  0.81203  0.65214  1.0000
  C   C3842     1.0  0.64905  0.80734  0.66107  1.0000
  C   C3843     1.0  0.63842  0.84640  0.63127  1.0000
  C   C3844     1.0  0.61312  0.80637  0.63185  1.0000
  C   C3845     1.0  0.66888  0.79697  0.62534  1.0000
  C   C3846     1.0  0.67753  0.77961  0.62232  1.0000
  C   C3847     1.0  0.64266  0.80919  0.67896  1.0000
  C   C3848     1.0  0.64884  0.85958  0.62371  1.0000
  C   C3849     1.0  0.59865  0.81197  0.62307  1.0000
  H   H6774     1.0  0.65058  0.83195  0.61244  1.0000
  H   H6775     1.0  0.66006  0.82672  0.62938  1.0000
  H   H6776     1.0  0.64573  0.78864  0.63607  1.0000
  H   H6777     1.0  0.64797  0.80013  0.61526  1.0000
  H   H6778     1.0  0.62591  0.82445  0.61368  1.0000
  H   H6779     1.0  0.61450  0.83069  0.63242  1.0000
  H   H6780     1.0  0.62536  0.82282  0.65634  1.0000
  H   H6781     1.0  0.62802  0.80160  0.65721  1.0000
  H   H6782     1.0  0.65819  0.81527  0.65522  1.0000
  H   H6783     1.0  0.65543  0.79415  0.66118  1.0000
  H   H6784     1.0  0.62662  0.85133  0.62696  1.0000
  H   H6785     1.0  0.63569  0.84500  0.64489  1.0000
  H   H6786     1.0  0.60776  0.80368  0.64535  1.0000
  H   H6787     1.0  0.62080  0.79465  0.62832  1.0000
  H   H6788     1.0  0.67386  0.80603  0.61441  1.0000
  H   H6789     1.0  0.67254  0.79832  0.63614  1.0000
  H   H6790     1.0  0.67511  0.77803  0.61091  1.0000
  H   H6791     1.0  0.69114  0.77785  0.62077  1.0000
  H   H6792     1.0  0.67317  0.76997  0.63302  1.0000
  H   H6793     1.0  0.63991  0.82249  0.67940  1.0000
  H   H6794     1.0  0.63119  0.80437  0.68468  1.0000
  H   H6795     1.0  0.65224  0.80231  0.68622  1.0000
  H   H6796     1.0  0.64152  0.87161  0.62682  1.0000
  H   H6797     1.0  0.66019  0.85599  0.62881  1.0000
  H   H6798     1.0  0.65251  0.86127  0.61003  1.0000
  H   H6799     1.0  0.59093  0.80250  0.62745  1.0000
  H   H6800     1.0  0.59070  0.82394  0.62579  1.0000
  H   H6801     1.0  0.60319  0.81344  0.60951  1.0000
  C   C3850     1.0  0.59617  0.78250  0.71452  1.0000
  C   C3851     1.0  0.58798  0.79324  0.72772  1.0000
  C   C3852     1.0  0.57159  0.80471  0.72437  1.0000
  H   H6802     1.0  0.58630  0.77780  0.71228  1.0000
  H   H6803     1.0  0.60018  0.79136  0.70292  1.0000
  H   H6804     1.0  0.60245  0.74038  0.56692  1.0000
  H   H6805     1.0  0.59634  0.80120  0.72737  1.0000
  H   H6806     1.0  0.58528  0.78563  0.74044  1.0000
  H   H6807     1.0  0.56255  0.79736  0.72497  1.0000
  H   H6808     1.0  0.56625  0.81236  0.73389  1.0000
  H   H6809     1.0  0.57356  0.81322  0.71204  1.0000
  C   C3853     1.0  0.72769  0.76142  0.94158  1.0000
  H   H6810     1.0  0.63684  0.84254  0.89603  1.0000
  H   H6811     1.0  0.68109  0.85886  0.65941  1.0000
  C   C3854     1.0  0.69816  0.76355  0.95432  1.0000
  H   H6812     1.0  0.71954  0.94058  0.70852  1.0000
  H   H6813     1.0  0.67353  0.83736  0.76915  1.0000
  C   C3855     1.0  0.62408  0.77535  0.71984  1.0000
  H   H6814     1.0  0.70050  0.90513  0.62942  1.0000
  H   H6815     1.0  0.51331  0.77181  0.71817  1.0000
  H   H6816     1.0  0.72272  0.95850  0.73363  1.0000
  C   C3856     1.0  0.70332  0.89940  0.70504  1.0000
  H   H6817     1.0  0.71651  0.92168  0.72349  1.0000
  C   C3857     1.0  0.73486  0.95165  0.72745  1.0000
  H   H6818     1.0  0.65456  0.95032  0.65737  1.0000
  C   C3858     1.0  0.66121  0.86807  0.94807  1.0000
  H   H6819     1.0  0.69495  0.77638  0.94695  1.0000
  C   C3859     1.0  0.57913  0.74858  0.58329  1.0000
  H   H6820     1.0  0.57467  0.82423  0.57233  1.0000
  H   H6821     1.0  0.66052  0.85988  0.67236  1.0000
  H   H6822     1.0  0.72029  0.94512  0.76085  1.0000
  H   H6823     1.0  0.50900  0.73233  0.62361  1.0000
  H   H6824     1.0  0.55235  0.80229  0.60333  1.0000
  H   H6825     1.0  0.71646  0.90081  0.67978  1.0000
  C   C3860     1.0  0.65449  0.77185  0.71959  1.0000
  H   H6826     1.0  0.72439  0.85654  0.71746  1.0000
  H   H6827     1.0  0.70797  0.85655  0.67589  1.0000
  H   H6828     1.0  0.69821  0.88349  0.68297  1.0000
  H   H6829     1.0  0.64865  0.87541  0.94655  1.0000
  H   H6830     1.0  0.54192  0.74260  0.72742  1.0000
  H   H6831     1.0  0.64119  0.82388  0.50468  1.0000
  H   H6832     1.0  0.71411  0.92685  0.61039  1.0000
  H   H6833     1.0  0.71341  0.90009  0.65315  1.0000
  C   C3861     1.0  0.67249  0.93306  0.67123  1.0000
  C   C3862     1.0  0.70366  0.75366  0.58521  1.0000
  H   H6834     1.0  0.51042  0.78974  0.64136  1.0000
  H   H6835     1.0  0.60016  0.83931  0.54329  1.0000
  C   C3863     1.0  0.64940  0.79939  0.78387  1.0000
  C   C3864     1.0  0.68627  0.75139  0.58653  1.0000
  C   C3865     1.0  0.73612  0.87314  0.64555  1.0000
  H   H6836     1.0  0.65577  0.84779  0.76002  1.0000
  H   H6837     1.0  0.57051  0.83912  0.55376  1.0000
  Fe  Fe446     1.0  0.71660  0.84077  0.62124  1.0000
  H   H6838     1.0  0.53835  0.77962  0.62149  1.0000
  H   H6839     1.0  0.61626  0.74511  0.85719  1.0000
  H   H6840     1.0  0.60536  0.75433  0.70375  1.0000
  H   H6841     1.0  0.66011  0.86019  0.96080  1.0000
  H   H6842     1.0  0.72240  0.88177  0.73204  1.0000
  S   S875      1.0  0.57251  0.75266  0.70867  1.0000
  C   C3866     1.0  0.69717  0.84630  0.73888  1.0000
  H   H6843     1.0  0.58244  0.81845  0.55243  1.0000
  H   H6844     1.0  0.53715  0.75197  0.70788  1.0000
  H   H6845     1.0  0.59259  0.84496  0.56312  1.0000
  C   C3867     1.0  0.50809  0.74264  0.71371  1.0000
  H   H6846     1.0  0.54061  0.77824  0.71567  1.0000
  H   H6847     1.0  0.61776  0.75290  0.67399  1.0000
  H   H6848     1.0  0.70480  0.92047  0.65596  1.0000
  H   H6849     1.0  0.49857  0.75231  0.71956  1.0000
  H   H6850     1.0  0.69444  0.84212  0.68240  1.0000
  N   N216      1.0  0.62566  0.82417  0.56206  1.0000
  C   C3868     1.0  0.60913  0.82017  0.56391  1.0000
  C   C3869     1.0  0.63759  0.80828  0.56751  1.0000
  C   C3870     1.0  0.62324  0.83657  0.57245  1.0000
  C   C3871     1.0  0.63933  0.84006  0.57439  1.0000
  C   C3872     1.0  0.63319  0.79945  0.58596  1.0000
  C   C3873     1.0  0.64660  0.78408  0.59029  1.0000
  C   C3874     1.0  0.63532  0.85431  0.58325  1.0000
  H   H6851     1.0  0.60350  0.81596  0.57721  1.0000
  H   H6852     1.0  0.61078  0.80946  0.55828  1.0000
  H   H6853     1.0  0.63844  0.79906  0.56028  1.0000
  H   H6854     1.0  0.65032  0.81046  0.56474  1.0000
  H   H6855     1.0  0.61571  0.83273  0.58506  1.0000
  H   H6856     1.0  0.64554  0.83313  0.54291  1.0000
  H   H6857     1.0  0.64324  0.80980  0.53337  1.0000
  H   H6858     1.0  0.64757  0.84365  0.56222  1.0000
  H   H6859     1.0  0.64640  0.82895  0.58167  1.0000
  H   H6860     1.0  0.63193  0.80776  0.59418  1.0000
  H   H6861     1.0  0.62140  0.79530  0.58879  1.0000
  H   H6862     1.0  0.65868  0.78753  0.58815  1.0000
  H   H6863     1.0  0.64301  0.77792  0.60351  1.0000
  H   H6864     1.0  0.64805  0.77502  0.58270  1.0000
  H   H6865     1.0  0.62716  0.85150  0.59568  1.0000
  H   H6866     1.0  0.62913  0.86600  0.57586  1.0000
  C   C3875     1.0  0.73245  0.84039  0.73918  1.0000
  N   N217      1.0  0.64489  0.77585  0.81005  1.0000
  C   C3876     1.0  0.65509  0.78120  0.79295  1.0000
  C   C3877     1.0  0.65006  0.75719  0.81540  1.0000
  C   C3878     1.0  0.62692  0.77989  0.80874  1.0000
  C   C3879     1.0  0.64625  0.78444  0.82263  1.0000
  C   C3880     1.0  0.66317  0.78878  0.82073  1.0000
  C   C3881     1.0  0.61405  0.77560  0.82503  1.0000
  C   C3882     1.0  0.66829  0.75000  0.81729  1.0000
  C   C3883     1.0  0.71704  0.82496  0.89395  1.0000
  C   C3884     1.0  0.66355  0.79445  0.83596  1.0000
  C   C3885     1.0  0.59646  0.78066  0.82192  1.0000
  H   H6867     1.0  0.66830  0.77943  0.79314  1.0000
  H   H6868     1.0  0.64244  0.75253  0.82763  1.0000
  H   H6869     1.0  0.64766  0.75114  0.80662  1.0000
  H   H6870     1.0  0.62556  0.77367  0.79958  1.0000
  H   H6871     1.0  0.62260  0.79342  0.80409  1.0000
  H   H6872     1.0  0.63694  0.79644  0.82248  1.0000
  H   H6873     1.0  0.64292  0.77682  0.83535  1.0000
  H   H6874     1.0  0.66528  0.79907  0.80982  1.0000
  H   H6875     1.0  0.67375  0.77816  0.81907  1.0000
  H   H6876     1.0  0.64678  0.80811  0.79214  1.0000
  H   H6877     1.0  0.61431  0.78212  0.83440  1.0000
  H   H6878     1.0  0.61637  0.76216  0.83039  1.0000
  H   H6879     1.0  0.50232  0.73870  0.74548  1.0000
  H   H6880     1.0  0.66964  0.75209  0.82898  1.0000
  H   H6881     1.0  0.66612  0.84221  0.89488  1.0000
  H   H6882     1.0  0.66214  0.74851  0.87999  1.0000
  H   H6883     1.0  0.55547  0.75118  0.57757  1.0000
  H   H6884     1.0  0.65326  0.80530  0.83814  1.0000
  H   H6885     1.0  0.66240  0.78422  0.84714  1.0000
  H   H6886     1.0  0.67550  0.79807  0.83412  1.0000
  H   H6887     1.0  0.58748  0.77732  0.83369  1.0000
  H   H6888     1.0  0.59303  0.79426  0.81703  1.0000
  H   H6889     1.0  0.59547  0.77406  0.81290  1.0000
  H   H6890     1.0  0.69144  0.83686  0.91699  1.0000
  S   S876      1.0  0.70334  0.74267  0.91797  1.0000
  H   H6891     1.0  0.56825  0.75136  0.61706  1.0000
  C   C3886     1.0  0.69169  0.89677  0.68193  1.0000
  H   H6892     1.0  0.54055  0.76754  0.73694  1.0000
  C   C3887     1.0  0.71149  0.81903  0.73236  1.0000
  H   H6893     1.0  0.72709  0.91382  0.62429  1.0000
  H   H6894     1.0  0.71861  0.94354  0.79018  1.0000
  H   H6895     1.0  0.69799  0.75550  0.94627  1.0000
  C   C3888     1.0  0.58970  0.73797  0.57091  1.0000
  H   H6896     1.0  0.70476  0.75190  0.83386  1.0000
  H   H6897     1.0  0.62700  0.78518  0.70876  1.0000
  C   C3889     1.0  0.53132  0.74800  0.72117  1.0000
  C   C3890     1.0  0.72716  0.78960  0.73031  1.0000
  H   H6898     1.0  0.71169  0.75346  0.55897  1.0000
  S   S877      1.0  0.73213  0.81559  0.62919  1.0000
  H   H6899     1.0  0.60902  0.73246  0.72957  1.0000
  C   C3891     1.0  0.63512  0.97238  0.79351  1.0000
  H   H6900     1.0  0.72445  0.74389  0.85310  1.0000
  H   H6901     1.0  0.65706  0.95719  0.67434  1.0000
  N   N218      1.0  0.67587  0.85778  0.90404  1.0000
  C   C3892     1.0  0.67665  0.86978  0.88744  1.0000
  C   C3893     1.0  0.66344  0.84753  0.90597  1.0000
  C   C3894     1.0  0.50380  0.78071  0.64136  1.0000
  H   H6902     1.0  0.70024  0.91850  0.68347  1.0000
  C   C3895     1.0  0.70044  0.83642  0.89129  1.0000
  C   C3896     1.0  0.69027  0.88007  0.88213  1.0000
  H   H6903     1.0  0.68903  0.92543  0.63290  1.0000
  C   C3897     1.0  0.64494  0.85682  0.90851  1.0000
  C   C3898     1.0  0.63376  0.84581  0.90830  1.0000
  C   C3899     1.0  0.71527  0.92314  0.62351  1.0000
  C   C3900     1.0  0.69039  0.89081  0.86468  1.0000
  H   H6904     1.0  0.52547  0.75389  0.61842  1.0000
  H   H6905     1.0  0.66466  0.87894  0.88712  1.0000
  H   H6906     1.0  0.67837  0.86316  0.87749  1.0000
  C   C3901     1.0  0.68355  0.76194  0.96961  1.0000
  H   H6907     1.0  0.66463  0.83651  0.91641  1.0000
  H   H6908     1.0  0.65930  0.87713  0.91611  1.0000
  H   H6909     1.0  0.68631  0.73805  0.58839  1.0000
  H   H6910     1.0  0.69224  0.82851  0.89120  1.0000
  C   C3902     1.0  0.72350  0.73946  0.90592  1.0000
  H   H6911     1.0  0.70275  0.84480  0.87892  1.0000
  H   H6912     1.0  0.65938  0.88817  0.67494  1.0000
  H   H6913     1.0  0.68800  0.88849  0.89062  1.0000
  H   H6914     1.0  0.70284  0.87198  0.88196  1.0000
  H   H6915     1.0  0.67282  0.85201  0.73256  1.0000
  H   H6916     1.0  0.58516  0.74515  0.59396  1.0000
  H   H6917     1.0  0.64066  0.86055  0.92061  1.0000
  H   H6918     1.0  0.64295  0.86810  0.89860  1.0000
  H   H6919     1.0  0.63520  0.83425  0.91805  1.0000
  H   H6920     1.0  0.62058  0.85254  0.91070  1.0000
  C   C3903     1.0  0.70036  0.75152  0.84733  1.0000
  H   H6921     1.0  0.63273  0.76517  0.66195  1.0000
  H   H6922     1.0  0.67731  0.75553  0.80681  1.0000
  H   H6923     1.0  0.66780  0.92140  0.65406  1.0000
  H   H6924     1.0  0.69979  0.89852  0.86131  1.0000
  H   H6925     1.0  0.69366  0.88289  0.85550  1.0000
  H   H6926     1.0  0.67805  0.89921  0.86393  1.0000
  H   H6927     1.0  0.70733  0.74706  0.59711  1.0000
  H   H6928     1.0  0.67965  0.89532  0.64758  1.0000
  H   H6929     1.0  0.63861  0.74719  0.67761  1.0000
  H   H6930     1.0  0.72238  0.78516  0.74375  1.0000
  H   H6931     1.0  0.67410  0.80427  0.77200  1.0000
  H   H6932     1.0  0.65511  0.77312  0.78476  1.0000
  H   H6933     1.0  0.54772  0.75310  0.62866  1.0000
  H   H6934     1.0  0.62547  0.84451  0.54048  1.0000
  H   H6935     1.0  0.65771  0.81710  0.76185  1.0000
  H   H6936     1.0  0.53804  0.80708  0.58980  1.0000
  C   C3904     1.0  0.63407  0.82171  0.53131  1.0000
  C   C3905     1.0  0.59581  0.83455  0.55672  1.0000
  C   C3906     1.0  0.67923  0.84368  0.74235  1.0000
  H   H6937     1.0  0.61036  0.88659  0.81298  1.0000
  H   H6938     1.0  0.62623  0.91756  0.79226  1.0000
  H   H6939     1.0  0.63381  0.77319  0.68709  1.0000
  C   C3907     1.0  0.57990  0.82868  0.55899  1.0000
  H   H6940     1.0  0.66015  0.84843  0.93783  1.0000
  S   S878      1.0  0.64412  0.74087  0.77774  1.0000
  C   C3908     1.0  0.53974  0.80183  0.60269  1.0000
  H   H6941     1.0  0.53047  0.80962  0.61089  1.0000
  C   C3909     1.0  0.73356  0.86880  0.63202  1.0000
  S   S879      1.0  0.67147  0.75296  0.48107  1.0000
  H   H6942     1.0  0.68012  0.89682  0.69183  1.0000
  H   H6943     1.0  0.71142  0.78522  0.96047  1.0000
  H   H6944     1.0  0.61977  0.78184  0.73029  1.0000
  C   C3910     1.0  0.50826  0.76423  0.64972  1.0000
  C   C3911     1.0  0.64000  0.83134  0.51379  1.0000
  Fe  Fe447     1.0  0.73605  0.81369  0.60293  1.0000
  H   H6945     1.0  0.67005  0.75017  0.95972  1.0000
  H   H6946     1.0  0.52499  0.78607  0.73215  1.0000
  H   H6947     1.0  0.65234  0.83394  0.51242  1.0000
  H   H6948     1.0  0.63097  0.84323  0.51090  1.0000
  C   C3912     1.0  0.73044  0.88663  0.75140  1.0000
  H   H6949     1.0  0.70186  0.81499  0.72893  1.0000
  H   H6950     1.0  0.61331  0.77952  0.68271  1.0000
  S   S880      1.0  0.56768  0.74995  0.66506  1.0000
  C   C3913     1.0  0.66913  0.86739  0.66338  1.0000
  H   H6951     1.0  0.49022  0.74563  0.68981  1.0000
  C   C3914     1.0  0.53726  0.78400  0.60842  1.0000
  H   H6952     1.0  0.52439  0.78439  0.60790  1.0000
  H   H6953     1.0  0.64558  0.94127  0.67852  1.0000
  C   C3915     1.0  0.73308  0.93392  0.72825  1.0000
  H   H6954     1.0  0.73776  0.80825  0.73315  1.0000
  C   C3916     1.0  0.71440  0.83544  0.69561  1.0000
  C   C3917     1.0  0.67171  0.88008  0.67139  1.0000
  H   H6955     1.0  0.65835  0.77704  0.70615  1.0000
  N   N219      1.0  0.68746  0.90394  0.66506  1.0000
  H   H6956     1.0  0.70102  0.84215  0.75096  1.0000
  H   H6957     1.0  0.67750  0.75609  0.59722  1.0000
  H   H6958     1.0  0.72709  0.96192  0.76366  1.0000
  H   H6959     1.0  0.70282  0.76713  0.58361  1.0000
  H   H6960     1.0  0.56254  0.77464  0.59684  1.0000
  H   H6961     1.0  0.63859  0.75593  0.73588  1.0000
  C   C3918     1.0  0.60406  0.75720  0.73479  1.0000
  H   H6962     1.0  0.71417  0.82206  0.69856  1.0000
  H   H6963     1.0  0.59062  0.75757  0.73632  1.0000
  S   S881      1.0  0.72229  0.83971  0.59430  1.0000
  C   C3919     1.0  0.70050  0.91581  0.63434  1.0000
  C   C3920     1.0  0.66906  0.84734  0.75904  1.0000
  H   H6964     1.0  0.72605  0.83229  0.89346  1.0000
  H   H6965     1.0  0.70157  0.85309  0.90578  1.0000
  C   C3921     1.0  0.55012  0.77265  0.59734  1.0000
  H   H6966     1.0  0.71830  0.76023  0.88587  1.0000
  H   H6967     1.0  0.72335  0.80588  0.54847  1.0000
  H   H6968     1.0  0.69119  0.84084  0.71220  1.0000
  C   C3922     1.0  0.70366  0.84347  0.71025  1.0000
  H   H6969     1.0  0.70202  0.85721  0.70610  1.0000
  H   H6970     1.0  0.67615  0.87320  0.68286  1.0000
  C   C3923     1.0  0.67085  0.86748  0.91746  1.0000
  H   H6971     1.0  0.67013  0.85942  0.76049  1.0000
  H   H6972     1.0  0.73395  0.77299  0.90686  1.0000
  H   H6973     1.0  0.72089  0.79764  0.57040  1.0000
  H   H6974     1.0  0.68176  0.75834  0.57511  1.0000
  H   H6975     1.0  0.67919  0.83077  0.74251  1.0000
  H   H6976     1.0  0.62799  0.97380  0.78405  1.0000
  C   C3924     1.0  0.67185  0.91742  0.66602  1.0000
  H   H6977     1.0  0.66362  0.87376  0.65242  1.0000
  C   C3925     1.0  0.73238  0.88468  0.73534  1.0000
  C   C3926     1.0  0.65641  0.94622  0.67028  1.0000
  H   H6978     1.0  0.67377  0.92982  0.68428  1.0000
  H   H6979     1.0  0.69097  0.90442  0.71232  1.0000
  H   H6980     1.0  0.64047  0.77742  0.47635  1.0000
  H   H6981     1.0  0.71547  0.78633  0.92940  1.0000
  H   H6982     1.0  0.71518  0.77906  0.55595  1.0000
  C   C3927     1.0  0.62648  0.74600  0.86171  1.0000
  H   H6983     1.0  0.66540  0.76297  0.72383  1.0000
  H   H6984     1.0  0.57936  0.76168  0.57699  1.0000
  C   C3928     1.0  0.49058  0.78554  0.63308  1.0000
  C   C3929     1.0  0.68830  0.97337  0.78873  1.0000
  H   H6985     1.0  0.69651  0.85997  0.73523  1.0000
  H   H6986     1.0  0.65064  0.78211  0.72629  1.0000
  H   H6987     1.0  0.73554  0.77797  0.54276  1.0000
  C   C3930     1.0  0.71619  0.74682  0.57053  1.0000
  H   H6988     1.0  0.73298  0.78620  0.93699  1.0000
  N   N220      1.0  0.71518  0.76004  0.95790  1.0000
  H   H6989     1.0  0.72586  0.85076  0.74558  1.0000
  C   C3931     1.0  0.73039  0.94840  0.76412  1.0000
  C   C3932     1.0  0.62831  0.75778  0.67444  1.0000
  C   C3933     1.0  0.64042  0.76288  0.72279  1.0000
  H   H6990     1.0  0.71868  0.78828  0.72328  1.0000
  H   H6991     1.0  0.63066  0.74438  0.60201  1.0000
  C   C3934     1.0  0.62284  0.76874  0.68713  1.0000
  H   H6992     1.0  0.51295  0.76154  0.73943  1.0000
  C   C3935     1.0  0.73203  0.77057  0.97201  1.0000
  C   C3936     1.0  0.61590  0.75895  0.70463  1.0000
  C   C3937     1.0  0.53228  0.75252  0.60565  1.0000
  C   C3938     1.0  0.66798  0.76144  0.96461  1.0000
  C   C3939     1.0  0.66023  0.81162  0.96940  1.0000
  H   H6993     1.0  0.70646  0.94138  0.72895  1.0000
  H   H6994     1.0  0.71532  0.81604  0.90607  1.0000
  H   H6995     1.0  0.73162  0.92644  0.74107  1.0000
  C   C3940     1.0  0.72802  0.77924  0.93103  1.0000
  H   H6996     1.0  0.52537  0.76275  0.59726  1.0000
  C   C3941     1.0  0.51171  0.73453  0.60990  1.0000
  C   C3942     1.0  0.72856  0.79574  0.55809  1.0000
  C   C3943     1.0  0.71285  0.73919  0.85701  1.0000
  C   C3944     1.0  0.71961  0.74274  0.96813  1.0000
  H   H6997     1.0  0.71271  0.90437  0.70770  1.0000
  H   H6998     1.0  0.68805  0.74809  0.85169  1.0000
  C   C3945     1.0  0.53256  0.77460  0.72799  1.0000
  H   H6999     1.0  0.73373  0.81133  0.71317  1.0000
  C   C3946     1.0  0.72856  0.80770  0.72658  1.0000
  H   H7000     1.0  0.62663  0.97173  0.80591  1.0000
  H   H7001     1.0  0.71903  0.88513  0.76028  1.0000
  C   C3947     1.0  0.71532  0.77235  0.96737  1.0000
  H   H7002     1.0  0.70757  0.73929  0.87030  1.0000
  C   C3948     1.0  0.71794  0.93453  0.72188  1.0000
  H   H7003     1.0  0.73005  0.79701  0.96943  1.0000
  S   S882      1.0  0.61342  0.73436  0.82088  1.0000
  C   C3949     1.0  0.72823  0.77895  0.55542  1.0000
  H   H7004     1.0  0.58437  0.74116  0.55976  1.0000
  H   H7005     1.0  0.52736  0.73747  0.75498  1.0000
  H   H7006     1.0  0.73483  0.74014  0.59455  1.0000
  H   H7007     1.0  0.50282  0.74580  0.60507  1.0000
  H   H7008     1.0  0.73289  0.73971  0.96888  1.0000
  C   C3950     1.0  0.56096  0.74623  0.58875  1.0000
  C   C3951     1.0  0.73567  0.76448  0.56851  1.0000
  C   C3952     1.0  0.64020  0.73272  0.86256  1.0000
  H   H7009     1.0  0.53221  0.73720  0.58909  1.0000
  H   H7010     1.0  0.73859  0.75154  0.54191  1.0000
  H   H7011     1.0  0.73651  0.95801  0.71415  1.0000
  C   C3953     1.0  0.52963  0.73649  0.60263  1.0000
  H   H7012     1.0  0.71510  0.73378  0.57228  1.0000
  H   H7013     1.0  0.56154  0.73270  0.59181  1.0000
  H   H7014     1.0  0.79490  0.15794  0.26866  1.0000
  C   C3954     1.0  0.76676  0.06515  0.28719  1.0000
  C   C3955     1.0  0.77307  0.06466  0.05935  1.0000
  S   S883      1.0  0.94178  0.20818  0.12509  1.0000
  H   H7015     1.0  0.83619  0.09041  0.23694  1.0000
  H   H7016     1.0  0.75027  0.10099  0.17263  1.0000
  C   C3956     1.0  0.87629  0.12471  0.16258  1.0000
  H   H7017     1.0  0.82230  0.20037  0.00679  1.0000
  H   H7018     1.0  0.82706  0.15032  0.21062  1.0000
  C   C3957     1.0  0.81718  0.10387  0.30620  1.0000
  H   H7019     1.0  0.74554  0.10142  0.06735  1.0000
  C   C3958     1.0  0.75512  0.06776  0.16417  1.0000
  Fe  Fe448     1.0  0.82600  0.19912  0.28899  1.0000
  S   S884      1.0  0.82633  0.18573  0.31520  1.0000
  S   S885      1.0  0.82589  0.18750  0.26871  1.0000
  S   S886      1.0  0.79039  0.21234  0.34293  1.0000
  H   H7020     1.0  0.84874  0.19711  0.39027  1.0000
  Fe  Fe449     1.0  0.84915  0.19535  0.31121  1.0000
  S   S887      1.0  0.87252  0.17790  0.31710  1.0000
  H   H7021     1.0  0.79510  0.15023  0.29563  1.0000
  S   S888      1.0  0.84972  0.20709  0.28456  1.0000
  H   H7022     1.0  0.79464  0.13683  0.27011  1.0000
  S   S889      1.0  0.79547  0.02154  0.13344  1.0000
  H   H7023     1.0  0.78798  0.08308  0.05160  1.0000
  H   H7024     1.0  0.81696  0.10763  0.31757  1.0000
  C   C3959     1.0  0.85193  0.16481  0.20680  1.0000
  C   C3960     1.0  0.77550  0.19139  0.25901  1.0000
  H   H7025     1.0  0.79461  0.14266  0.17360  1.0000
  H   H7026     1.0  0.82251  0.10662  0.24710  1.0000
  H   H7027     1.0  0.79868  0.16203  0.17420  1.0000
  C   C3961     1.0  0.75222  0.19122  0.36246  1.0000
  H   H7028     1.0  0.82284  0.12265  0.18303  1.0000
  H   H7029     1.0  0.83681  0.01760  0.19009  1.0000
  Fe  Fe450     1.0  0.81851  0.07485  0.20934  1.0000
  S   S890      1.0  0.83549  0.08465  0.18619  1.0000
  S   S891      1.0  0.79671  0.09535  0.21583  1.0000
  S   S892      1.0  0.85711  0.04720  0.18653  1.0000
  Fe  Fe451     1.0  0.85629  0.06835  0.19792  1.0000
  S   S893      1.0  0.87771  0.08101  0.19381  1.0000
  Fe  Fe452     1.0  0.83446  0.06306  0.17711  1.0000
  S   S894      1.0  0.82718  0.07044  0.15229  1.0000
  S   S895      1.0  0.81621  0.05410  0.19968  1.0000
  Fe  Fe453     1.0  0.94047  0.14065  0.20512  1.0000
  S   S896      1.0  0.94753  0.11525  0.22067  1.0000
  S   S897      1.0  0.94722  0.14060  0.17811  1.0000
  Fe  Fe454     1.0  0.92516  0.15579  0.23523  1.0000
  S   S898      1.0  0.93055  0.13131  0.25278  1.0000
  S   S899      1.0  0.91481  0.17972  0.24413  1.0000
  Fe  Fe455     1.0  0.95569  0.12817  0.23555  1.0000
  Fe  Fe456     1.0  0.92168  0.12131  0.23584  1.0000
  S   S900      1.0  0.90375  0.10377  0.24483  1.0000
  S   S901      1.0  0.95061  0.15309  0.21864  1.0000
  S   S902      1.0  0.91430  0.14625  0.21961  1.0000
  H   H7030     1.0  0.75758  0.99462  0.05178  1.0000
  H   H7031     1.0  0.76369  0.07055  0.13730  1.0000
  C   C3962     1.0  0.80512  0.12897  0.98935  1.0000
  H   H7032     1.0  0.75625  0.16647  0.35797  1.0000
  C   C3963     1.0  0.88371  0.08793  0.20845  1.0000
  C   C3964     1.0  0.89413  0.09934  0.20261  1.0000
  C   C3965     1.0  0.89998  0.10460  0.21363  1.0000
  C   C3966     1.0  0.89565  0.09833  0.23067  1.0000
  C   C3967     1.0  0.88503  0.08708  0.23657  1.0000
  C   C3968     1.0  0.87904  0.08193  0.22553  1.0000
  H   H7033     1.0  0.89792  0.10396  0.18943  1.0000
  H   H7034     1.0  0.90813  0.11327  0.20890  1.0000
  H   H7035     1.0  0.88161  0.08215  0.24974  1.0000
  H   H7036     1.0  0.87110  0.07308  0.23020  1.0000
  C   C3969     1.0  0.80309  0.03588  0.13894  1.0000
  C   C3970     1.0  0.81195  0.03002  0.15158  1.0000
  C   C3971     1.0  0.81886  0.04066  0.15614  1.0000
  C   C3972     1.0  0.81752  0.05719  0.14759  1.0000
  C   C3973     1.0  0.80864  0.06316  0.13488  1.0000
  C   C3974     1.0  0.80126  0.05257  0.13067  1.0000
  H   H7037     1.0  0.81357  0.01708  0.15775  1.0000
  H   H7038     1.0  0.82578  0.03591  0.16584  1.0000
  H   H7039     1.0  0.80767  0.07592  0.12814  1.0000
  H   H7040     1.0  0.79469  0.05712  0.12070  1.0000
  H   H7041     1.0  0.87988  0.13065  0.14930  1.0000
  H   H7042     1.0  0.80406  0.15027  0.20229  1.0000
  H   H7043     1.0  0.85543  0.14477  0.16767  1.0000
  H   H7044     1.0  0.83015  0.09781  0.30116  1.0000
  C   C3975     1.0  0.85422  0.16470  0.40764  1.0000
  C   C3976     1.0  0.79321  0.09108  0.26463  1.0000
  C   C3977     1.0  0.79811  0.08767  0.24871  1.0000
  C   C3978     1.0  0.79276  0.09965  0.23544  1.0000
  C   C3979     1.0  0.78327  0.11521  0.23793  1.0000
  H   H7045     1.0  0.79003  0.09424  0.07280  1.0000
  H   H7046     1.0  0.79693  0.08166  0.27500  1.0000
  H   H7047     1.0  0.80554  0.07564  0.24682  1.0000
  H   H7048     1.0  0.79476  0.15314  0.33794  1.0000
  H   H7049     1.0  0.75250  0.09563  0.27186  1.0000
  C   C3980     1.0  0.88610  0.17779  0.29768  1.0000
  C   C3981     1.0  0.88924  0.19277  0.28724  1.0000
  C   C3982     1.0  0.89852  0.19309  0.27103  1.0000
  C   C3983     1.0  0.90447  0.17848  0.26502  1.0000
  C   C3984     1.0  0.90173  0.16340  0.27560  1.0000
  C   C3985     1.0  0.89272  0.16303  0.29199  1.0000
  H   H7050     1.0  0.88422  0.20421  0.29160  1.0000
  H   H7051     1.0  0.90084  0.20474  0.26306  1.0000
  H   H7052     1.0  0.90606  0.15210  0.27109  1.0000
  H   H7053     1.0  0.89030  0.15142  0.30003  1.0000
  C   C3986     1.0  0.80628  0.19005  0.26502  1.0000
  C   C3987     1.0  0.79231  0.19009  0.27803  1.0000
  H   H7054     1.0  0.74406  0.07808  0.16356  1.0000
  C   C3988     1.0  0.78847  0.18319  0.97589  1.0000
  H   H7055     1.0  0.81879  0.13971  0.31951  1.0000
  C   C3989     1.0  0.80483  0.19108  0.24897  1.0000
  C   C3990     1.0  0.84262  0.18920  0.38667  1.0000
  H   H7056     1.0  0.82967  0.10740  0.21034  1.0000
  C   C3991     1.0  0.83268  0.00104  0.21391  1.0000
  H   H7057     1.0  0.81569  0.19087  0.23895  1.0000
  H   H7058     1.0  0.83328  0.15774  0.18907  1.0000
  C   C3992     1.0  0.83658  0.14731  0.19949  1.0000
  C   C3993     1.0  0.76413  0.99319  0.07443  1.0000
  C   C3994     1.0  0.94259  0.18982  0.14040  1.0000
  C   C3995     1.0  0.93550  0.18978  0.15715  1.0000
  C   C3996     1.0  0.93691  0.17469  0.16902  1.0000
  C   C3997     1.0  0.94516  0.15977  0.16399  1.0000
  C   C3998     1.0  0.95195  0.15992  0.14723  1.0000
  C   C3999     1.0  0.95081  0.17489  0.13551  1.0000
  H   H7059     1.0  0.92920  0.20134  0.16094  1.0000
  H   H7060     1.0  0.93167  0.17453  0.18200  1.0000
  H   H7061     1.0  0.95834  0.14841  0.14333  1.0000
  H   H7062     1.0  0.95637  0.17489  0.12262  1.0000
  H   H7063     1.0  0.78848  0.00397  0.17009  1.0000
  H   H7064     1.0  0.82764  0.98200  0.23580  1.0000
  H   H7065     1.0  0.84003  0.12635  0.23027  1.0000
  H   H7066     1.0  0.81984  0.22849  0.10531  1.0000
  C   C4000     1.0  0.98548  0.15023  0.24007  1.0000
  H   H7067     1.0  0.79298  0.15752  0.00245  1.0000
  S   S903      1.0  0.83923  0.05984  0.22200  1.0000
  H   H7068     1.0  0.86445  0.16599  0.20690  1.0000
  H   H7069     1.0  0.75655  0.17607  0.04462  1.0000
  C   C4001     1.0  0.78091  0.00455  0.18272  1.0000
  H   H7070     1.0  0.85122  0.10969  0.18704  1.0000
  H   H7071     1.0  0.85430  0.11033  0.22042  1.0000
  H   H7072     1.0  0.78090  0.00942  0.05952  1.0000
  H   H7073     1.0  0.84655  0.17580  0.19800  1.0000
  C   C4002     1.0  0.79417  0.15076  0.18183  1.0000
  H   H7074     1.0  0.78105  0.15465  0.18824  1.0000
  N   N221      1.0  0.81852  0.13388  0.28808  1.0000
  H   H7075     1.0  0.87909  0.11104  0.16378  1.0000
  H   H7076     1.0  0.78001  0.05430  0.19155  1.0000
  S   S904      1.0  0.77233  0.11025  0.02925  1.0000
  C   C4003     1.0  0.74167  0.14400  0.09559  1.0000
  H   H7077     1.0  0.74026  0.07149  0.29339  1.0000
  S   S905      1.0  0.76190  0.15507  0.29370  1.0000
  H   H7078     1.0  0.75196  0.05754  0.17475  1.0000
  S   S906      1.0  0.83840  0.01316  0.22412  1.0000
  H   H7079     1.0  0.78999  0.99166  0.07356  1.0000
  H   H7080     1.0  0.78635  0.98895  0.05493  1.0000
  H   H7081     1.0  0.78989  0.15074  0.97766  1.0000
  H   H7082     1.0  0.78286  0.20934  0.97805  1.0000
  Fe  Fe457     1.0  0.83857  0.03967  0.20998  1.0000
  S   S907      1.0  0.74224  0.14862  0.26917  1.0000
  H   H7083     1.0  0.81501  0.15221  0.99644  1.0000
  H   H7084     1.0  0.79214  0.15503  0.24252  1.0000
  H   H7085     1.0  0.81226  0.22130  0.22348  1.0000
  S   S908      1.0  0.84896  0.22511  0.07670  1.0000
  H   H7086     1.0  0.83402  0.18619  0.34967  1.0000
  H   H7087     1.0  0.82824  0.17277  0.99952  1.0000
  H   H7088     1.0  0.75768  0.10218  0.23515  1.0000
  C   C4004     1.0  0.96595  0.22443  0.14896  1.0000
  H   H7089     1.0  0.80080  0.13139  0.32199  1.0000
  H   H7090     1.0  0.87379  0.22256  0.20379  1.0000
  H   H7091     1.0  0.79875  0.98264  0.13294  1.0000
  N   N222      1.0  0.95218  0.16532  0.28812  1.0000
  C   C4005     1.0  0.94306  0.16608  0.30573  1.0000
  C   C4006     1.0  0.97047  0.16469  0.28601  1.0000
  C   C4007     1.0  0.94487  0.18113  0.27707  1.0000
  C   C4008     1.0  0.94990  0.15088  0.28284  1.0000
  C   C4009     1.0  0.95526  0.13344  0.29354  1.0000
  C   C4010     1.0  0.92410  0.16709  0.30973  1.0000
  C   C4011     1.0  0.95368  0.18396  0.25849  1.0000
  C   C4012     1.0  0.97847  0.15566  0.30117  1.0000
  H   H7092     1.0  0.80361  0.12141  0.98149  1.0000
  C   C4013     1.0  0.94963  0.12031  0.28883  1.0000
  C   C4014     1.0  0.91668  0.16635  0.32817  1.0000
  C   C4015     1.0  0.94607  0.20093  0.24893  1.0000
  H   H7093     1.0  0.94492  0.17704  0.30898  1.0000
  H   H7094     1.0  0.94820  0.15519  0.31469  1.0000
  H   H7095     1.0  0.78767  0.99491  0.19140  1.0000
  H   H7096     1.0  0.97282  0.17747  0.28277  1.0000
  H   H7097     1.0  0.94469  0.19212  0.28169  1.0000
  H   H7098     1.0  0.93175  0.18154  0.27734  1.0000
  H   H7099     1.0  0.93679  0.15267  0.28198  1.0000
  H   H7100     1.0  0.95721  0.15032  0.27005  1.0000
  H   H7101     1.0  0.94988  0.13286  0.30689  1.0000
  H   H7102     1.0  0.96902  0.12993  0.29142  1.0000
  H   H7103     1.0  0.91765  0.17897  0.30293  1.0000
  H   H7104     1.0  0.92134  0.15662  0.30655  1.0000
  H   H7105     1.0  0.95246  0.17443  0.25269  1.0000
  H   H7106     1.0  0.96700  0.18360  0.25687  1.0000
  H   H7107     1.0  0.97350  0.16297  0.31098  1.0000
  C   C4016     1.0  0.80266  0.18524  0.99634  1.0000
  C   C4017     1.0  0.78138  0.99599  0.06495  1.0000
  H   H7108     1.0  0.79323  0.02229  0.18533  1.0000
  H   H7109     1.0  0.80860  0.22400  0.12647  1.0000
  H   H7110     1.0  0.93588  0.12300  0.29097  1.0000
  H   H7111     1.0  0.95505  0.11993  0.27562  1.0000
  H   H7112     1.0  0.95390  0.10789  0.29645  1.0000
  H   H7113     1.0  0.90311  0.16717  0.33068  1.0000
  H   H7114     1.0  0.92231  0.15445  0.33571  1.0000
  H   H7115     1.0  0.91868  0.17689  0.33195  1.0000
  H   H7116     1.0  0.76873  0.04954  0.14921  1.0000
  C   C4018     1.0  0.76352  0.17584  0.35656  1.0000
  H   H7117     1.0  0.94784  0.21103  0.25358  1.0000
  H   H7118     1.0  0.82430  0.21290  0.20557  1.0000
  H   H7119     1.0  0.77282  0.98348  0.21434  1.0000
  C   C4019     1.0  0.76163  0.18697  0.04134  1.0000
  H   H7120     1.0  0.95221  0.20235  0.23561  1.0000
  N   N223      1.0  0.76839  0.07938  0.18115  1.0000
  H   H7121     1.0  0.75018  0.01341  0.05895  1.0000
  H   H7122     1.0  0.89791  0.20555  0.04602  1.0000
  H   H7123     1.0  0.79032  0.18568  0.00499  1.0000
  C   C4020     1.0  0.79904  0.10951  0.16590  1.0000
  H   H7124     1.0  0.77702  0.22894  0.21100  1.0000
  H   H7125     1.0  0.85091  0.12864  0.16118  1.0000
  C   C4021     1.0  0.82287  0.13429  0.18642  1.0000
  H   H7126     1.0  0.74619  0.18719  0.37563  1.0000
  H   H7127     1.0  0.79505  0.07617  0.17726  1.0000
  H   H7128     1.0  0.78319  0.09010  0.19030  1.0000
  H   H7129     1.0  0.77445  0.11068  0.16373  1.0000
  C   C4022     1.0  0.80470  0.14153  0.19465  1.0000
  H   H7130     1.0  0.78283  0.06787  0.21131  1.0000
  C   C4023     1.0  0.77530  0.21497  0.03295  1.0000
  H   H7131     1.0  0.74772  0.13342  0.22888  1.0000
  H   H7132     1.0  0.76028  0.99996  0.08458  1.0000
  H   H7133     1.0  0.84400  0.16460  0.21944  1.0000
  S   S909      1.0  0.75669  0.19069  0.25539  1.0000
  H   H7134     1.0  0.85891  0.13830  0.21058  1.0000
  C   C4024     1.0  0.83031  0.11929  0.21277  1.0000
  H   H7135     1.0  0.80025  0.12052  0.15559  1.0000
  H   H7136     1.0  0.79537  0.11352  0.17785  1.0000
  H   H7137     1.0  0.81132  0.10079  0.16518  1.0000
  H   H7138     1.0  0.88382  0.12771  0.16953  1.0000
  H   H7139     1.0  0.75325  0.05114  0.22778  1.0000
  H   H7140     1.0  0.82613  0.14311  0.17447  1.0000
  H   H7141     1.0  0.79891  0.13122  0.20278  1.0000
  C   C4025     1.0  0.85198  0.12231  0.18737  1.0000
  N   N224      1.0  0.83569  0.13098  0.19662  1.0000
  H   H7142     1.0  0.81754  0.12437  0.21919  1.0000
  H   H7143     1.0  0.86210  0.11996  0.19394  1.0000
  H   H7144     1.0  0.89823  0.20602  0.21858  1.0000
  H   H7145     1.0  0.79363  0.09605  0.31680  1.0000
  H   H7146     1.0  0.90230  0.21804  0.18790  1.0000
  H   H7147     1.0  0.96595  0.17785  0.09252  1.0000
  C   C4026     1.0  0.83545  0.10200  0.24073  1.0000
  C   C4027     1.0  0.78934  0.19218  0.24589  1.0000
  H   H7148     1.0  0.89979  0.19880  0.18513  1.0000
  H   H7149     1.0  0.86276  0.14908  0.18947  1.0000
  H   H7150     1.0  0.87097  0.16455  0.26234  1.0000
  C   C4028     1.0  0.85779  0.13113  0.16912  1.0000
  C   C4029     1.0  0.85356  0.14879  0.20143  1.0000
  H   H7151     1.0  0.90224  0.04337  0.19788  1.0000
  H   H7152     1.0  0.74783  0.99418  0.16500  1.0000
  H   H7153     1.0  0.76830  0.07515  0.29216  1.0000
  C   C4030     1.0  0.76770  0.09033  0.09178  1.0000
  H   H7154     1.0  0.76853  0.21897  0.37344  1.0000
  C   C4031     1.0  0.80243  0.14725  0.98049  1.0000
  H   H7155     1.0  0.91682  0.19898  0.19348  1.0000
  H   H7156     1.0  0.84365  0.09903  0.24960  1.0000
  H   H7157     1.0  0.88902  0.16264  0.24566  1.0000
  H   H7158     1.0  0.74839  0.22490  0.35757  1.0000
  C   C4032     1.0  0.77519  0.20454  0.04862  1.0000
  C   C4033     1.0  0.83536  0.21099  0.36320  1.0000
  H   H7159     1.0  0.79202  0.09179  0.09374  1.0000
  H   H7160     1.0  0.86198  0.15797  0.39784  1.0000
  C   C4034     1.0  0.84111  0.11514  0.22569  1.0000
  C   C4035     1.0  0.78043  0.02136  0.18589  1.0000
  C   C4036     1.0  0.80444  0.14977  0.24587  1.0000
  C   C4037     1.0  0.75014  0.07080  0.04588  1.0000
  C   C4038     1.0  0.82966  0.17848  0.36197  1.0000
  C   C4039     1.0  0.79517  0.15647  0.32444  1.0000
  C   C4040     1.0  0.83297  0.00620  0.19700  1.0000
  C   C4041     1.0  0.94066  0.06530  0.23767  1.0000
  H   H7161     1.0  0.79703  0.12261  0.29719  1.0000
  H   H7162     1.0  0.87325  0.15149  0.24820  1.0000
  S   S910      1.0  0.74890  0.02407  0.14221  1.0000
  S   S911      1.0  0.75469  0.04075  0.06780  1.0000
  H   H7163     1.0  0.82700  0.18353  0.02380  1.0000
  H   H7164     1.0  0.81211  0.16667  0.01672  1.0000
  N   N225      1.0  0.82831  0.19979  0.37899  1.0000
  C   C4042     1.0  0.75951  0.10909  0.08872  1.0000
  H   H7165     1.0  0.74635  0.09467  0.02893  1.0000
  H   H7166     1.0  0.81571  0.22843  0.25558  1.0000
  C   C4043     1.0  0.78657  0.08749  0.08582  1.0000
  Fe  Fe458     1.0  0.81265  0.21041  0.32161  1.0000
  C   C4044     1.0  0.78357  0.08609  0.17896  1.0000
  H   H7167     1.0  0.73977  0.22918  0.10445  1.0000
  C   C4045     1.0  0.78615  0.10117  0.16432  1.0000
  C   C4046     1.0  0.80669  0.09078  0.31116  1.0000
  C   C4047     1.0  0.82150  0.22351  0.21165  1.0000
  H   H7168     1.0  0.81176  0.08005  0.32036  1.0000
  C   C4048     1.0  0.81781  0.18971  0.01590  1.0000
  H   H7169     1.0  0.81028  0.22247  0.38293  1.0000
  C   C4049     1.0  0.81633  0.21065  0.39034  1.0000
  C   C4050     1.0  0.74645  0.98667  0.17783  1.0000
  N   N226      1.0  0.91757  0.20470  0.08677  1.0000
  C   C4051     1.0  0.91376  0.20420  0.07083  1.0000
  C   C4052     1.0  0.93308  0.19173  0.08962  1.0000
  C   C4053     1.0  0.90334  0.19989  0.10066  1.0000
  C   C4054     1.0  0.79256  0.21457  0.41523  1.0000
  H   H7170     1.0  0.84058  0.16996  0.36647  1.0000
  S   S912      1.0  0.83578  0.21879  0.31997  1.0000
  C   C4055     1.0  0.90580  0.19698  0.11849  1.0000
  C   C4056     1.0  0.94931  0.19388  0.07664  1.0000
  C   C4057     1.0  0.96355  0.17906  0.08016  1.0000
  S   S913      1.0  0.76045  0.05079  0.10794  1.0000
  C   C4058     1.0  0.76622  0.05228  0.22605  1.0000
  C   C4059     1.0  0.88949  0.19617  0.13128  1.0000
  H   H7171     1.0  0.91407  0.19118  0.07062  1.0000
  H   H7172     1.0  0.76733  0.05362  0.29702  1.0000
  H   H7173     1.0  0.93589  0.19151  0.10155  1.0000
  H   H7174     1.0  0.93107  0.17914  0.09072  1.0000
  H   H7175     1.0  0.90051  0.18836  0.09959  1.0000
  H   H7176     1.0  0.89183  0.20968  0.09972  1.0000
  N   N227      1.0  0.80377  0.17627  0.98313  1.0000
  C   C4060     1.0  0.83610  0.12891  0.29059  1.0000
  C   C4061     1.0  0.94506  0.07368  0.24893  1.0000
  C   C4062     1.0  0.81931  0.16785  0.35942  1.0000
  H   H7177     1.0  0.88663  0.20826  0.07544  1.0000
  C   C4063     1.0  0.80154  0.20371  0.40263  1.0000
  H   H7178     1.0  0.91069  0.20709  0.11975  1.0000
  H   H7179     1.0  0.91467  0.18502  0.12164  1.0000
  H   H7180     1.0  0.94800  0.19495  0.06393  1.0000
  H   H7181     1.0  0.95307  0.20504  0.07725  1.0000
  H   H7182     1.0  0.74548  0.22904  0.33713  1.0000
  H   H7183     1.0  0.97505  0.18092  0.07070  1.0000
  C   C4064     1.0  0.77928  0.98348  0.15518  1.0000
  C   C4065     1.0  0.89662  0.21476  0.06766  1.0000
  C   C4066     1.0  0.81917  0.14112  0.26985  1.0000
  H   H7184     1.0  0.79084  0.09705  0.15240  1.0000
  H   H7185     1.0  0.77712  0.06285  0.27645  1.0000
  H   H7186     1.0  0.89808  0.04979  0.21708  1.0000
  H   H7187     1.0  0.89399  0.22701  0.07084  1.0000
  H   H7188     1.0  0.88030  0.20810  0.12914  1.0000
  H   H7189     1.0  0.88429  0.18592  0.13063  1.0000
  H   H7190     1.0  0.89179  0.19387  0.14388  1.0000
  C   C4067     1.0  0.98389  0.22336  0.16860  1.0000
  H   H7191     1.0  0.84592  0.22865  0.20255  1.0000
  H   H7192     1.0  0.77920  0.12456  0.22770  1.0000
  H   H7193     1.0  0.79007  0.22683  0.24934  1.0000
  C   C4068     1.0  0.82795  0.98603  0.22268  1.0000
  S   S914      1.0  0.77477  0.10968  0.28741  1.0000
  N   N228      1.0  0.94270  0.06681  0.20652  1.0000
  C   C4069     1.0  0.94086  0.07985  0.19086  1.0000
  C   C4070     1.0  0.92796  0.05863  0.21268  1.0000
  C   C4071     1.0  0.94285  0.07555  0.21951  1.0000
  C   C4072     1.0  0.95886  0.05413  0.20420  1.0000
  C   C4073     1.0  0.96209  0.04439  0.19056  1.0000
  C   C4074     1.0  0.95468  0.08990  0.18341  1.0000
  H   H7194     1.0  0.84536  0.20363  0.35505  1.0000
  C   C4075     1.0  0.92055  0.05561  0.19948  1.0000
  C   C4076     1.0  0.90808  0.04444  0.20745  1.0000
  C   C4077     1.0  0.73935  0.10969  0.11519  1.0000
  C   C4078     1.0  0.95170  0.10205  0.16725  1.0000
  H   H7195     1.0  0.75507  0.00638  0.19572  1.0000
  H   H7196     1.0  0.92885  0.08894  0.19316  1.0000
  H   H7197     1.0  0.94008  0.07443  0.18089  1.0000
  H   H7198     1.0  0.93099  0.04660  0.22153  1.0000
  H   H7199     1.0  0.91732  0.06648  0.21982  1.0000
  H   H7200     1.0  0.93278  0.08699  0.21955  1.0000
  H   H7201     1.0  0.95466  0.07984  0.21653  1.0000
  H   H7202     1.0  0.96956  0.06003  0.20187  1.0000
  H   H7203     1.0  0.95977  0.04456  0.21579  1.0000
  H   H7204     1.0  0.96002  0.05267  0.17859  1.0000
  H   H7205     1.0  0.95396  0.03532  0.19459  1.0000
  H   H7206     1.0  0.95492  0.09734  0.19199  1.0000
  H   H7207     1.0  0.96706  0.08160  0.18060  1.0000
  H   H7208     1.0  0.76981  0.17930  0.34336  1.0000
  H   H7209     1.0  0.98187  0.02716  0.17801  1.0000
  H   H7210     1.0  0.91391  0.06763  0.19301  1.0000
  H   H7211     1.0  0.93006  0.04990  0.18990  1.0000
  H   H7212     1.0  0.94860  0.05264  0.23865  1.0000
  Fe  Fe459     1.0  0.74682  0.17051  0.27520  1.0000
  H   H7213     1.0  0.91436  0.03183  0.21313  1.0000
  H   H7214     1.0  0.74039  0.07598  0.24603  1.0000
  H   H7215     1.0  0.77281  0.02273  0.19835  1.0000
  H   H7216     1.0  0.85088  0.15538  0.41914  1.0000
  H   H7217     1.0  0.95196  0.09532  0.15784  1.0000
  H   H7218     1.0  0.93953  0.11091  0.16944  1.0000
  H   H7219     1.0  0.96157  0.10932  0.16230  1.0000
  H   H7220     1.0  0.88533  0.21648  0.24261  1.0000
  C   C4079     1.0  0.80360  0.15831  0.99150  1.0000
  H   H7221     1.0  0.98275  0.02558  0.19907  1.0000
  N   N229      1.0  0.86275  0.20984  0.22789  1.0000
  C   C4080     1.0  0.86758  0.19468  0.24090  1.0000
  H   H7222     1.0  0.83105  0.18177  0.41282  1.0000
  C   C4081     1.0  0.84547  0.21032  0.22639  1.0000
  C   C4082     1.0  0.87440  0.20966  0.21114  1.0000
  C   C4083     1.0  0.89302  0.20138  0.21080  1.0000
  C   C4084     1.0  0.86644  0.17798  0.23810  1.0000
  H   H7223     1.0  0.95829  0.07460  0.24487  1.0000
  H   H7224     1.0  0.74286  0.09607  0.12001  1.0000
  C   C4085     1.0  0.74477  0.10792  0.23378  1.0000
  C   C4086     1.0  0.90356  0.20452  0.19322  1.0000
  C   C4087     1.0  0.87547  0.16325  0.24929  1.0000
  H   H7225     1.0  0.76778  0.05428  0.23769  1.0000
  H   H7226     1.0  0.85954  0.19601  0.25326  1.0000
  H   H7227     1.0  0.88031  0.19338  0.24236  1.0000
  H   H7228     1.0  0.80869  0.19786  0.36898  1.0000
  H   H7229     1.0  0.96062  0.16739  0.07971  1.0000
  H   H7230     1.0  0.83689  0.20936  0.23878  1.0000
  H   H7231     1.0  0.84552  0.19942  0.22176  1.0000
  H   H7232     1.0  0.87033  0.20322  0.20385  1.0000
  H   H7233     1.0  0.78716  0.22665  0.27079  1.0000
  H   H7234     1.0  0.89478  0.18774  0.21537  1.0000
  H   H7235     1.0  0.79344  0.18928  0.29045  1.0000
  H   H7236     1.0  0.85326  0.17700  0.24110  1.0000
  H   H7237     1.0  0.87185  0.17689  0.22510  1.0000
  N   N230      1.0  0.74130  0.11360  0.09664  1.0000
  H   H7238     1.0  0.85811  0.22817  0.34002  1.0000
  C   C4088     1.0  0.80219  0.14638  0.26462  1.0000
  H   H7239     1.0  0.97500  0.21931  0.18028  1.0000
  H   H7240     1.0  0.79981  0.16809  0.31904  1.0000
  Fe  Fe460     1.0  0.75114  0.13195  0.02414  1.0000
  C   C4089     1.0  0.75956  0.06008  0.05712  1.0000
  C   C4090     1.0  0.76313  0.00224  0.18438  1.0000
  C   C4091     1.0  0.81590  0.17739  0.00707  1.0000
  H   H7241     1.0  0.80992  0.13802  0.24154  1.0000
  Fe  Fe461     1.0  0.75573  0.03399  0.09474  1.0000
  C   C4092     1.0  0.76838  0.21157  0.02160  1.0000
  H   H7242     1.0  0.77489  0.04053  0.22349  1.0000
  H   H7243     1.0  0.78137  0.06437  0.16311  1.0000
  C   C4093     1.0  0.86272  0.13635  0.29047  1.0000
  H   H7244     1.0  0.81503  0.15936  0.37124  1.0000
  H   H7245     1.0  0.76679  0.11516  0.09320  1.0000
  S   S915      1.0  0.78355  0.20871  0.06316  1.0000
  H   H7246     1.0  0.76733  0.22654  0.24245  1.0000
  C   C4094     1.0  0.77856  0.11862  0.25373  1.0000
  H   H7247     1.0  0.79193  0.07401  0.08653  1.0000
  H   H7248     1.0  0.81254  0.15878  0.23960  1.0000
  S   S916      1.0  0.75254  0.15172  0.00057  1.0000
  H   H7249     1.0  0.77534  0.03155  0.17627  1.0000
  C   C4095     1.0  0.77639  0.22786  0.36891  1.0000
  C   C4096     1.0  0.76821  0.19059  0.05284  1.0000
  H   H7250     1.0  0.93260  0.20213  0.25013  1.0000
  H   H7251     1.0  0.79582  0.12721  0.00122  1.0000
  C   C4097     1.0  0.75383  0.08633  0.03737  1.0000
  C   C4098     1.0  0.77720  0.07983  0.05027  1.0000
  C   C4099     1.0  0.76983  0.07413  0.16537  1.0000
  H   H7252     1.0  0.87059  0.12785  0.28226  1.0000
  H   H7253     1.0  0.75528  0.10122  0.19116  1.0000
  H   H7254     1.0  0.97590  0.21572  0.14227  1.0000
  H   H7255     1.0  0.82774  0.13211  0.26245  1.0000
  H   H7256     1.0  0.81337  0.18123  0.38547  1.0000
  H   H7257     1.0  0.77653  0.99719  0.15269  1.0000
  H   H7258     1.0  0.82697  0.16024  0.35031  1.0000
  H   H7259     1.0  0.95771  0.21729  0.15902  1.0000
  C   C4100     1.0  0.81074  0.11885  0.29291  1.0000
  H   H7260     1.0  0.80683  0.08628  0.30019  1.0000
  H   H7261     1.0  0.75899  0.08280  0.25744  1.0000
  H   H7262     1.0  0.93713  0.08632  0.24884  1.0000
  S   S917      1.0  0.82873  0.21497  0.04513  1.0000
  C   C4101     1.0  0.78295  0.10639  0.26722  1.0000
  C   C4102     1.0  0.83841  0.17579  0.40240  1.0000
  H   H7263     1.0  0.76853  0.21970  0.00949  1.0000
  H   H7264     1.0  0.78153  0.20988  0.42328  1.0000
  H   H7265     1.0  0.84369  0.11967  0.28301  1.0000
  H   H7266     1.0  0.76815  0.18242  0.06492  1.0000
  H   H7267     1.0  0.78061  0.05630  0.06773  1.0000
  C   C4103     1.0  0.75304  0.09285  0.18452  1.0000
  H   H7268     1.0  0.75542  0.14134  0.09251  1.0000
  H   H7269     1.0  0.75419  0.12426  0.21099  1.0000
  C   C4104     1.0  0.76153  0.19756  0.02576  1.0000
  H   H7270     1.0  0.75814  0.05862  0.19731  1.0000
  H   H7271     1.0  0.78823  0.19287  0.23349  1.0000
  C   C4105     1.0  0.77698  0.19037  0.27508  1.0000
  C   C4106     1.0  0.76899  0.06418  0.19508  1.0000
  C   C4107     1.0  0.76737  0.09088  0.03958  1.0000
  H   H7272     1.0  0.81237  0.15877  0.29245  1.0000
  H   H7273     1.0  0.76174  0.11396  0.07505  1.0000
  H   H7274     1.0  0.83150  0.16760  0.40044  1.0000
  Fe  Fe462     1.0  0.77241  0.02729  0.12339  1.0000
  Fe  Fe463     1.0  0.75542  0.13341  0.28929  1.0000
  Fe  Fe464     1.0  0.83415  0.22964  0.29350  1.0000
  H   H7275     1.0  0.86189  0.12967  0.30361  1.0000
  H   H7276     1.0  0.80323  0.19845  0.99099  1.0000
  H   H7277     1.0  0.85901  0.22381  0.10604  1.0000
  H   H7278     1.0  0.80581  0.19434  0.02393  1.0000
  C   C4108     1.0  0.80649  0.14233  0.31641  1.0000
  H   H7279     1.0  0.92705  0.22046  0.09601  1.0000
  S   S918      1.0  0.81009  0.22289  0.29558  1.0000
  H   H7280     1.0  0.92338  0.20808  0.05994  1.0000
  H   H7281     1.0  0.77316  0.17022  0.36401  1.0000
  C   C4109     1.0  0.77011  0.06686  0.21185  1.0000
  H   H7282     1.0  0.83648  0.12260  0.30363  1.0000
  H   H7283     1.0  0.75844  0.01155  0.17392  1.0000
  S   S919      1.0  0.75316  0.19363  0.01109  1.0000
  H   H7284     1.0  0.76516  0.08433  0.10508  1.0000
  H   H7285     1.0  0.78232  0.15874  0.32265  1.0000
  H   H7286     1.0  0.97794  0.15897  0.27538  1.0000
  H   H7287     1.0  0.76628  0.18981  0.28525  1.0000
  C   C4110     1.0  0.86182  0.22511  0.23389  1.0000
  H   H7288     1.0  0.74532  0.20163  0.33854  1.0000
  H   H7289     1.0  0.82942  0.00028  0.17569  1.0000
  Fe  Fe465     1.0  0.74573  0.00875  0.12630  1.0000
  H   H7290     1.0  0.83874  0.15256  0.29408  1.0000
  S   S920      1.0  0.77006  0.01056  0.10846  1.0000
  H   H7291     1.0  0.82430  0.15252  0.26569  1.0000
  H   H7292     1.0  0.77111  0.08465  0.15452  1.0000
  C   C4111     1.0  0.75009  0.06991  0.28213  1.0000
  H   H7293     1.0  0.76171  0.07846  0.21490  1.0000
  C   C4112     1.0  0.75148  0.99971  0.06307  1.0000
  C   C4113     1.0  0.89560  0.21759  0.04963  1.0000
  H   H7294     1.0  0.92754  0.06413  0.24268  1.0000
  H   H7295     1.0  0.76300  0.08398  0.08500  1.0000
  H   H7296     1.0  0.81250  0.11347  0.28197  1.0000
  C   C4114     1.0  0.84546  0.14312  0.28657  1.0000
  H   H7297     1.0  0.84715  0.14935  0.27330  1.0000
  C   C4115     1.0  0.80797  0.14697  0.29748  1.0000
  H   H7298     1.0  0.77138  0.13067  0.25543  1.0000
  H   H7299     1.0  0.86880  0.14680  0.28846  1.0000
  H   H7300     1.0  0.85248  0.18307  0.37741  1.0000
  C   C4116     1.0  0.75920  0.06129  0.14834  1.0000
  H   H7301     1.0  0.90474  0.22488  0.04132  1.0000
  H   H7302     1.0  0.76147  0.22257  0.27141  1.0000
  Fe  Fe466     1.0  0.80160  0.22576  0.05297  1.0000
  H   H7303     1.0  0.80834  0.17584  0.35454  1.0000
  H   H7304     1.0  0.82555  0.21733  0.35604  1.0000
  H   H7305     1.0  0.74796  0.05872  0.14655  1.0000
  H   H7306     1.0  0.85276  0.22520  0.24602  1.0000
  C   C4117     1.0  0.91935  0.22167  0.08707  1.0000
  H   H7307     1.0  0.88296  0.22469  0.04808  1.0000
  H   H7308     1.0  0.81779  0.12440  0.99188  1.0000
  H   H7309     1.0  0.80544  0.19090  0.40954  1.0000
  H   H7310     1.0  0.74900  0.05925  0.27788  1.0000
  H   H7311     1.0  0.97592  0.14309  0.30649  1.0000
  H   H7312     1.0  0.74033  0.16346  0.07325  1.0000
  H   H7313     1.0  0.97514  0.15483  0.23404  1.0000
  C   C4118     1.0  0.81923  0.18953  0.37441  1.0000
  C   C4119     1.0  0.82866  0.99643  0.18887  1.0000
  C   C4120     1.0  0.74473  0.12520  0.22267  1.0000
  S   S921      1.0  0.74542  0.15003  0.04043  1.0000
  H   H7314     1.0  0.79238  0.20362  0.39573  1.0000
  H   H7315     1.0  0.86157  0.17220  0.41014  1.0000
  Fe  Fe467     1.0  0.74432  0.16975  0.01735  1.0000
  S   S922      1.0  0.97967  0.11881  0.24503  1.0000
  H   H7316     1.0  0.78069  0.22566  0.02954  1.0000
  H   H7317     1.0  0.82314  0.21443  0.39749  1.0000
  H   H7318     1.0  0.76035  0.19947  0.36174  1.0000
  H   H7319     1.0  0.94298  0.06630  0.26184  1.0000
  C   C4121     1.0  0.74891  0.08588  0.26816  1.0000
  H   H7320     1.0  0.85396  0.21897  0.37078  1.0000
  C   C4122     1.0  0.84296  0.22462  0.36518  1.0000
  C   C4123     1.0  0.78817  0.22761  0.35395  1.0000
  C   C4124     1.0  0.98000  0.03440  0.18751  1.0000
  H   H7321     1.0  0.93727  0.22532  0.06271  1.0000
  N   N231      1.0  0.76142  0.98510  0.18460  1.0000
  H   H7322     1.0  0.74113  0.10058  0.22716  1.0000
  H   H7323     1.0  0.90714  0.22941  0.09197  1.0000
  C   C4125     1.0  0.87833  0.22773  0.23557  1.0000
  C   C4126     1.0  0.83732  0.22586  0.21472  1.0000
  H   H7324     1.0  0.74045  0.17041  0.09109  1.0000
  H   H7325     1.0  0.80091  0.21433  0.42314  1.0000
  H   H7326     1.0  0.77736  0.18006  0.98542  1.0000
  H   H7327     1.0  0.78826  0.22762  0.40887  1.0000
  H   H7328     1.0  0.73978  0.06725  0.04398  1.0000
  H   H7329     1.0  0.74805  0.11506  0.11857  1.0000
  H   H7330     1.0  0.76434  0.23110  0.08344  1.0000
  Fe  Fe468     1.0  0.92401  0.23113  0.13182  1.0000
  H   H7331     1.0  0.74064  0.00939  0.03385  1.0000
  H   H7332     1.0  0.88612  0.23135  0.22308  1.0000
  H   H7333     1.0  0.98884  0.04282  0.18293  1.0000
  H   H7334     1.0  0.80584  0.98190  0.15098  1.0000
  H   H7335     1.0  0.83157  0.19335  0.97593  1.0000
  H   H7336     1.0  0.75766  0.20387  0.97312  1.0000
  H   H7337     1.0  0.76402  0.10844  0.77470  1.0000
  H   H7338     1.0  0.88017  0.12585  0.64101  1.0000
  S   S923      1.0  0.88753  0.18892  0.83386  1.0000
  H   H7339     1.0  0.75940  0.12105  0.81453  1.0000
  S   S924      1.0  0.93485  0.18359  0.75703  1.0000
  H   H7340     1.0  0.79044  0.06554  0.73896  1.0000
  H   H7341     1.0  0.78750  0.06853  0.79103  1.0000
  C   C4127     1.0  0.87948  0.22061  0.73602  1.0000
  S   S925      1.0  0.79445  0.18714  0.90986  1.0000
  C   C4128     1.0  0.80288  0.98642  0.67460  1.0000
  H   H7342     1.0  0.74587  0.21688  0.53123  1.0000
  H   H7343     1.0  0.87639  0.19611  0.65708  1.0000
  H   H7344     1.0  0.76138  0.99005  0.67942  1.0000
  Fe  Fe469     1.0  0.78742  0.05472  0.68628  1.0000
  S   S926      1.0  0.81109  0.04602  0.66885  1.0000
  S   S927      1.0  0.76399  0.07317  0.68206  1.0000
  Fe  Fe470     1.0  0.79933  0.03374  0.71660  1.0000
  S   S928      1.0  0.78984  0.02818  0.74412  1.0000
  Fe  Fe471     1.0  0.82375  0.04904  0.68718  1.0000
  S   S929      1.0  0.84579  0.06136  0.67817  1.0000
  Fe  Fe472     1.0  0.80984  0.02063  0.68510  1.0000
  S   S930      1.0  0.80019  0.05988  0.70311  1.0000
  S   S931      1.0  0.78498  0.02918  0.70083  1.0000
  Fe  Fe473     1.0  0.87999  0.11520  0.71421  1.0000
  S   S932      1.0  0.90279  0.11048  0.69424  1.0000
  S   S933      1.0  0.85980  0.10043  0.72375  1.0000
  Fe  Fe474     1.0  0.88842  0.14610  0.71819  1.0000
  S   S934      1.0  0.91140  0.14440  0.69795  1.0000
  S   S935      1.0  0.87970  0.16592  0.73322  1.0000
  Fe  Fe475     1.0  0.89593  0.13800  0.68438  1.0000
  S   S936      1.0  0.89772  0.14686  0.65694  1.0000
  Fe  Fe476     1.0  0.91623  0.11725  0.70964  1.0000
  S   S937      1.0  0.87237  0.14237  0.70345  1.0000
  S   S938      1.0  0.89400  0.11927  0.73080  1.0000
  H   H7345     1.0  0.76081  0.12868  0.79260  1.0000
  C   C4129     1.0  0.82256  0.21785  0.83347  1.0000
  S   S939      1.0  0.75742  0.11390  0.61035  1.0000
  Fe  Fe477     1.0  0.81259  0.20185  0.64635  1.0000
  C   C4130     1.0  0.77210  0.16696  0.88708  1.0000
  S   S940      1.0  0.83740  0.19680  0.62898  1.0000
  H   H7346     1.0  0.77891  0.11592  0.80038  1.0000
  C   C4131     1.0  0.83866  0.22478  0.74910  1.0000
  N   N232      1.0  0.88570  0.20859  0.67010  1.0000
  C   C4132     1.0  0.74332  0.04719  0.76758  1.0000
  H   H7347     1.0  0.83663  0.19257  0.93936  1.0000
  C   C4133     1.0  0.85637  0.22821  0.86303  1.0000
  S   S941      1.0  0.80827  0.18875  0.67294  1.0000
  H   H7348     1.0  0.82969  0.16636  0.97297  1.0000
  Fe  Fe478     1.0  0.78485  0.18570  0.66869  1.0000
  S   S942      1.0  0.77744  0.16127  0.67535  1.0000
  S   S943      1.0  0.79032  0.19679  0.64157  1.0000
  S   S944      1.0  0.82428  0.02298  0.70227  1.0000
  H   H7349     1.0  0.79407  0.20555  0.95773  1.0000
  H   H7350     1.0  0.98679  0.07089  0.70188  1.0000
  S   S945      1.0  0.91938  0.21772  0.81497  1.0000
  C   C4134     1.0  0.75957  0.16496  0.66765  1.0000
  H   H7351     1.0  0.81717  0.20431  0.96315  1.0000
  H   H7352     1.0  0.76923  0.05025  0.65139  1.0000
  H   H7353     1.0  0.90004  0.23088  0.71919  1.0000
  H   H7354     1.0  0.77849  0.22881  0.80146  1.0000
  H   H7355     1.0  0.76862  0.14455  0.65519  1.0000
  C   C4135     1.0  0.86076  0.21299  0.77235  1.0000
  H   H7356     1.0  0.94852  0.12758  0.68481  1.0000
  C   C4136     1.0  0.88031  0.16020  0.64994  1.0000
  C   C4137     1.0  0.86651  0.16756  0.66070  1.0000
  C   C4138     1.0  0.85317  0.17880  0.65444  1.0000
  C   C4139     1.0  0.85352  0.18249  0.63747  1.0000
  C   C4140     1.0  0.86722  0.17496  0.62681  1.0000
  C   C4141     1.0  0.88058  0.16391  0.63302  1.0000
  H   H7357     1.0  0.86632  0.16503  0.67372  1.0000
  H   H7358     1.0  0.84290  0.18495  0.66268  1.0000
  H   H7359     1.0  0.86759  0.17776  0.61369  1.0000
  H   H7360     1.0  0.89123  0.15826  0.62466  1.0000
  C   C4142     1.0  0.76388  0.08533  0.66212  1.0000
  C   C4143     1.0  0.77580  0.08104  0.64830  1.0000
  C   C4144     1.0  0.77415  0.09022  0.63234  1.0000
  C   C4145     1.0  0.76083  0.10386  0.63028  1.0000
  H   H7361     1.0  0.76247  0.04753  0.79332  1.0000
  C   C4146     1.0  0.87494  0.22100  0.83783  1.0000
  H   H7362     1.0  0.78598  0.07045  0.64988  1.0000
  H   H7363     1.0  0.78306  0.08668  0.62159  1.0000
  C   C4147     1.0  0.88679  0.99490  0.76132  1.0000
  C   C4148     1.0  0.87506  0.21335  0.58019  1.0000
  C   C4149     1.0  0.84904  0.07297  0.69051  1.0000
  C   C4150     1.0  0.86266  0.08062  0.68498  1.0000
  C   C4151     1.0  0.86585  0.08948  0.69485  1.0000
  C   C4152     1.0  0.85550  0.09063  0.71038  1.0000
  C   C4153     1.0  0.84182  0.08309  0.71584  1.0000
  C   C4154     1.0  0.83859  0.07430  0.70594  1.0000
  H   H7364     1.0  0.87088  0.07951  0.67310  1.0000
  H   H7365     1.0  0.87648  0.09517  0.69056  1.0000
  H   H7366     1.0  0.83384  0.08389  0.72788  1.0000
  H   H7367     1.0  0.82817  0.06833  0.71033  1.0000
  H   H7368     1.0  0.82048  0.04518  0.63086  1.0000
  C   C4155     1.0  0.75065  0.03516  0.66109  1.0000
  C   C4156     1.0  0.76343  0.05270  0.73587  1.0000
  C   C4157     1.0  0.76946  0.03999  0.74831  1.0000
  C   C4158     1.0  0.75964  0.06116  0.62158  1.0000
  H   H7369     1.0  0.77079  0.05473  0.72348  1.0000
  C   C4159     1.0  0.87613  0.11387  0.64624  1.0000
  C   C4160     1.0  0.78516  0.18416  0.89545  1.0000
  S   S946      1.0  0.94123  0.10349  0.71554  1.0000
  C   C4161     1.0  0.82661  0.19279  0.96554  1.0000
  C   C4162     1.0  0.77700  0.19305  0.86898  1.0000
  C   C4163     1.0  0.78369  0.19598  0.88076  1.0000
  C   C4164     1.0  0.95844  0.12495  0.69126  1.0000
  H   H7370     1.0  0.77622  0.20208  0.85748  1.0000
  H   H7371     1.0  0.78787  0.20729  0.87832  1.0000
  C   C4165     1.0  0.77935  0.16964  0.89858  1.0000
  H   H7372     1.0  0.76986  0.03947  0.61128  1.0000
  C   C4166     1.0  0.79274  0.07765  0.73896  1.0000
  C   C4167     1.0  0.91953  0.17733  0.75167  1.0000
  C   C4168     1.0  0.92409  0.16923  0.73849  1.0000
  C   C4169     1.0  0.91200  0.16521  0.73308  1.0000
  C   C4170     1.0  0.89527  0.16917  0.74089  1.0000
  C   C4171     1.0  0.89080  0.17652  0.75461  1.0000
  C   C4172     1.0  0.90289  0.18070  0.75994  1.0000
  H   H7373     1.0  0.93697  0.16604  0.73243  1.0000
  H   H7374     1.0  0.91563  0.15924  0.72272  1.0000
  H   H7375     1.0  0.87795  0.17902  0.76102  1.0000
  H   H7376     1.0  0.89934  0.18655  0.77038  1.0000
  H   H7377     1.0  0.82660  0.03187  0.61614  1.0000
  H   H7378     1.0  0.78181  0.09667  0.78217  1.0000
  S   S947      1.0  0.93083  0.18203  0.80357  1.0000
  H   H7379     1.0  0.87281  0.20792  0.77632  1.0000
  C   C4173     1.0  0.95773  0.11386  0.70664  1.0000
  H   H7380     1.0  0.83053  0.17988  0.90723  1.0000
  C   C4174     1.0  0.74552  0.12637  0.69143  1.0000
  H   H7381     1.0  0.78055  0.16039  0.90986  1.0000
  C   C4175     1.0  0.75930  0.03713  0.76417  1.0000
  C   C4176     1.0  0.87603  0.23095  0.74925  1.0000
  H   H7382     1.0  0.77657  0.19264  0.80523  1.0000
  H   H7383     1.0  0.87144  0.22702  0.72700  1.0000
  H   H7384     1.0  0.98791  0.18632  0.72494  1.0000
  C   C4177     1.0  0.87706  0.19979  0.68665  1.0000
  H   H7385     1.0  0.96226  0.21145  0.69301  1.0000
  H   H7386     1.0  0.98653  0.13902  0.77570  1.0000
  H   H7387     1.0  0.78379  0.00713  0.64745  1.0000
  H   H7388     1.0  0.74287  0.15404  0.81760  1.0000
  C   C4178     1.0  0.82236  0.03226  0.62947  1.0000
  C   C4179     1.0  0.88524  0.22625  0.67019  1.0000
  C   C4180     1.0  0.87594  0.20414  0.84510  1.0000
  H   H7389     1.0  0.74268  0.08064  0.80207  1.0000
  N   N233      1.0  0.83069  0.13191  0.66806  1.0000
  C   C4181     1.0  0.84941  0.12751  0.66343  1.0000
  C   C4182     1.0  0.82558  0.14436  0.67891  1.0000
  C   C4183     1.0  0.82445  0.11631  0.67701  1.0000
  C   C4184     1.0  0.82329  0.13948  0.65298  1.0000
  C   C4185     1.0  0.82972  0.15467  0.64114  1.0000
  C   C4186     1.0  0.85718  0.11682  0.65019  1.0000
  C   C4187     1.0  0.80539  0.11878  0.68393  1.0000
  C   C4188     1.0  0.82990  0.13787  0.69626  1.0000
  C   C4189     1.0  0.82518  0.15188  0.70555  1.0000
  C   C4190     1.0  0.82231  0.16034  0.62576  1.0000
  C   C4191     1.0  0.80059  0.10226  0.69295  1.0000
  H   H7390     1.0  0.85453  0.12046  0.67450  1.0000
  H   H7391     1.0  0.85457  0.13891  0.65915  1.0000
  H   H7392     1.0  0.83161  0.15505  0.67267  1.0000
  H   H7393     1.0  0.81201  0.14981  0.68067  1.0000
  H   H7394     1.0  0.83081  0.10951  0.68735  1.0000
  H   H7395     1.0  0.82772  0.10753  0.66864  1.0000
  H   H7396     1.0  0.82495  0.12995  0.64578  1.0000
  H   H7397     1.0  0.80963  0.14393  0.65670  1.0000
  H   H7398     1.0  0.84341  0.15187  0.63692  1.0000
  H   H7399     1.0  0.82598  0.16520  0.64744  1.0000
  H   H7400     1.0  0.85380  0.10453  0.65466  1.0000
  H   H7401     1.0  0.85305  0.12298  0.63845  1.0000
  H   H7402     1.0  0.79854  0.12406  0.67380  1.0000
  H   H7403     1.0  0.80095  0.12714  0.69276  1.0000
  H   H7404     1.0  0.82311  0.12810  0.70395  1.0000
  H   H7405     1.0  0.84337  0.13261  0.69530  1.0000
  H   H7406     1.0  0.81164  0.15738  0.70726  1.0000
  H   H7407     1.0  0.82833  0.14691  0.71792  1.0000
  H   H7408     1.0  0.83217  0.16174  0.69866  1.0000
  H   H7409     1.0  0.82609  0.15036  0.61870  1.0000
  H   H7410     1.0  0.80854  0.16374  0.62930  1.0000
  H   H7411     1.0  0.82687  0.17141  0.61763  1.0000
  H   H7412     1.0  0.80648  0.09665  0.70374  1.0000
  H   H7413     1.0  0.78689  0.10424  0.69741  1.0000
  H   H7414     1.0  0.80455  0.09358  0.68442  1.0000
  H   H7415     1.0  0.74729  0.18619  0.67849  1.0000
  H   H7416     1.0  0.74342  0.07306  0.72970  1.0000
  C   C4192     1.0  0.79731  0.20085  0.59576  1.0000
  C   C4193     1.0  0.76142  0.21972  0.50651  1.0000
  H   H7417     1.0  0.78004  0.19994  0.51741  1.0000
  N   N234      1.0  0.97760  0.17912  0.70834  1.0000
  H   H7418     1.0  0.97292  0.14045  0.67184  1.0000
  H   H7419     1.0  0.97565  0.15784  0.81164  1.0000
  N   N235      1.0  0.86615  0.02963  0.72819  1.0000
  C   C4194     1.0  0.85047  0.03660  0.73959  1.0000
  C   C4195     1.0  0.87721  0.04207  0.72134  1.0000
  C   C4196     1.0  0.86115  0.02674  0.71385  1.0000
  C   C4197     1.0  0.87528  0.01312  0.73659  1.0000
  C   C4198     1.0  0.88065  0.01274  0.75244  1.0000
  C   C4199     1.0  0.83763  0.02541  0.74727  1.0000
  C   C4200     1.0  0.87539  0.02347  0.69859  1.0000
  C   C4201     1.0  0.87785  0.05268  0.73307  1.0000
  C   C4202     1.0  0.89198  0.06196  0.72572  1.0000
  H   H7420     1.0  0.86782  0.00353  0.73956  1.0000
  C   C4203     1.0  0.82261  0.03373  0.75883  1.0000
  H   H7421     1.0  0.74332  0.15020  0.64410  1.0000
  H   H7422     1.0  0.84404  0.04862  0.73284  1.0000
  H   H7423     1.0  0.85322  0.03972  0.75006  1.0000
  H   H7424     1.0  0.89014  0.03578  0.71636  1.0000
  H   H7425     1.0  0.87302  0.05144  0.71061  1.0000
  H   H7426     1.0  0.85173  0.03762  0.70918  1.0000
  H   H7427     1.0  0.85495  0.01604  0.71798  1.0000
  H   H7428     1.0  0.95645  0.12971  0.82919  1.0000
  H   H7429     1.0  0.88687  0.00841  0.72804  1.0000
  H   H7430     1.0  0.87033  0.01867  0.76138  1.0000
  H   H7431     1.0  0.89117  0.01904  0.74910  1.0000
  H   H7432     1.0  0.83294  0.02301  0.73755  1.0000
  H   H7433     1.0  0.84315  0.01337  0.75466  1.0000
  H   H7434     1.0  0.81183  0.14849  0.96868  1.0000
  H   H7435     1.0  0.87936  0.03519  0.69154  1.0000
  H   H7436     1.0  0.86604  0.06208  0.73492  1.0000
  H   H7437     1.0  0.87947  0.04529  0.74543  1.0000
  H   H7438     1.0  0.90420  0.05309  0.72478  1.0000
  H   H7439     1.0  0.89088  0.06973  0.71325  1.0000
  H   H7440     1.0  0.89141  0.07030  0.73379  1.0000
  H   H7441     1.0  0.75227  0.03749  0.62750  1.0000
  S   S948      1.0  0.81761  0.21853  0.91516  1.0000
  H   H7442     1.0  0.77941  0.03628  0.81478  1.0000
  H   H7443     1.0  0.81593  0.04529  0.75172  1.0000
  H   H7444     1.0  0.81390  0.02524  0.76466  1.0000
  H   H7445     1.0  0.82645  0.03667  0.76881  1.0000
  H   H7446     1.0  0.74607  0.07638  0.89773  1.0000
  H   H7447     1.0  0.93793  0.21644  0.72586  1.0000
  H   H7448     1.0  0.86254  0.21893  0.63005  1.0000
  Fe  Fe479     1.0  0.91637  0.22912  0.78893  1.0000
  H   H7449     1.0  0.83459  0.21839  0.78592  1.0000
  H   H7450     1.0  0.86871  0.18629  0.86718  1.0000
  C   C4204     1.0  0.97080  0.11034  0.71475  1.0000
  H   H7451     1.0  0.75849  0.00053  0.72502  1.0000
  Fe  Fe480     1.0  0.77646  0.22078  0.64893  1.0000
  H   H7452     1.0  0.96747  0.21433  0.71088  1.0000
  H   H7453     1.0  0.78736  0.21107  0.81590  1.0000
  C   C4205     1.0  0.83997  0.16906  0.90341  1.0000
  H   H7454     1.0  0.85214  0.17269  0.89815  1.0000
  C   C4206     1.0  0.76809  0.20715  0.96277  1.0000
  H   H7455     1.0  0.78363  0.20240  0.59948  1.0000
  H   H7456     1.0  0.77657  0.02966  0.66109  1.0000
  C   C4207     1.0  0.74416  0.15804  0.65162  1.0000
  H   H7457     1.0  0.81744  0.17548  0.95799  1.0000
  H   H7458     1.0  0.88639  0.01431  0.70220  1.0000
  H   H7459     1.0  0.96172  0.17606  0.66074  1.0000
  H   H7460     1.0  0.76912  0.06707  0.80638  1.0000
  H   H7461     1.0  0.89796  0.21265  0.63550  1.0000
  C   C4208     1.0  0.84565  0.22779  0.57686  1.0000
  H   H7462     1.0  0.76520  0.22078  0.95790  1.0000
  H   H7463     1.0  0.75404  0.00713  0.70467  1.0000
  H   H7464     1.0  0.74663  0.10503  0.80404  1.0000
  C   C4209     1.0  0.78875  0.08012  0.75663  1.0000
  H   H7465     1.0  0.75324  0.06500  0.63345  1.0000
  C   C4210     1.0  0.75177  0.18216  0.93998  1.0000
  H   H7466     1.0  0.84825  0.22223  0.56592  1.0000
  H   H7467     1.0  0.84239  0.18807  0.78524  1.0000
  C   C4211     1.0  0.76040  0.10238  0.80151  1.0000
  C   C4212     1.0  0.77448  0.06731  0.79299  1.0000
  C   C4213     1.0  0.85860  0.20793  0.69287  1.0000
  C   C4214     1.0  0.85191  0.19939  0.71062  1.0000
  C   C4215     1.0  0.92531  0.17380  0.66022  1.0000
  H   H7468     1.0  0.89740  0.98835  0.75301  1.0000
  H   H7469     1.0  0.83221  0.02426  0.63603  1.0000
  C   C4216     1.0  0.78581  0.99296  0.67858  1.0000
  H   H7470     1.0  0.87716  0.18692  0.68626  1.0000
  H   H7471     1.0  0.80911  0.01291  0.63549  1.0000
  H   H7472     1.0  0.88156  0.22480  0.82526  1.0000
  C   C4217     1.0  0.78435  0.20208  0.96870  1.0000
  H   H7473     1.0  0.82611  0.20649  0.59826  1.0000
  H   H7474     1.0  0.90912  0.19715  0.67751  1.0000
  C   C4218     1.0  0.74447  0.04252  0.67653  1.0000
  H   H7475     1.0  0.89967  0.17407  0.67167  1.0000
  H   H7476     1.0  0.90614  0.21301  0.73502  1.0000
  H   H7477     1.0  0.77520  0.01168  0.61373  1.0000
  H   H7478     1.0  0.77103  0.06619  0.61650  1.0000
  C   C4219     1.0  0.75858  0.16388  0.94700  1.0000
  H   H7479     1.0  0.85079  0.20671  0.68512  1.0000
  H   H7480     1.0  0.85895  0.20058  0.71914  1.0000
  H   H7481     1.0  0.83863  0.20527  0.71461  1.0000
  H   H7482     1.0  0.85290  0.18601  0.71146  1.0000
  H   H7483     1.0  0.92933  0.17161  0.67200  1.0000
  H   H7484     1.0  0.93310  0.18139  0.65015  1.0000
  H   H7485     1.0  0.77514  0.98398  0.63357  1.0000
  H   H7486     1.0  0.79153  0.98311  0.61526  1.0000
  H   H7487     1.0  0.80312  0.02574  0.65035  1.0000
  S   S949      1.0  0.81752  0.99726  0.67492  1.0000
  H   H7488     1.0  0.88105  0.10754  0.65758  1.0000
  H   H7489     1.0  0.75714  0.19254  0.61810  1.0000
  C   C4220     1.0  0.86982  0.01682  0.68674  1.0000
  H   H7490     1.0  0.88150  0.10592  0.63702  1.0000
  H   H7491     1.0  0.76375  0.02711  0.77377  1.0000
  C   C4221     1.0  0.77125  0.17852  0.87212  1.0000
  H   H7492     1.0  0.79667  0.06963  0.76365  1.0000
  H   H7493     1.0  0.75242  0.22060  0.49913  1.0000
  H   H7494     1.0  0.97065  0.23034  0.74147  1.0000
  H   H7495     1.0  0.79625  0.98276  0.63449  1.0000
  H   H7496     1.0  0.88017  0.01484  0.67591  1.0000
  C   C4222     1.0  0.78515  0.03617  0.80154  1.0000
  H   H7497     1.0  0.85738  0.18484  0.79768  1.0000
  H   H7498     1.0  0.89992  0.21027  0.71786  1.0000
  C   C4223     1.0  0.74775  0.06306  0.73938  1.0000
  Fe  Fe481     1.0  0.94305  0.20209  0.80334  1.0000
  C   C4224     1.0  0.74922  0.20469  0.62035  1.0000
  H   H7499     1.0  0.96572  0.16461  0.74242  1.0000
  C   C4225     1.0  0.97660  0.23116  0.83523  1.0000
  H   H7500     1.0  0.87723  0.20801  0.74140  1.0000
  H   H7501     1.0  0.90361  0.18384  0.65006  1.0000
  H   H7502     1.0  0.98490  0.13652  0.81683  1.0000
  H   H7503     1.0  0.74865  0.15841  0.95635  1.0000
  H   H7504     1.0  0.85357  0.20319  0.59237  1.0000
  C   C4226     1.0  0.97595  0.15634  0.73564  1.0000
  C   C4227     1.0  0.90365  0.19947  0.66656  1.0000
  H   H7505     1.0  0.96465  0.16458  0.68930  1.0000
  H   H7506     1.0  0.86048  0.20456  0.76482  1.0000
  C   C4228     1.0  0.89082  0.22872  0.68482  1.0000
  H   H7507     1.0  0.76769  0.15568  0.88956  1.0000
  H   H7508     1.0  0.78133  0.00462  0.68250  1.0000
  H   H7509     1.0  0.79133  0.04997  0.62900  1.0000
  C   C4229     1.0  0.75296  0.22617  0.52267  1.0000
  H   H7510     1.0  0.97642  0.16454  0.76681  1.0000
  H   H7511     1.0  0.84967  0.21479  0.79818  1.0000
  C   C4230     1.0  0.77512  0.04994  0.79036  1.0000
  H   H7512     1.0  0.82144  0.21480  0.82216  1.0000
  N   N236      1.0  0.83155  0.17248  0.86005  1.0000
  C   C4231     1.0  0.82383  0.18783  0.84880  1.0000
  C   C4232     1.0  0.82112  0.15954  0.86502  1.0000
  C   C4233     1.0  0.83171  0.17744  0.87554  1.0000
  C   C4234     1.0  0.84930  0.16564  0.85215  1.0000
  C   C4235     1.0  0.85198  0.15879  0.83657  1.0000
  C   C4236     1.0  0.83235  0.20281  0.84372  1.0000
  C   C4237     1.0  0.83493  0.16309  0.89070  1.0000
  C   C4238     1.0  0.81240  0.15828  0.85194  1.0000
  C   C4239     1.0  0.80474  0.14300  0.85773  1.0000
  C   C4240     1.0  0.87034  0.15499  0.82809  1.0000
  H   H7513     1.0  0.74018  0.11974  0.64293  1.0000
  C   C4241     1.0  0.82105  0.21566  0.58794  1.0000
  H   H7514     1.0  0.81069  0.19223  0.85487  1.0000
  H   H7515     1.0  0.82328  0.18508  0.83716  1.0000
  H   H7516     1.0  0.82864  0.14705  0.86947  1.0000
  H   H7517     1.0  0.81070  0.16210  0.87570  1.0000
  H   H7518     1.0  0.81974  0.18585  0.87979  1.0000
  H   H7519     1.0  0.84122  0.18480  0.87287  1.0000
  H   H7520     1.0  0.85690  0.17510  0.84909  1.0000
  H   H7521     1.0  0.85528  0.15527  0.86104  1.0000
  H   H7522     1.0  0.84531  0.16773  0.82733  1.0000
  H   H7523     1.0  0.84767  0.14697  0.84017  1.0000
  H   H7524     1.0  0.83302  0.20679  0.85466  1.0000
  H   H7525     1.0  0.84508  0.19971  0.83613  1.0000
  H   H7526     1.0  0.84485  0.15251  0.88718  1.0000
  H   H7527     1.0  0.82343  0.15837  0.89696  1.0000
  H   H7528     1.0  0.80221  0.16937  0.84998  1.0000
  H   H7529     1.0  0.82087  0.15758  0.83978  1.0000
  H   H7530     1.0  0.79773  0.14297  0.84866  1.0000
  H   H7531     1.0  0.81457  0.13145  0.85878  1.0000
  H   H7532     1.0  0.79595  0.14314  0.86991  1.0000
  H   H7533     1.0  0.87498  0.16663  0.82292  1.0000
  H   H7534     1.0  0.87788  0.14653  0.83695  1.0000
  H   H7535     1.0  0.87200  0.14893  0.81772  1.0000
  C   C4242     1.0  0.96564  0.14159  0.80361  1.0000
  H   H7536     1.0  0.97416  0.21989  0.78546  1.0000
  H   H7537     1.0  0.76697  0.21981  0.75735  1.0000
  Fe  Fe482     1.0  0.92723  0.19635  0.77839  1.0000
  H   H7538     1.0  0.79611  0.03678  0.61504  1.0000
  S   S950      1.0  0.76935  0.20934  0.67596  1.0000
  N   N237      1.0  0.77526  0.03262  0.63564  1.0000
  C   C4243     1.0  0.77646  0.01430  0.63801  1.0000
  C   C4244     1.0  0.76859  0.03727  0.65231  1.0000
  C   C4245     1.0  0.76401  0.04200  0.62384  1.0000
  C   C4246     1.0  0.79207  0.03697  0.62845  1.0000
  C   C4247     1.0  0.80635  0.02590  0.63696  1.0000
  H   H7539     1.0  0.74193  0.10274  0.67075  1.0000
  C   C4248     1.0  0.98329  0.20273  0.80606  1.0000
  Fe  Fe483     1.0  0.90700  0.19880  0.81295  1.0000
  C   C4249     1.0  0.84548  0.19268  0.79464  1.0000
  C   C4250     1.0  0.75524  0.20860  0.81820  1.0000
  H   H7540     1.0  0.84864  0.21705  0.74149  1.0000
  H   H7541     1.0  0.75526  0.20964  0.91457  1.0000
  Fe  Fe484     1.0  0.79861  0.21292  0.90525  1.0000
  H   H7542     1.0  0.82080  0.22470  0.73551  1.0000
  C   C4251     1.0  0.95935  0.20901  0.70670  1.0000
  C   C4252     1.0  0.84683  0.21082  0.78820  1.0000
  C   C4253     1.0  0.77042  0.20152  0.51040  1.0000
  H   H7543     1.0  0.75190  0.20101  0.90007  1.0000
  N   N238      1.0  0.76487  0.08195  0.78256  1.0000
  C   C4254     1.0  0.76523  0.11797  0.80220  1.0000
  S   S951      1.0  0.80401  0.22983  0.88031  1.0000
  H   H7544     1.0  0.76399  0.01128  0.64307  1.0000
  H   H7545     1.0  0.97022  0.10180  0.72667  1.0000
  H   H7546     1.0  0.88074  0.22239  0.61413  1.0000
  H   H7547     1.0  0.79227  0.09179  0.75613  1.0000
  H   H7548     1.0  0.98270  0.19293  0.68282  1.0000
  H   H7549     1.0  0.96832  0.19398  0.75496  1.0000
  H   H7550     1.0  0.95970  0.18944  0.72808  1.0000
  H   H7551     1.0  0.76333  0.09239  0.75697  1.0000
  H   H7552     1.0  0.82583  0.20944  0.57728  1.0000
  H   H7553     1.0  0.95076  0.18603  0.71354  1.0000
  H   H7554     1.0  0.76623  0.07062  0.76248  1.0000
  H   H7555     1.0  0.83548  0.19154  0.80598  1.0000
  H   H7556     1.0  0.87756  0.20825  0.56899  1.0000
  H   H7557     1.0  0.78504  0.08776  0.73129  1.0000
  C   C4255     1.0  0.89751  0.21864  0.72644  1.0000
  H   H7558     1.0  0.80995  0.22199  0.84088  1.0000
  H   H7559     1.0  0.96018  0.15079  0.79366  1.0000
  H   H7560     1.0  0.96523  0.15852  0.71515  1.0000
  C   C4256     1.0  0.96143  0.19028  0.71465  1.0000
  C   C4257     1.0  0.77059  0.20606  0.80380  1.0000
  C   C4258     1.0  0.97316  0.13869  0.74288  1.0000
  C   C4259     1.0  0.90695  0.18241  0.66202  1.0000
  C   C4260     1.0  0.76820  0.09766  0.78440  1.0000
  H   H7561     1.0  0.77077  0.22692  0.49862  1.0000
  C   C4261     1.0  0.95200  0.14014  0.81938  1.0000
  H   H7562     1.0  0.93282  0.21389  0.70780  1.0000
  H   H7563     1.0  0.74318  0.05620  0.67300  1.0000
  C   C4262     1.0  0.85731  0.21135  0.87027  1.0000
  H   H7564     1.0  0.94811  0.15179  0.82404  1.0000
  H   H7565     1.0  0.78537  0.02394  0.79936  1.0000
  H   H7566     1.0  0.80282  0.19156  0.60570  1.0000
  H   H7567     1.0  0.84108  0.15892  0.91457  1.0000
  C   C4263     1.0  0.75844  0.15482  0.65793  1.0000
  C   C4264     1.0  0.97229  0.13218  0.68392  1.0000
  H   H7568     1.0  0.80172  0.19614  0.58416  1.0000
  C   C4265     1.0  0.97649  0.16136  0.71675  1.0000
  C   C4266     1.0  0.86736  0.19933  0.86138  1.0000
  H   H7569     1.0  0.77658  0.19724  0.49868  1.0000
  C   C4267     1.0  0.96688  0.17723  0.68363  1.0000
  S   S952      1.0  0.76380  0.17457  0.85693  1.0000
  S   S953      1.0  0.90214  0.21138  0.78770  1.0000
  H   H7570     1.0  0.84558  0.20442  0.94753  1.0000
  H   H7571     1.0  0.82912  0.22823  0.82974  1.0000
  S   S954      1.0  0.94126  0.21529  0.77733  1.0000
  H   H7572     1.0  0.86613  0.00480  0.69298  1.0000
  H   H7573     1.0  0.95506  0.18635  0.68644  1.0000
  H   H7574     1.0  0.92727  0.16157  0.65710  1.0000
  C   C4268     1.0  0.85666  0.21561  0.58863  1.0000
  H   H7575     1.0  0.76705  0.21050  0.79161  1.0000
  C   C4269     1.0  0.77004  0.08116  0.76453  1.0000
  H   H7576     1.0  0.76460  0.09222  0.81163  1.0000
  H   H7577     1.0  0.85070  0.20761  0.88287  1.0000
  H   H7578     1.0  0.76146  0.19361  0.51780  1.0000
  H   H7579     1.0  0.76249  0.18763  0.93265  1.0000
  H   H7580     1.0  0.82762  0.22704  0.61005  1.0000
  H   H7581     1.0  0.79471  0.21252  0.79387  1.0000
  H   H7582     1.0  0.74549  0.21464  0.93998  1.0000
  H   H7583     1.0  0.80601  0.07763  0.73329  1.0000
  H   H7584     1.0  0.74501  0.16369  0.79578  1.0000
  H   H7585     1.0  0.96778  0.22275  0.84092  1.0000
  Fe  Fe485     1.0  0.74635  0.15737  0.86875  1.0000
  C   C4270     1.0  0.74980  0.10877  0.64424  1.0000
  C   C4271     1.0  0.78357  0.21518  0.80381  1.0000
  H   H7586     1.0  0.75321  0.03710  0.68501  1.0000
  H   H7587     1.0  0.94099  0.13779  0.81676  1.0000
  H   H7588     1.0  0.88210  0.23109  0.63813  1.0000
  H   H7589     1.0  0.83291  0.21631  0.76011  1.0000
  H   H7590     1.0  0.75270  0.22160  0.81956  1.0000
  C   C4272     1.0  0.75048  0.99958  0.71730  1.0000
  H   H7591     1.0  0.78110  0.04877  0.77743  1.0000
  S   S955      1.0  0.75217  0.12981  0.87787  1.0000
  H   H7592     1.0  0.87898  0.22537  0.57665  1.0000
  H   H7593     1.0  0.78944  0.17729  0.96557  1.0000
  H   H7594     1.0  0.91129  0.20720  0.65639  1.0000
  S   S956      1.0  0.96591  0.19360  0.81420  1.0000
  H   H7595     1.0  0.85686  0.22126  0.69264  1.0000
  C   C4273     1.0  0.75101  0.09928  0.66006  1.0000
  C   C4274     1.0  0.78390  0.00703  0.62226  1.0000
  C   C4275     1.0  0.87701  0.20887  0.65699  1.0000
  H   H7596     1.0  0.75306  0.22314  0.87425  1.0000
  C   C4276     1.0  0.80191  0.21750  0.59314  1.0000
  C   C4277     1.0  0.81942  0.17701  0.96970  1.0000
  C   C4278     1.0  0.88440  0.21750  0.63913  1.0000
  H   H7597     1.0  0.97200  0.13570  0.75647  1.0000
  H   H7598     1.0  0.90248  0.21982  0.68706  1.0000
  S   S957      1.0  0.79934  0.22724  0.65072  1.0000
  H   H7599     1.0  0.74916  0.11382  0.69918  1.0000
  Fe  Fe486     1.0  0.79353  0.21367  0.67731  1.0000
  H   H7600     1.0  0.75343  0.13443  0.69192  1.0000
  C   C4279     1.0  0.94153  0.21831  0.71215  1.0000
  H   H7601     1.0  0.97907  0.19921  0.76748  1.0000
  H   H7602     1.0  0.75913  0.20098  0.82978  1.0000
  H   H7603     1.0  0.88395  0.19825  0.69640  1.0000
  H   H7604     1.0  0.96576  0.17573  0.78300  1.0000
  C   C4280     1.0  0.98060  0.14642  0.80650  1.0000
  H   H7605     1.0  0.86386  0.21559  0.65975  1.0000
  H   H7606     1.0  0.74657  0.20423  0.63383  1.0000
  C   C4281     1.0  0.87629  0.21497  0.62657  1.0000
  H   H7607     1.0  0.74607  0.11391  0.95508  1.0000
  C   C4282     1.0  0.77454  0.98464  0.67691  1.0000
  C   C4283     1.0  0.97743  0.17324  0.77364  1.0000
  H   H7608     1.0  0.96151  0.13752  0.74045  1.0000
  H   H7609     1.0  0.74789  0.12515  0.67844  1.0000
  H   H7610     1.0  0.76357  0.15672  0.93710  1.0000
  H   H7611     1.0  0.75027  0.02180  0.66510  1.0000
  H   H7612     1.0  0.85506  0.22016  0.59995  1.0000
  H   H7613     1.0  0.74432  0.07033  0.78644  1.0000
  C   C4284     1.0  0.84090  0.19289  0.95031  1.0000
  H   H7614     1.0  0.79595  0.01036  0.61552  1.0000
  H   H7615     1.0  0.76871  0.16278  0.95319  1.0000
  C   C4285     1.0  0.74448  0.18695  0.81373  1.0000
  H   H7616     1.0  0.76326  0.22535  0.52859  1.0000
  H   H7617     1.0  0.75050  0.17808  0.82368  1.0000
  H   H7618     1.0  0.98374  0.12958  0.73745  1.0000
  H   H7619     1.0  0.96941  0.12935  0.80014  1.0000
  H   H7620     1.0  0.79815  0.03767  0.79875  1.0000
  H   H7621     1.0  0.85126  0.18205  0.95257  1.0000
  S   S958      1.0  0.77752  0.23150  0.91610  1.0000
  H   H7622     1.0  0.76929  0.20090  0.95268  1.0000
  H   H7623     1.0  0.98336  0.16961  0.66146  1.0000
  H   H7624     1.0  0.87972  0.20170  0.62588  1.0000
  H   H7625     1.0  0.98855  0.22333  0.85581  1.0000
  C   C4286     1.0  0.74645  0.17830  0.67104  1.0000
  H   H7626     1.0  0.97682  0.06308  0.68169  1.0000
  H   H7627     1.0  0.79683  0.22184  0.60492  1.0000
  C   C4287     1.0  0.74820  0.06936  0.60943  1.0000
  C   C4288     1.0  0.74533  0.20930  0.90885  1.0000
  C   C4289     1.0  0.74669  0.08165  0.78844  1.0000
  H   H7628     1.0  0.88256  0.20449  0.58889  1.0000
  S   S959      1.0  0.79700  0.22322  0.69766  1.0000
  H   H7629     1.0  0.74570  0.18799  0.95077  1.0000
  H   H7630     1.0  0.75611  0.21463  0.61355  1.0000
  C   C4290     1.0  0.97900  0.18960  0.76114  1.0000
  H   H7631     1.0  0.85918  0.02583  0.68211  1.0000
  C   C4291     1.0  0.98425  0.21549  0.79187  1.0000
  H   H7632     1.0  0.73941  0.08360  0.83520  1.0000
  H   H7633     1.0  0.75425  0.06639  0.59710  1.0000
  H   H7634     1.0  0.89101  0.99497  0.77238  1.0000
  H   H7635     1.0  0.74174  0.04150  0.65296  1.0000
  H   H7636     1.0  0.82289  0.22335  0.66797  1.0000
  H   H7637     1.0  0.74549  0.08306  0.60794  1.0000
  C   C4292     1.0  0.98449  0.11786  0.70757  1.0000
  H   H7638     1.0  0.79555  0.22637  0.58358  1.0000
  C   C4293     1.0  0.73978  0.22723  0.89878  1.0000
  H   H7639     1.0  0.98727  0.15262  0.71089  1.0000
  H   H7640     1.0  0.88680  0.22699  0.75537  1.0000
  H   H7641     1.0  0.88104  0.22703  0.69629  1.0000
  H   H7642     1.0  0.87663  0.98800  0.76549  1.0000
  C   C4294     1.0  0.78685  0.98808  0.62671  1.0000
  C   C4295     1.0  0.98533  0.12870  0.69206  1.0000
  H   H7643     1.0  0.74510  0.17674  0.91974  1.0000
  C   C4296     1.0  0.74018  0.22770  0.88078  1.0000
  N   N239      1.0  0.86008  0.23050  0.76225  1.0000
  H   H7644     1.0  0.81530  0.22887  0.55735  1.0000
  H   H7645     1.0  0.98777  0.15678  0.73824  1.0000
  C   C4297     1.0  0.97167  0.17873  0.66489  1.0000
  H   H7646     1.0  0.97336  0.19145  0.65838  1.0000
  C   C4298     1.0  0.98073  0.18048  0.68992  1.0000
  N   N240      1.0  0.82725  0.23142  0.58415  1.0000
  H   H7647     1.0  0.75384  0.18621  0.80195  1.0000
  N   N241      1.0  0.73983  0.20439  0.81673  1.0000
  H   H7648     1.0  0.96256  0.26558  0.11705  1.0000
  H   H7649     1.0  0.83195  0.27685  0.24923  1.0000
  H   H7650     1.0  0.75844  0.30927  0.44089  1.0000
  C   C4299     1.0  0.75361  0.47918  0.22811  1.0000
  C   C4300     1.0  0.76459  0.26332  0.00833  1.0000
  C   C4301     1.0  0.76905  0.28672  0.34442  1.0000
  C   C4302     1.0  0.90653  0.26999  0.18461  1.0000
  C   C4303     1.0  0.79610  0.32250  0.27647  1.0000
  H   H7651     1.0  0.79819  0.31679  0.30219  1.0000
  H   H7652     1.0  0.84413  0.32108  0.21619  1.0000
  C   C4304     1.0  0.87648  0.25753  0.08909  1.0000
  C   C4305     1.0  0.82088  0.26648  0.27432  1.0000
  C   C4306     1.0  0.77500  0.23935  0.37835  1.0000
  C   C4307     1.0  0.85986  0.29771  0.21045  1.0000
  C   C4308     1.0  0.77432  0.24995  0.25707  1.0000
  N   N242      1.0  0.74187  0.44346  0.33553  1.0000
  H   H7653     1.0  0.76810  0.30816  0.01732  1.0000
  C   C4309     1.0  0.76232  0.31385  0.29419  1.0000
  Fe  Fe487     1.0  0.80709  0.26097  0.04366  1.0000
  H   H7654     1.0  0.76370  0.40728  0.30668  1.0000
  S   S960      1.0  0.79544  0.28791  0.04292  1.0000
  C   C4310     1.0  0.76928  0.31209  0.32089  1.0000
  S   S961      1.0  0.87359  0.24768  0.17619  1.0000
  C   C4311     1.0  0.74329  0.31700  0.30113  1.0000
  H   H7655     1.0  0.88699  0.31216  0.21027  1.0000
  S   S962      1.0  0.89605  0.27406  0.13560  1.0000
  C   C4312     1.0  0.75237  0.30838  0.45382  1.0000
  Fe  Fe488     1.0  0.76070  0.33478  0.21042  1.0000
  N   N243      1.0  0.75844  0.24690  0.25537  1.0000
  S   S963      1.0  0.74507  0.36069  0.21014  1.0000
  Fe  Fe489     1.0  0.79380  0.31236  0.19880  1.0000
  S   S964      1.0  0.78577  0.28889  0.21387  1.0000
  S   S965      1.0  0.81818  0.31319  0.18052  1.0000
  Fe  Fe490     1.0  0.76223  0.30064  0.20486  1.0000
  H   H7656     1.0  0.88736  0.24407  0.24459  1.0000
  Fe  Fe491     1.0  0.77399  0.30356  0.23364  1.0000
  S   S966      1.0  0.77128  0.29295  0.26081  1.0000
  S   S967      1.0  0.77091  0.32323  0.18834  1.0000
  S   S968      1.0  0.78440  0.32596  0.21961  1.0000
  H   H7657     1.0  0.81884  0.30341  0.27291  1.0000
  H   H7658     1.0  0.94265  0.24175  0.07961  1.0000
  S   S969      1.0  0.83457  0.25303  0.03446  1.0000
  H   H7659     1.0  0.82144  0.32186  0.27728  1.0000
  H   H7660     1.0  0.75366  0.34186  0.30702  1.0000
  H   H7661     1.0  0.87849  0.29079  0.16438  1.0000
  H   H7662     1.0  0.75310  0.33936  0.24022  1.0000
  H   H7663     1.0  0.77219  0.31446  0.46034  1.0000
  C   C4313     1.0  0.92660  0.23248  0.07026  1.0000
  H   H7664     1.0  0.92271  0.24555  0.18885  1.0000
  C   C4314     1.0  0.76241  0.30380  0.14982  1.0000
  C   C4315     1.0  0.76250  0.29767  0.16664  1.0000
  H   H7665     1.0  0.85808  0.28498  0.21203  1.0000
  C   C4316     1.0  0.91011  0.25205  0.19435  1.0000
  H   H7666     1.0  0.83377  0.30881  0.21002  1.0000
  H   H7667     1.0  0.77237  0.29888  0.17143  1.0000
  H   H7668     1.0  0.79029  0.31853  0.26860  1.0000
  C   C4317     1.0  0.79088  0.27374  0.28194  1.0000
  C   C4318     1.0  0.79044  0.28326  0.26595  1.0000
  C   C4319     1.0  0.80522  0.28466  0.25419  1.0000
  C   C4320     1.0  0.82050  0.27626  0.25840  1.0000
  H   H7669     1.0  0.77946  0.27246  0.29097  1.0000
  H   H7670     1.0  0.80489  0.29199  0.24180  1.0000
  C   C4321     1.0  0.96686  0.28604  0.14373  1.0000
  H   H7671     1.0  0.97510  0.24498  0.18743  1.0000
  H   H7672     1.0  0.95957  0.29241  0.15348  1.0000
  H   H7673     1.0  0.76304  0.43066  0.34661  1.0000
  C   C4322     1.0  0.85680  0.26497  0.17690  1.0000
  C   C4323     1.0  0.84620  0.26705  0.19216  1.0000
  C   C4324     1.0  0.83354  0.28138  0.19324  1.0000
  C   C4325     1.0  0.83180  0.29393  0.17908  1.0000
  C   C4326     1.0  0.84223  0.29175  0.16379  1.0000
  C   C4327     1.0  0.85443  0.27712  0.16264  1.0000
  H   H7674     1.0  0.84815  0.25788  0.20325  1.0000
  H   H7675     1.0  0.82569  0.28311  0.20512  1.0000
  H   H7676     1.0  0.84092  0.30145  0.15282  1.0000
  H   H7677     1.0  0.86219  0.27545  0.15074  1.0000
  C   C4328     1.0  0.77378  0.29151  0.04967  1.0000
  C   C4329     1.0  0.76493  0.30698  0.05306  1.0000
  H   H7678     1.0  0.79388  0.30086  0.29583  1.0000
  H   H7679     1.0  0.83644  0.28548  0.98256  1.0000
  C   C4330     1.0  0.74161  0.25838  0.34447  1.0000
  C   C4331     1.0  0.76526  0.27914  0.05159  1.0000
  H   H7680     1.0  0.77149  0.31653  0.05174  1.0000
  C   C4332     1.0  0.97336  0.23458  0.15596  1.0000
  H   H7681     1.0  0.78391  0.28654  0.32002  1.0000
  H   H7682     1.0  0.77208  0.26708  0.04933  1.0000
  S   S970      1.0  0.74017  0.27591  0.38336  1.0000
  C   C4333     1.0  0.74761  0.31002  0.05852  1.0000
  H   H7683     1.0  0.90983  0.32708  0.19596  1.0000
  C   C4334     1.0  0.79539  0.28053  0.99688  1.0000
  H   H7684     1.0  0.93714  0.25439  0.06056  1.0000
  C   C4335     1.0  0.78590  0.25015  0.37324  1.0000
  C   C4336     1.0  0.79767  0.24993  0.35829  1.0000
  H   H7685     1.0  0.85778  0.30310  0.18543  1.0000
  C   C4337     1.0  0.74770  0.45079  0.23231  1.0000
  H   H7686     1.0  0.83790  0.24216  0.34248  1.0000
  H   H7687     1.0  0.76706  0.30041  0.29433  1.0000
  C   C4338     1.0  0.74752  0.35165  0.24246  1.0000
  H   H7688     1.0  0.79538  0.28133  0.00958  1.0000
  H   H7689     1.0  0.76982  0.27315  0.34766  1.0000
  H   H7690     1.0  0.74598  0.46559  0.31688  1.0000
  H   H7691     1.0  0.77901  0.24905  0.19789  1.0000
  H   H7692     1.0  0.82905  0.26710  0.99429  1.0000
  H   H7693     1.0  0.76604  0.26243  0.22171  1.0000
  H   H7694     1.0  0.77741  0.37139  0.30840  1.0000
  C   C4339     1.0  0.93246  0.24668  0.07276  1.0000
  S   S971      1.0  0.80026  0.24595  0.03019  1.0000
  H   H7695     1.0  0.74842  0.47784  0.27529  1.0000
  C   C4340     1.0  0.77170  0.33198  0.00273  1.0000
  H   H7696     1.0  0.74018  0.44256  0.31130  1.0000
  C   C4341     1.0  0.88539  0.29927  0.16594  1.0000
  C   C4342     1.0  0.74204  0.36453  0.22987  1.0000
  C   C4343     1.0  0.77698  0.34684  0.30637  1.0000
  H   H7697     1.0  0.86562  0.32192  0.16148  1.0000
  H   H7698     1.0  0.79292  0.33624  0.27413  1.0000
  H   H7699     1.0  0.75008  0.39377  0.37663  1.0000
  S   S972      1.0  0.83959  0.25424  0.27900  1.0000
  S   S973      1.0  0.88830  0.26933  0.09328  1.0000
  H   H7700     1.0  0.76081  0.42629  0.29104  1.0000
  H   H7701     1.0  0.74565  0.43963  0.36025  1.0000
  H   H7702     1.0  0.80816  0.24717  0.24147  1.0000
  H   H7703     1.0  0.76619  0.47392  0.22134  1.0000
  H   H7704     1.0  0.78447  0.24697  0.22491  1.0000
  H   H7705     1.0  0.74777  0.27125  0.27523  1.0000
  H   H7706     1.0  0.75037  0.24525  0.02430  1.0000
  C   C4344     1.0  0.87216  0.26179  0.07361  1.0000
  H   H7707     1.0  0.92449  0.30737  0.19541  1.0000
  H   H7708     1.0  0.74638  0.40844  0.34867  1.0000
  H   H7709     1.0  0.89849  0.29534  0.15937  1.0000
  H   H7710     1.0  0.75857  0.33665  0.00154  1.0000
  H   H7711     1.0  0.82406  0.28501  0.00331  1.0000
  H   H7712     1.0  0.75303  0.28931  0.00700  1.0000
  S   S974      1.0  0.75213  0.30249  0.39693  1.0000
  C   C4345     1.0  0.78898  0.23456  0.25810  1.0000
  H   H7713     1.0  0.80778  0.30121  0.98226  1.0000
  H   H7714     1.0  0.91370  0.31286  0.21496  1.0000
  C   C4346     1.0  0.79038  0.31449  0.29502  1.0000
  H   H7715     1.0  0.76062  0.44637  0.22574  1.0000
  H   H7716     1.0  0.80045  0.25362  0.12710  1.0000
  H   H7717     1.0  0.77995  0.33758  0.99138  1.0000
  C   C4347     1.0  0.86311  0.25240  0.06980  1.0000
  H   H7718     1.0  0.76414  0.31993  0.28085  1.0000
  H   H7719     1.0  0.77653  0.34205  0.31981  1.0000
  S   S975      1.0  0.74880  0.31172  0.12293  1.0000
  H   H7720     1.0  0.75399  0.41107  0.46543  1.0000
  C   C4348     1.0  0.76010  0.31139  0.46486  1.0000
  C   C4349     1.0  0.76498  0.42929  0.31384  1.0000
  H   H7721     1.0  0.74633  0.46587  0.35272  1.0000
  H   H7722     1.0  0.75183  0.27304  0.24408  1.0000
  H   H7723     1.0  0.79852  0.26702  0.99715  1.0000
  H   H7724     1.0  0.78224  0.31289  0.97939  1.0000
  C   C4350     1.0  0.74622  0.43455  0.32152  1.0000
  H   H7725     1.0  0.77199  0.31007  0.14177  1.0000
  H   H7726     1.0  0.77223  0.25468  0.26843  1.0000
  H   H7727     1.0  0.90960  0.25163  0.20748  1.0000
  H   H7728     1.0  0.76202  0.28900  0.32184  1.0000
  H   H7729     1.0  0.77883  0.28922  0.34899  1.0000
  C   C4351     1.0  0.82515  0.23430  0.98375  1.0000
  C   C4352     1.0  0.76120  0.23995  0.24027  1.0000
  H   H7730     1.0  0.87599  0.27228  0.06445  1.0000
  C   C4353     1.0  0.75379  0.25659  0.02491  1.0000
  H   H7731     1.0  0.87525  0.32955  0.13135  1.0000
  N   N244      1.0  0.80635  0.28103  0.10001  1.0000
  C   C4354     1.0  0.78763  0.28426  0.10359  1.0000
  C   C4355     1.0  0.81138  0.28877  0.11113  1.0000
  C   C4356     1.0  0.81210  0.28985  0.08233  1.0000
  C   C4357     1.0  0.81458  0.26276  0.10183  1.0000
  C   C4358     1.0  0.80493  0.25025  0.11488  1.0000
  C   C4359     1.0  0.78035  0.28017  0.09096  1.0000
  C   C4360     1.0  0.83080  0.29027  0.07681  1.0000
  C   C4361     1.0  0.80651  0.28180  0.12999  1.0000
  C   C4362     1.0  0.81069  0.29195  0.13977  1.0000
  S   S976      1.0  0.74973  0.31324  0.22593  1.0000
  C   C4363     1.0  0.76194  0.28007  0.09732  1.0000
  C   C4364     1.0  0.83636  0.29442  0.05796  1.0000
  H   H7732     1.0  0.78218  0.29763  0.10380  1.0000
  H   H7733     1.0  0.78249  0.27752  0.11613  1.0000
  H   H7734     1.0  0.82510  0.28720  0.10836  1.0000
  H   H7735     1.0  0.80614  0.30243  0.10868  1.0000
  H   H7736     1.0  0.80493  0.30296  0.08001  1.0000
  H   H7737     1.0  0.80954  0.28391  0.07358  1.0000
  H   H7738     1.0  0.81721  0.25881  0.08988  1.0000
  H   H7739     1.0  0.82705  0.26046  0.10463  1.0000
  C   C4365     1.0  0.76569  0.28136  0.00716  1.0000
  H   H7740     1.0  0.75221  0.41239  0.38089  1.0000
  H   H7741     1.0  0.78148  0.28987  0.07941  1.0000
  H   H7742     1.0  0.78705  0.26803  0.08783  1.0000
  H   H7743     1.0  0.83856  0.27817  0.08157  1.0000
  H   H7744     1.0  0.83322  0.29994  0.08161  1.0000
  H   H7745     1.0  0.79305  0.28202  0.13426  1.0000
  H   H7746     1.0  0.81370  0.26890  0.13321  1.0000
  H   H7747     1.0  0.80719  0.28667  0.15325  1.0000
  H   H7748     1.0  0.82422  0.29163  0.13646  1.0000
  H   H7749     1.0  0.80373  0.30505  0.13728  1.0000
  C   C4366     1.0  0.77458  0.30693  0.99103  1.0000
  H   H7750     1.0  0.78935  0.30907  0.00744  1.0000
  Fe  Fe492     1.0  0.83289  0.23296  0.05763  1.0000
  H   H7751     1.0  0.75480  0.29268  0.09877  1.0000
  H   H7752     1.0  0.92205  0.25474  0.07974  1.0000
  H   H7753     1.0  0.75972  0.27107  0.10932  1.0000
  H   H7754     1.0  0.82883  0.30650  0.05265  1.0000
  H   H7755     1.0  0.84962  0.29521  0.05443  1.0000
  H   H7756     1.0  0.83505  0.28456  0.05262  1.0000
  H   H7757     1.0  0.91620  0.27599  0.18518  1.0000
  S   S977      1.0  0.78555  0.26321  0.38591  1.0000
  C   C4367     1.0  0.74954  0.30253  0.14357  1.0000
  H   H7758     1.0  0.75898  0.26288  0.99834  1.0000
  H   H7759     1.0  0.75292  0.24279  0.06769  1.0000
  H   H7760     1.0  0.87987  0.27288  0.19036  1.0000
  H   H7761     1.0  0.80601  0.25838  0.35422  1.0000
  H   H7762     1.0  0.88628  0.32570  0.15590  1.0000
  H   H7763     1.0  0.74094  0.39280  0.17109  1.0000
  C   C4368     1.0  0.98498  0.27364  0.18593  1.0000
  C   C4369     1.0  0.98573  0.27026  0.11815  1.0000
  H   H7764     1.0  0.74715  0.44782  0.24583  1.0000
  H   H7765     1.0  0.79392  0.24974  0.11083  1.0000
  H   H7766     1.0  0.87207  0.30865  0.13757  1.0000
  H   H7767     1.0  0.75734  0.27664  0.08818  1.0000
  H   H7768     1.0  0.75670  0.29283  0.35076  1.0000
  H   H7769     1.0  0.86841  0.29695  0.21828  1.0000
  C   C4370     1.0  0.77010  0.36559  0.30368  1.0000
  H   H7770     1.0  0.86017  0.25558  0.05772  1.0000
  C   C4371     1.0  0.87881  0.31695  0.15610  1.0000
  C   C4372     1.0  0.91249  0.31375  0.20221  1.0000
  H   H7771     1.0  0.90095  0.24538  0.19380  1.0000
  H   H7772     1.0  0.98116  0.28159  0.17448  1.0000
  C   C4373     1.0  0.87530  0.24171  0.24454  1.0000
  H   H7773     1.0  0.95850  0.23291  0.14003  1.0000
  H   H7774     1.0  0.76154  0.31227  0.98962  1.0000
  H   H7775     1.0  0.74112  0.42321  0.32530  1.0000
  Fe  Fe493     1.0  0.89372  0.24961  0.15287  1.0000
  S   S978      1.0  0.93708  0.28100  0.14216  1.0000
  H   H7776     1.0  0.78450  0.23693  0.98512  1.0000
  H   H7777     1.0  0.75440  0.47594  0.24138  1.0000
  C   C4374     1.0  0.81018  0.28750  0.98469  1.0000
  H   H7778     1.0  0.77800  0.31500  0.32658  1.0000
  H   H7779     1.0  0.78208  0.27083  0.97769  1.0000
  C   C4375     1.0  0.88885  0.27933  0.19174  1.0000
  H   H7780     1.0  0.74084  0.32189  0.06141  1.0000
  C   C4376     1.0  0.86654  0.30493  0.19186  1.0000
  H   H7781     1.0  0.77036  0.44036  0.30752  1.0000
  Fe  Fe494     1.0  0.92341  0.26540  0.13537  1.0000
  C   C4377     1.0  0.87987  0.31679  0.13814  1.0000
  H   H7782     1.0  0.75130  0.23865  0.28198  1.0000
  H   H7783     1.0  0.81595  0.23491  0.20340  1.0000
  N   N245      1.0  0.77217  0.31971  0.30259  1.0000
  H   H7784     1.0  0.87430  0.24070  0.11287  1.0000
  N   N246      1.0  0.88429  0.29762  0.18413  1.0000
  H   H7785     1.0  0.88768  0.27711  0.20527  1.0000
  H   H7786     1.0  0.77089  0.37119  0.29029  1.0000
  H   H7787     1.0  0.75047  0.34467  0.26754  1.0000
  H   H7788     1.0  0.90860  0.30346  0.17739  1.0000
  H   H7789     1.0  0.89200  0.32056  0.18042  1.0000
  C   C4378     1.0  0.80610  0.26541  0.28613  1.0000
  H   H7790     1.0  0.86781  0.25334  0.23836  1.0000
  H   H7791     1.0  0.78119  0.41627  0.29497  1.0000
  C   C4379     1.0  0.84303  0.30826  0.21709  1.0000
  H   H7792     1.0  0.86870  0.23807  0.25759  1.0000
  C   C4380     1.0  0.77640  0.31306  0.00567  1.0000
  H   H7793     1.0  0.77846  0.26013  0.24680  1.0000
  C   C4381     1.0  0.77137  0.29293  0.32572  1.0000
  C   C4382     1.0  0.89847  0.30559  0.20298  1.0000
  C   C4383     1.0  0.76777  0.41918  0.30085  1.0000
  S   S979      1.0  0.83882  0.23216  0.99665  1.0000
  C   C4384     1.0  0.89615  0.30707  0.18542  1.0000
  C   C4385     1.0  0.74786  0.28248  0.05623  1.0000
  Fe  Fe495     1.0  0.90056  0.26019  0.11548  1.0000
  H   H7794     1.0  0.79014  0.34478  0.29960  1.0000
  H   H7795     1.0  0.90169  0.29249  0.20959  1.0000
  C   C4386     1.0  0.95894  0.27901  0.13594  1.0000
  H   H7796     1.0  0.77194  0.42152  0.32340  1.0000
  H   H7797     1.0  0.83839  0.30273  0.23029  1.0000
  H   H7798     1.0  0.89293  0.31234  0.13189  1.0000
  H   H7799     1.0  0.85711  0.23657  0.22524  1.0000
  C   C4387     1.0  0.74969  0.29031  0.17722  1.0000
  H   H7800     1.0  0.75350  0.25201  0.08405  1.0000
  H   H7801     1.0  0.77699  0.25487  0.00713  1.0000
  S   S980      1.0  0.92072  0.24158  0.15389  1.0000
  H   H7802     1.0  0.76071  0.25329  0.03492  1.0000
  H   H7803     1.0  0.90777  0.26958  0.17157  1.0000
  N   N247      1.0  0.77850  0.28835  0.99294  1.0000
  C   C4388     1.0  0.96850  0.27098  0.12320  1.0000
  H   H7804     1.0  0.74225  0.26591  0.02811  1.0000
  Fe  Fe496     1.0  0.75935  0.27526  0.39665  1.0000
  C   C4389     1.0  0.74914  0.45879  0.32905  1.0000
  C   C4390     1.0  0.82586  0.28085  0.99168  1.0000
  C   C4391     1.0  0.74359  0.47161  0.34030  1.0000
  H   H7805     1.0  0.86459  0.31863  0.19005  1.0000
  H   H7806     1.0  0.76660  0.34431  0.28707  1.0000
  C   C4392     1.0  0.74600  0.26329  0.25353  1.0000
  C   C4393     1.0  0.80555  0.23967  0.25428  1.0000
  H   H7807     1.0  0.80532  0.24707  0.26306  1.0000
  H   H7808     1.0  0.80641  0.25788  0.29845  1.0000
  C   C4394     1.0  0.87140  0.24396  0.10082  1.0000
  H   H7809     1.0  0.85417  0.24517  0.35005  1.0000
  H   H7810     1.0  0.74123  0.27305  0.05742  1.0000
  C   C4395     1.0  0.98413  0.28509  0.13884  1.0000
  C   C4396     1.0  0.76674  0.33834  0.30028  1.0000
  S   S981      1.0  0.92831  0.25443  0.11316  1.0000
  C   C4397     1.0  0.77137  0.24893  0.22410  1.0000
  H   H7811     1.0  0.81859  0.32226  0.25717  1.0000
  C   C4398     1.0  0.81490  0.31716  0.27066  1.0000
  H   H7812     1.0  0.75667  0.31770  0.32742  1.0000
  C   C4399     1.0  0.74602  0.35465  0.25800  1.0000
  H   H7813     1.0  0.76810  0.28163  0.01910  1.0000
  H   H7814     1.0  0.76592  0.23942  0.38992  1.0000
  S   S982      1.0  0.74808  0.28555  0.19867  1.0000
  C   C4400     1.0  0.77833  0.28446  0.97697  1.0000
  H   H7815     1.0  0.74592  0.33155  0.16856  1.0000
  H   H7816     1.0  0.83359  0.23682  0.22042  1.0000
  H   H7817     1.0  0.75691  0.36839  0.31040  1.0000
  H   H7818     1.0  0.80729  0.23924  0.33673  1.0000
  S   S983      1.0  0.74377  0.26756  0.42190  1.0000
  H   H7819     1.0  0.77312  0.33590  0.01344  1.0000
  H   H7820     1.0  0.76294  0.45530  0.32671  1.0000
  H   H7821     1.0  0.76765  0.40276  0.36518  1.0000
  C   C4401     1.0  0.75420  0.40566  0.37094  1.0000
  H   H7822     1.0  0.74133  0.47155  0.21294  1.0000
  C   C4402     1.0  0.79751  0.23681  0.97988  1.0000
  C   C4403     1.0  0.74926  0.43290  0.35003  1.0000
  H   H7823     1.0  0.75869  0.24487  0.20732  1.0000
  H   H7824     1.0  0.74908  0.24027  0.23770  1.0000
  Fe  Fe497     1.0  0.82760  0.23603  0.02284  1.0000
  H   H7825     1.0  0.91695  0.23807  0.06281  1.0000
  C   C4404     1.0  0.80835  0.23422  0.99036  1.0000
  C   C4405     1.0  0.75296  0.24046  0.08102  1.0000
  S   S984      1.0  0.80564  0.24191  0.06743  1.0000
  C   C4406     1.0  0.74176  0.46947  0.22613  1.0000
  H   H7826     1.0  0.73965  0.44393  0.22998  1.0000
  C   C4407     1.0  0.74422  0.41598  0.35793  1.0000
  H   H7827     1.0  0.75245  0.25415  0.35040  1.0000
  H   H7828     1.0  0.96289  0.24339  0.16206  1.0000
  S   S985      1.0  0.89672  0.23622  0.13293  1.0000
  H   H7829     1.0  0.97374  0.27195  0.19583  1.0000
  C   C4408     1.0  0.75226  0.23456  0.27050  1.0000
  H   H7830     1.0  0.98089  0.25618  0.16676  1.0000
  H   H7831     1.0  0.80373  0.23195  0.00357  1.0000
  C   C4409     1.0  0.79847  0.23902  0.34843  1.0000
  H   H7832     1.0  0.74605  0.25904  0.33095  1.0000
  C   C4410     1.0  0.77151  0.24246  0.20921  1.0000
  H   H7833     1.0  0.98091  0.24199  0.14550  1.0000
  C   C4411     1.0  0.85842  0.23859  0.08145  1.0000
  H   H7834     1.0  0.75085  0.28913  0.98138  1.0000
  H   H7835     1.0  0.74015  0.29589  0.29379  1.0000
  C   C4412     1.0  0.98602  0.24731  0.17720  1.0000
  C   C4413     1.0  0.81578  0.23272  0.11718  1.0000
  C   C4414     1.0  0.86254  0.23449  0.09697  1.0000
  C   C4415     1.0  0.84862  0.23566  0.34838  1.0000
  C   C4416     1.0  0.74175  0.41481  0.47366  1.0000
  H   H7836     1.0  0.74014  0.31146  0.31455  1.0000
  H   H7837     1.0  0.83386  0.23286  0.37300  1.0000
  H   H7838     1.0  0.76620  0.48132  0.33190  1.0000
  H   H7839     1.0  0.82691  0.23236  0.12158  1.0000
  H   H7840     1.0  0.85093  0.38155  0.67969  1.0000
  H   H7841     1.0  0.80254  0.31326  0.60379  1.0000
  C   C4417     1.0  0.83116  0.23620  0.96656  1.0000
  C   C4418     1.0  0.77139  0.26594  0.48419  1.0000
  S   S986      1.0  0.78362  0.28404  0.56859  1.0000
  C   C4419     1.0  0.82372  0.23224  0.67425  1.0000
  H   H7842     1.0  0.80966  0.32115  0.76729  1.0000
  C   C4420     1.0  0.81873  0.24490  0.57187  1.0000
  H   H7843     1.0  0.94724  0.27925  0.78573  1.0000
  S   S987      1.0  0.78120  0.39462  0.62550  1.0000
  H   H7844     1.0  0.77889  0.36672  0.49809  1.0000
  H   H7845     1.0  0.78541  0.38474  0.71814  1.0000
  H   H7846     1.0  0.77566  0.31446  0.69732  1.0000
  C   C4421     1.0  0.96067  0.23897  0.73544  1.0000
  C   C4422     1.0  0.78407  0.47064  0.62242  1.0000
  H   H7847     1.0  0.77528  0.25565  0.47752  1.0000
  H   H7848     1.0  0.82403  0.25613  0.56850  1.0000
  H   H7849     1.0  0.82545  0.30338  0.77320  1.0000
  Fe  Fe498     1.0  0.78419  0.24895  0.89189  1.0000
  C   C4423     1.0  0.85923  0.25990  0.76569  1.0000
  H   H7850     1.0  0.79737  0.29943  0.78834  1.0000
  S   S988      1.0  0.80151  0.25809  0.90084  1.0000
  Fe  Fe499     1.0  0.85225  0.27992  0.68386  1.0000
  S   S989      1.0  0.86981  0.29681  0.67741  1.0000
  S   S990      1.0  0.85123  0.26603  0.66579  1.0000
  Fe  Fe500     1.0  0.83876  0.28581  0.71853  1.0000
  S   S991      1.0  0.85511  0.30330  0.71537  1.0000
  S   S992      1.0  0.82213  0.27685  0.74251  1.0000
  Fe  Fe501     1.0  0.84831  0.31368  0.69049  1.0000
  S   S993      1.0  0.84264  0.34085  0.67844  1.0000
  Fe  Fe502     1.0  0.87496  0.28485  0.70265  1.0000
  S   S994      1.0  0.90100  0.27423  0.70643  1.0000
  S   S995      1.0  0.83020  0.29764  0.69480  1.0000
  S   S996      1.0  0.85911  0.26644  0.70804  1.0000
  H   H7851     1.0  0.74753  0.25022  0.49419  1.0000
  N   N248      1.0  0.80087  0.28663  0.82130  1.0000
  C   C4424     1.0  0.82541  0.23385  0.73903  1.0000
  H   H7852     1.0  0.75487  0.26962  0.57967  1.0000
  H   H7853     1.0  0.84930  0.26553  0.75866  1.0000
  C   C4425     1.0  0.76405  0.25975  0.50249  1.0000
  H   H7854     1.0  0.87634  0.24379  0.74197  1.0000
  H   H7855     1.0  0.85668  0.28305  0.77265  1.0000
  H   H7856     1.0  0.77503  0.25017  0.67343  1.0000
  H   H7857     1.0  0.74127  0.28558  0.85931  1.0000
  H   H7858     1.0  0.79904  0.42550  0.67704  1.0000
  H   H7859     1.0  0.79299  0.31802  0.79555  1.0000
  C   C4426     1.0  0.83701  0.25328  0.67529  1.0000
  C   C4427     1.0  0.82735  0.25401  0.69120  1.0000
  C   C4428     1.0  0.81554  0.24417  0.69843  1.0000
  H   H7860     1.0  0.81692  0.47885  0.64527  1.0000
  H   H7861     1.0  0.75666  0.29569  0.70339  1.0000
  C   C4429     1.0  0.83531  0.24228  0.66689  1.0000
  H   H7862     1.0  0.82875  0.26237  0.69783  1.0000
  C   C4430     1.0  0.80907  0.25418  0.54475  1.0000
  H   H7863     1.0  0.77655  0.31179  0.66482  1.0000
  C   C4431     1.0  0.77736  0.26279  0.67123  1.0000
  C   C4432     1.0  0.79306  0.28848  0.76219  1.0000
  C   C4433     1.0  0.80495  0.29238  0.74785  1.0000
  C   C4434     1.0  0.80289  0.30843  0.73795  1.0000
  C   C4435     1.0  0.78846  0.32040  0.74210  1.0000
  H   H7864     1.0  0.79464  0.27608  0.76981  1.0000
  H   H7865     1.0  0.81220  0.31151  0.72692  1.0000
  H   H7866     1.0  0.78653  0.33257  0.73408  1.0000
  H   H7867     1.0  0.75301  0.32937  0.83020  1.0000
  C   C4436     1.0  0.75720  0.35248  0.56804  1.0000
  C   C4437     1.0  0.94843  0.25270  0.79233  1.0000
  H   H7868     1.0  0.75427  0.34942  0.71151  1.0000
  H   H7869     1.0  0.78238  0.27098  0.48294  1.0000
  H   H7870     1.0  0.96929  0.28231  0.74345  1.0000
  H   H7871     1.0  0.76762  0.24965  0.70356  1.0000
  C   C4438     1.0  0.76974  0.24970  0.85504  1.0000
  H   H7872     1.0  0.75211  0.39817  0.50123  1.0000
  C   C4439     1.0  0.78719  0.35378  0.52031  1.0000
  H   H7873     1.0  0.78995  0.40851  0.65460  1.0000
  Fe  Fe503     1.0  0.76624  0.42073  0.62542  1.0000
  H   H7874     1.0  0.79697  0.27854  0.84807  1.0000
  Fe  Fe504     1.0  0.73925  0.31365  0.77531  1.0000
  H   H7875     1.0  0.77495  0.26978  0.65889  1.0000
  H   H7876     1.0  0.82559  0.26419  0.84144  1.0000
  C   C4440     1.0  0.83084  0.25218  0.59923  1.0000
  C   C4441     1.0  0.75805  0.31790  0.82525  1.0000
  H   H7877     1.0  0.77837  0.29434  0.81157  1.0000
  C   C4442     1.0  0.90412  0.26125  0.76058  1.0000
  C   C4443     1.0  0.91163  0.24961  0.75068  1.0000
  C   C4444     1.0  0.91085  0.25382  0.73398  1.0000
  C   C4445     1.0  0.90194  0.26939  0.72731  1.0000
  C   C4446     1.0  0.89418  0.28098  0.73726  1.0000
  C   C4447     1.0  0.89554  0.27701  0.75384  1.0000
  H   H7878     1.0  0.83812  0.43401  0.65062  1.0000
  H   H7879     1.0  0.91696  0.24495  0.72626  1.0000
  H   H7880     1.0  0.88738  0.29308  0.73208  1.0000
  H   H7881     1.0  0.88973  0.28604  0.76150  1.0000
  C   C4448     1.0  0.82411  0.46632  0.65005  1.0000
  C   C4449     1.0  0.77514  0.30956  0.82910  1.0000
  H   H7882     1.0  0.92832  0.30128  0.77236  1.0000
  H   H7883     1.0  0.94919  0.23401  0.74015  1.0000
  C   C4450     1.0  0.81585  0.31384  0.77761  1.0000
  H   H7884     1.0  0.82427  0.39820  0.60874  1.0000
  C   C4451     1.0  0.78869  0.36073  0.67373  1.0000
  C   C4452     1.0  0.80125  0.36787  0.66235  1.0000
  C   C4453     1.0  0.81782  0.36168  0.66382  1.0000
  C   C4454     1.0  0.82187  0.34826  0.67667  1.0000
  C   C4455     1.0  0.80928  0.34114  0.68811  1.0000
  C   C4456     1.0  0.79271  0.34737  0.68662  1.0000
  H   H7885     1.0  0.79817  0.37814  0.65240  1.0000
  H   H7886     1.0  0.82755  0.36712  0.65490  1.0000
  H   H7887     1.0  0.81226  0.33111  0.69833  1.0000
  H   H7888     1.0  0.78300  0.34202  0.69564  1.0000
  C   C4457     1.0  0.77570  0.27183  0.58758  1.0000
  C   C4458     1.0  0.76133  0.26619  0.58966  1.0000
  H   H7889     1.0  0.86470  0.24605  0.84131  1.0000
  H   H7890     1.0  0.83072  0.24213  0.72753  1.0000
  C   C4459     1.0  0.77817  0.25679  0.61549  1.0000
  C   C4460     1.0  0.78399  0.26733  0.60057  1.0000
  C   C4461     1.0  0.77397  0.35880  0.50998  1.0000
  S   S997      1.0  0.76309  0.32128  0.53781  1.0000
  S   S998      1.0  0.75663  0.23736  0.63572  1.0000
  H   H7891     1.0  0.79489  0.27201  0.59907  1.0000
  H   H7892     1.0  0.74122  0.40917  0.69626  1.0000
  H   H7893     1.0  0.96463  0.23961  0.72191  1.0000
  C   C4462     1.0  0.76167  0.29139  0.97117  1.0000
  H   H7894     1.0  0.77891  0.24057  0.86107  1.0000
  S   S999      1.0  0.76196  0.31539  0.49487  1.0000
  C   C4463     1.0  0.93754  0.28513  0.75412  1.0000
  C   C4464     1.0  0.82242  0.40652  0.63095  1.0000
  H   H7895     1.0  0.76101  0.33545  0.67797  1.0000
  N   N249      1.0  0.95017  0.27202  0.76259  1.0000
  C   C4465     1.0  0.76299  0.24132  0.73735  1.0000
  H   H7896     1.0  0.77259  0.34737  0.50732  1.0000
  H   H7897     1.0  0.74627  0.34106  0.66487  1.0000
  H   H7898     1.0  0.84418  0.23607  0.96134  1.0000
  C   C4466     1.0  0.75538  0.25589  0.60463  1.0000
  H   H7899     1.0  0.84418  0.26944  0.78740  1.0000
  H   H7900     1.0  0.74032  0.25772  0.56558  1.0000
  C   C4467     1.0  0.76013  0.37014  0.58451  1.0000
  H   H7901     1.0  0.94760  0.26430  0.73213  1.0000
  S   S1000     1.0  0.75709  0.32994  0.76045  1.0000
  S   S1001     1.0  0.75269  0.25785  0.81343  1.0000
  C   C4468     1.0  0.76822  0.32210  0.65803  1.0000
  C   C4469     1.0  0.78416  0.37241  0.71751  1.0000
  C   C4470     1.0  0.82031  0.23860  0.95604  1.0000
  H   H7902     1.0  0.77398  0.23712  0.83525  1.0000
  H   H7903     1.0  0.81475  0.24142  0.74634  1.0000
  C   C4471     1.0  0.96626  0.27787  0.75714  1.0000
  C   C4472     1.0  0.75355  0.38246  0.71683  1.0000
  H   H7904     1.0  0.81258  0.28429  0.66003  1.0000
  H   H7905     1.0  0.94864  0.26140  0.81380  1.0000
  H   H7906     1.0  0.90464  0.24792  0.67088  1.0000
  H   H7907     1.0  0.74014  0.25830  0.71521  1.0000
  H   H7908     1.0  0.83273  0.23862  0.54802  1.0000
  H   H7909     1.0  0.84454  0.24945  0.59501  1.0000
  S   S1002     1.0  0.74927  0.41867  0.61060  1.0000
  H   H7910     1.0  0.78515  0.33770  0.65318  1.0000
  H   H7911     1.0  0.92887  0.25753  0.81389  1.0000
  H   H7912     1.0  0.79932  0.39666  0.67198  1.0000
  H   H7913     1.0  0.84290  0.24156  0.65467  1.0000
  H   H7914     1.0  0.92259  0.31566  0.73695  1.0000
  H   H7915     1.0  0.75993  0.38483  0.48721  1.0000
  C   C4473     1.0  0.75508  0.33059  0.67092  1.0000
  H   H7916     1.0  0.83433  0.24335  0.76300  1.0000
  H   H7917     1.0  0.83080  0.41742  0.60481  1.0000
  C   C4474     1.0  0.82686  0.25623  0.61631  1.0000
  H   H7918     1.0  0.76633  0.35690  0.72671  1.0000
  H   H7919     1.0  0.96196  0.24771  0.78987  1.0000
  C   C4475     1.0  0.75220  0.31064  0.48162  1.0000
  H   H7920     1.0  0.73980  0.36290  0.74566  1.0000
  H   H7921     1.0  0.79222  0.33363  0.59474  1.0000
  H   H7922     1.0  0.76802  0.28454  0.68148  1.0000
  H   H7923     1.0  0.78297  0.34600  0.53263  1.0000
  C   C4476     1.0  0.76102  0.28733  0.71440  1.0000
  C   C4477     1.0  0.77880  0.28952  0.71289  1.0000
  C   C4478     1.0  0.77920  0.30786  0.70927  1.0000
  C   C4479     1.0  0.77898  0.30054  0.76660  1.0000
  H   H7924     1.0  0.78784  0.28413  0.70274  1.0000
  H   H7925     1.0  0.82984  0.42876  0.62919  1.0000
  H   H7926     1.0  0.78998  0.36495  0.52213  1.0000
  H   H7927     1.0  0.79196  0.30907  0.70842  1.0000
  H   H7928     1.0  0.82187  0.32201  0.78093  1.0000
  H   H7929     1.0  0.81322  0.25963  0.62101  1.0000
  H   H7930     1.0  0.78051  0.35369  0.57200  1.0000
  S   S1003     1.0  0.77923  0.44236  0.61724  1.0000
  H   H7931     1.0  0.74025  0.34559  0.73147  1.0000
  C   C4480     1.0  0.94363  0.27011  0.78116  1.0000
  H   H7932     1.0  0.82330  0.29035  0.80296  1.0000
  H   H7933     1.0  0.76059  0.44517  0.65063  1.0000
  C   C4481     1.0  0.98166  0.26519  0.76225  1.0000
  C   C4482     1.0  0.76661  0.36984  0.72606  1.0000
  H   H7934     1.0  0.74427  0.25162  0.60619  1.0000
  C   C4483     1.0  0.91875  0.31386  0.75064  1.0000
  H   H7935     1.0  0.81941  0.24314  0.80186  1.0000
  H   H7936     1.0  0.75784  0.38203  0.70348  1.0000
  H   H7937     1.0  0.80898  0.41699  0.61101  1.0000
  H   H7938     1.0  0.83224  0.24541  0.62528  1.0000
  H   H7939     1.0  0.82523  0.29619  0.85134  1.0000
  H   H7940     1.0  0.76825  0.32256  0.59470  1.0000
  H   H7941     1.0  0.82617  0.28370  0.63988  1.0000
  C   C4484     1.0  0.75717  0.36797  0.51927  1.0000
  C   C4485     1.0  0.77631  0.31628  0.75626  1.0000
  H   H7942     1.0  0.82558  0.26346  0.59069  1.0000
  H   H7943     1.0  0.78292  0.26070  0.70115  1.0000
  H   H7944     1.0  0.76009  0.37787  0.52334  1.0000
  H   H7945     1.0  0.79814  0.24191  0.81221  1.0000
  H   H7946     1.0  0.83118  0.37538  0.68666  1.0000
  H   H7947     1.0  0.80807  0.43126  0.63302  1.0000
  C   C4486     1.0  0.80616  0.24880  0.80167  1.0000
  H   H7948     1.0  0.75946  0.26568  0.74228  1.0000
  Fe  Fe505     1.0  0.76277  0.29666  0.55536  1.0000
  H   H7949     1.0  0.77230  0.28499  0.94698  1.0000
  H   H7950     1.0  0.75894  0.32135  0.81165  1.0000
  S   S1004     1.0  0.74585  0.38263  0.63629  1.0000
  H   H7951     1.0  0.84214  0.40452  0.65515  1.0000
  H   H7952     1.0  0.75308  0.27207  0.68426  1.0000
  H   H7953     1.0  0.80781  0.24504  0.71055  1.0000
  C   C4487     1.0  0.94258  0.25314  0.81068  1.0000
  H   H7954     1.0  0.91826  0.23743  0.75580  1.0000
  H   H7955     1.0  0.79058  0.26159  0.67118  1.0000
  N   N250      1.0  0.74184  0.24338  0.52108  1.0000
  H   H7956     1.0  0.97039  0.24360  0.83792  1.0000
  H   H7957     1.0  0.76163  0.31700  0.65187  1.0000
  H   H7958     1.0  0.76001  0.30501  0.96623  1.0000
  H   H7959     1.0  0.81278  0.26618  0.54241  1.0000
  H   H7960     1.0  0.98008  0.26216  0.77587  1.0000
  H   H7961     1.0  0.74431  0.34929  0.51129  1.0000
  H   H7962     1.0  0.84047  0.27704  0.85367  1.0000
  C   C4488     1.0  0.78055  0.31422  0.59574  1.0000
  S   S1005     1.0  0.74504  0.28742  0.77209  1.0000
  C   C4489     1.0  0.80297  0.30726  0.79242  1.0000
  C   C4490     1.0  0.95743  0.25634  0.73872  1.0000
  C   C4491     1.0  0.76691  0.45533  0.64543  1.0000
  C   C4492     1.0  0.76595  0.27175  0.68465  1.0000
  S   S1006     1.0  0.74963  0.41353  0.65015  1.0000
  H   H7963     1.0  0.77909  0.25839  0.72969  1.0000
  H   H7964     1.0  0.79334  0.36266  0.72377  1.0000
  H   H7965     1.0  0.78343  0.31843  0.82331  1.0000
  C   C4493     1.0  0.84514  0.23727  0.75444  1.0000
  H   H7966     1.0  0.76212  0.27598  0.47834  1.0000
  H   H7967     1.0  0.75986  0.46427  0.66802  1.0000
  H   H7968     1.0  0.80268  0.45588  0.65718  1.0000
  C   C4494     1.0  0.82328  0.27796  0.83895  1.0000
  H   H7969     1.0  0.79868  0.26100  0.82924  1.0000
  C   C4495     1.0  0.93272  0.30232  0.75880  1.0000
  H   H7970     1.0  0.81324  0.30740  0.81239  1.0000
  H   H7971     1.0  0.81043  0.27322  0.79153  1.0000
  H   H7972     1.0  0.76278  0.34324  0.56061  1.0000
  H   H7973     1.0  0.77368  0.30708  0.84276  1.0000
  C   C4496     1.0  0.79021  0.32168  0.60327  1.0000
  C   C4497     1.0  0.82350  0.23731  0.60002  1.0000
  Fe  Fe506     1.0  0.76283  0.39194  0.61264  1.0000
  C   C4498     1.0  0.80541  0.26915  0.81854  1.0000
  H   H7974     1.0  0.83588  0.41058  0.68281  1.0000
  C   C4499     1.0  0.80495  0.28572  0.83757  1.0000
  C   C4500     1.0  0.80220  0.26706  0.80248  1.0000
  H   H7975     1.0  0.83500  0.39886  0.63203  1.0000
  H   H7976     1.0  0.94199  0.28757  0.74044  1.0000
  C   C4501     1.0  0.83809  0.38436  0.68719  1.0000
  H   H7977     1.0  0.77012  0.29761  0.77803  1.0000
  C   C4502     1.0  0.85940  0.24133  0.77371  1.0000
  C   C4503     1.0  0.76550  0.25946  0.73164  1.0000
  C   C4504     1.0  0.85643  0.26989  0.77879  1.0000
  H   H7978     1.0  0.76895  0.40094  0.67898  1.0000
  C   C4505     1.0  0.82724  0.28253  0.85316  1.0000
  S   S1007     1.0  0.84451  0.24344  0.87413  1.0000
  C   C4506     1.0  0.81078  0.29771  0.80759  1.0000
  H   H7979     1.0  0.79250  0.43441  0.65830  1.0000
  H   H7980     1.0  0.82548  0.39441  0.66073  1.0000
  C   C4507     1.0  0.76643  0.46624  0.65521  1.0000
  H   H7981     1.0  0.76975  0.33540  0.61855  1.0000
  H   H7982     1.0  0.78707  0.37163  0.70434  1.0000
  H   H7983     1.0  0.77067  0.31380  0.71935  1.0000
  H   H7984     1.0  0.94238  0.24383  0.79020  1.0000
  H   H7985     1.0  0.80203  0.29836  0.84009  1.0000
  C   C4508     1.0  0.76394  0.25092  0.61744  1.0000
  H   H7986     1.0  0.83224  0.26688  0.61550  1.0000
  H   H7987     1.0  0.74059  0.32726  0.71366  1.0000
  C   C4509     1.0  0.76949  0.26237  0.70185  1.0000
  C   C4510     1.0  0.81546  0.45315  0.64962  1.0000
  H   H7988     1.0  0.81885  0.26376  0.81802  1.0000
  H   H7989     1.0  0.83876  0.38263  0.70027  1.0000
  H   H7990     1.0  0.81320  0.39904  0.63826  1.0000
  H   H7991     1.0  0.78454  0.25335  0.62552  1.0000
  S   S1008     1.0  0.76421  0.26690  0.87958  1.0000
  H   H7992     1.0  0.78802  0.29496  0.64743  1.0000
  H   H7993     1.0  0.79574  0.25564  0.55109  1.0000
  H   H7994     1.0  0.83212  0.28225  0.82745  1.0000
  C   C4511     1.0  0.81974  0.24037  0.55531  1.0000
  C   C4512     1.0  0.77615  0.45720  0.62914  1.0000
  C   C4513     1.0  0.78236  0.29299  0.82315  1.0000
  H   H7995     1.0  0.75744  0.24027  0.56237  1.0000
  C   C4514     1.0  0.75524  0.25973  0.83235  1.0000
  H   H7996     1.0  0.86641  0.26494  0.78592  1.0000
  H   H7997     1.0  0.82470  0.46567  0.66294  1.0000
  H   H7998     1.0  0.78756  0.31261  0.58314  1.0000
  C   C4515     1.0  0.76057  0.26342  0.86183  1.0000
  H   H7999     1.0  0.81470  0.45466  0.63662  1.0000
  H   H8000     1.0  0.94348  0.30838  0.75451  1.0000
  N   N251      1.0  0.75924  0.26982  0.71638  1.0000
  H   H8001     1.0  0.78306  0.28360  0.72464  1.0000
  H   H8002     1.0  0.96496  0.28889  0.76218  1.0000
  H   H8003     1.0  0.78905  0.27218  0.80158  1.0000
  H   H8004     1.0  0.76427  0.37149  0.73892  1.0000
  C   C4516     1.0  0.76722  0.35834  0.57460  1.0000
  C   C4517     1.0  0.77497  0.41099  0.67851  1.0000
  C   C4518     1.0  0.76142  0.28347  0.95742  1.0000
  Fe  Fe507     1.0  0.76304  0.38731  0.64905  1.0000
  H   H8005     1.0  0.77581  0.28366  0.83226  1.0000
  Fe  Fe508     1.0  0.79681  0.23870  0.92416  1.0000
  S   S1009     1.0  0.78900  0.24340  0.95012  1.0000
  H   H8006     1.0  0.96060  0.24568  0.76371  1.0000
  S   S1010     1.0  0.77325  0.37716  0.59245  1.0000
  H   H8007     1.0  0.76687  0.42309  0.67418  1.0000
  H   H8008     1.0  0.92593  0.28062  0.75673  1.0000
  N   N252      1.0  0.79031  0.32835  0.63083  1.0000
  C   C4519     1.0  0.78047  0.32477  0.62063  1.0000
  C   C4520     1.0  0.77842  0.33441  0.64562  1.0000
  C   C4521     1.0  0.79847  0.34241  0.62029  1.0000
  C   C4522     1.0  0.80368  0.31367  0.63620  1.0000
  C   C4523     1.0  0.80031  0.29607  0.63932  1.0000
  C   C4524     1.0  0.80716  0.34986  0.62918  1.0000
  H   H8009     1.0  0.81645  0.40400  0.68864  1.0000
  H   H8010     1.0  0.74992  0.28942  0.95266  1.0000
  C   C4525     1.0  0.81349  0.28284  0.64735  1.0000
  C   C4526     1.0  0.81841  0.36083  0.61681  1.0000
  H   H8011     1.0  0.77479  0.31397  0.62728  1.0000
  H   H8012     1.0  0.76217  0.26993  0.50893  1.0000
  H   H8013     1.0  0.76959  0.34610  0.64134  1.0000
  H   H8014     1.0  0.78915  0.35284  0.61490  1.0000
  H   H8015     1.0  0.80798  0.33839  0.60959  1.0000
  H   H8016     1.0  0.81559  0.31364  0.62679  1.0000
  H   H8017     1.0  0.80661  0.31480  0.64763  1.0000
  H   H8018     1.0  0.80071  0.29305  0.62747  1.0000
  H   H8019     1.0  0.87121  0.26135  0.75714  1.0000
  H   H8020     1.0  0.81476  0.34007  0.63717  1.0000
  H   H8021     1.0  0.79757  0.35782  0.63692  1.0000
  H   H8022     1.0  0.87258  0.23410  0.66997  1.0000
  H   H8023     1.0  0.96903  0.26098  0.73323  1.0000
  H   H8024     1.0  0.83684  0.46467  0.64217  1.0000
  Fe  Fe509     1.0  0.75164  0.31179  0.52262  1.0000
  H   H8025     1.0  0.77868  0.30190  0.60343  1.0000
  H   H8026     1.0  0.91564  0.32616  0.75393  1.0000
  H   H8027     1.0  0.92978  0.27307  0.78421  1.0000
  H   H8028     1.0  0.81171  0.27028  0.64825  1.0000
  H   H8029     1.0  0.81128  0.37073  0.60843  1.0000
  H   H8030     1.0  0.82357  0.36678  0.62361  1.0000
  H   H8031     1.0  0.82889  0.35329  0.60931  1.0000
  C   C4527     1.0  0.76694  0.24777  0.84041  1.0000
  C   C4528     1.0  0.74844  0.27498  0.85409  1.0000
  H   H8032     1.0  0.77628  0.41026  0.69118  1.0000
  C   C4529     1.0  0.82158  0.41007  0.61277  1.0000
  H   H8033     1.0  0.75459  0.39483  0.71771  1.0000
  H   H8034     1.0  0.81937  0.27758  0.86516  1.0000
  S   S1011     1.0  0.90608  0.25639  0.78116  1.0000
  S   S1012     1.0  0.76787  0.36844  0.67225  1.0000
  C   C4530     1.0  0.74105  0.35082  0.71808  1.0000
  H   H8035     1.0  0.82385  0.43507  0.66994  1.0000
  H   H8036     1.0  0.77325  0.24908  0.50766  1.0000
  H   H8037     1.0  0.75295  0.35905  0.53085  1.0000
  H   H8038     1.0  0.74845  0.23487  0.89854  1.0000
  N   N253      1.0  0.81819  0.42134  0.65520  1.0000
  C   C4531     1.0  0.82905  0.40526  0.66226  1.0000
  C   C4532     1.0  0.81940  0.42281  0.63693  1.0000
  C   C4533     1.0  0.82469  0.43539  0.65674  1.0000
  C   C4534     1.0  0.80035  0.42319  0.66460  1.0000
  C   C4535     1.0  0.79195  0.40877  0.66670  1.0000
  C   C4536     1.0  0.82920  0.40215  0.68086  1.0000
  H   H8039     1.0  0.75284  0.29249  0.72519  1.0000
  H   H8040     1.0  0.80377  0.24777  0.78999  1.0000
  H   H8041     1.0  0.88279  0.25571  0.67838  1.0000
  H   H8042     1.0  0.84778  0.24732  0.74337  1.0000
  C   C4537     1.0  0.74591  0.27323  0.83930  1.0000
  H   H8043     1.0  0.78786  0.28965  0.96666  1.0000
  H   H8044     1.0  0.87007  0.23633  0.78001  1.0000
  H   H8045     1.0  0.79879  0.34650  0.51384  1.0000
  C   C4538     1.0  0.74370  0.24432  0.56542  1.0000
  H   H8046     1.0  0.80993  0.24092  0.60460  1.0000
  H   H8047     1.0  0.85028  0.23949  0.57197  1.0000
  H   H8048     1.0  0.76163  0.27002  0.96225  1.0000
  C   C4539     1.0  0.80339  0.23917  0.96270  1.0000
  S   S1013     1.0  0.75384  0.28628  0.53904  1.0000
  H   H8049     1.0  0.98397  0.25371  0.75769  1.0000
  H   H8050     1.0  0.90742  0.30863  0.75501  1.0000
  H   H8051     1.0  0.80544  0.24920  0.57754  1.0000
  C   C4540     1.0  0.74117  0.26931  0.71903  1.0000
  H   H8052     1.0  0.93973  0.25216  0.76189  1.0000
  C   C4541     1.0  0.74856  0.38941  0.49608  1.0000
  C   C4542     1.0  0.89388  0.24619  0.68139  1.0000
  C   C4543     1.0  0.95183  0.25602  0.75753  1.0000
  H   H8053     1.0  0.94587  0.24042  0.81824  1.0000
  H   H8054     1.0  0.75087  0.36049  0.49093  1.0000
  C   C4544     1.0  0.74294  0.37624  0.58760  1.0000
  H   H8055     1.0  0.76241  0.23943  0.76331  1.0000
  H   H8056     1.0  0.74973  0.24086  0.73982  1.0000
  H   H8057     1.0  0.89664  0.24816  0.69246  1.0000
  H   H8058     1.0  0.74797  0.32154  0.67974  1.0000
  C   C4545     1.0  0.74218  0.25072  0.53501  1.0000
  C   C4546     1.0  0.74716  0.25511  0.50495  1.0000
  H   H8059     1.0  0.79118  0.47220  0.60979  1.0000
  H   H8060     1.0  0.81058  0.25105  0.53267  1.0000
  H   H8061     1.0  0.74747  0.23506  0.79357  1.0000
  H   H8062     1.0  0.82498  0.24033  0.94279  1.0000
  H   H8063     1.0  0.75504  0.25175  0.53416  1.0000
  H   H8064     1.0  0.74929  0.30946  0.83110  1.0000
  H   H8065     1.0  0.84797  0.24132  0.78367  1.0000
  Fe  Fe510     1.0  0.82093  0.23739  0.89112  1.0000
  C   C4547     1.0  0.77468  0.47944  0.64861  1.0000
  N   N254      1.0  0.74350  0.37519  0.50971  1.0000
  H   H8066     1.0  0.77013  0.23399  0.72788  1.0000
  C   C4548     1.0  0.81338  0.23363  0.68974  1.0000
  C   C4549     1.0  0.74155  0.36161  0.50273  1.0000
  C   C4550     1.0  0.74003  0.35875  0.57091  1.0000
  C   C4551     1.0  0.86531  0.23302  0.84687  1.0000
  H   H8067     1.0  0.74280  0.42329  0.48083  1.0000
  H   H8068     1.0  0.81288  0.28368  0.97274  1.0000
  C   C4552     1.0  0.76915  0.23263  0.75330  1.0000
  H   H8069     1.0  0.97972  0.23214  0.82163  1.0000
  H   H8070     1.0  0.78268  0.23189  0.75120  1.0000
  H   H8071     1.0  0.94044  0.23180  0.70672  1.0000
  H   H8072     1.0  0.89324  0.23188  0.65861  1.0000
  H   H8073     1.0  0.82940  0.59347  0.23206  1.0000
  N   N255      1.0  0.93425  0.67795  0.13068  1.0000
  H   H8074     1.0  0.81943  0.71758  0.97968  1.0000
  H   H8075     1.0  0.85592  0.60291  0.33235  1.0000
  C   C4553     1.0  0.78006  0.59819  0.26542  1.0000
  H   H8076     1.0  0.96588  0.68743  0.12602  1.0000
  Fe  Fe511     1.0  0.75161  0.54921  0.26659  1.0000
  S   S1014     1.0  0.77379  0.53971  0.24784  1.0000
  Fe  Fe512     1.0  0.82270  0.69120  0.01145  1.0000
  H   H8077     1.0  0.87863  0.70774  0.22037  1.0000
  H   H8078     1.0  0.77329  0.57872  0.18678  1.0000
  H   H8079     1.0  0.75722  0.67138  0.22130  1.0000
  C   C4554     1.0  0.79871  0.61898  0.32024  1.0000
  C   C4555     1.0  0.80515  0.53822  0.17017  1.0000
  S   S1015     1.0  0.76762  0.61007  0.39823  1.0000
  Fe  Fe513     1.0  0.82909  0.70044  0.04089  1.0000
  H   H8080     1.0  0.78590  0.64851  0.29974  1.0000
  S   S1016     1.0  0.84531  0.69478  0.05931  1.0000
  S   S1017     1.0  0.79654  0.70555  0.01536  1.0000
  Fe  Fe514     1.0  0.79539  0.69496  0.04228  1.0000
  S   S1018     1.0  0.77203  0.68655  0.05648  1.0000
  S   S1019     1.0  0.82083  0.67875  0.03831  1.0000
  H   H8081     1.0  0.82117  0.71707  0.19950  1.0000
  C   C4556     1.0  0.75831  0.66295  0.13139  1.0000
  C   C4557     1.0  0.74848  0.63517  0.44874  1.0000
  H   H8082     1.0  0.89514  0.71185  0.15444  1.0000
  S   S1020     1.0  0.85896  0.72107  0.15911  1.0000
  H   H8083     1.0  0.90565  0.68179  0.15905  1.0000
  H   H8084     1.0  0.91410  0.63540  0.13896  1.0000
  C   C4558     1.0  0.74850  0.72163  0.27651  1.0000
  H   H8085     1.0  0.83712  0.58472  0.28553  1.0000
  C   C4559     1.0  0.76140  0.50522  0.22591  1.0000
  H   H8086     1.0  0.74638  0.61771  0.34277  1.0000
  H   H8087     1.0  0.82880  0.61695  0.32590  1.0000
  H   H8088     1.0  0.77229  0.55374  0.16707  1.0000
  H   H8089     1.0  0.81861  0.66466  0.10387  1.0000
  Fe  Fe515     1.0  0.75479  0.61870  0.12309  1.0000
  H   H8090     1.0  0.81689  0.64656  0.12020  1.0000
  S   S1021     1.0  0.78072  0.62293  0.11351  1.0000
  H   H8091     1.0  0.81523  0.61695  0.99299  1.0000
  H   H8092     1.0  0.90051  0.70375  0.17430  1.0000
  H   H8093     1.0  0.83043  0.72772  0.23753  1.0000
  C   C4560     1.0  0.77789  0.64563  0.31228  1.0000
  H   H8094     1.0  0.80702  0.71668  0.21940  1.0000
  H   H8095     1.0  0.92002  0.65648  0.15957  1.0000
  Fe  Fe516     1.0  0.80496  0.61628  0.19305  1.0000
  S   S1022     1.0  0.78516  0.62873  0.21165  1.0000
  S   S1023     1.0  0.80895  0.59026  0.18988  1.0000
  Fe  Fe517     1.0  0.82140  0.64586  0.17852  1.0000
  S   S1024     1.0  0.80319  0.66094  0.19589  1.0000
  S   S1025     1.0  0.84299  0.65369  0.15874  1.0000
  Fe  Fe518     1.0  0.80585  0.63755  0.21542  1.0000
  S   S1026     1.0  0.80919  0.63597  0.24084  1.0000
  Fe  Fe519     1.0  0.78407  0.65105  0.19061  1.0000
  S   S1027     1.0  0.76050  0.66911  0.18609  1.0000
  S   S1028     1.0  0.82587  0.62318  0.19856  1.0000
  S   S1029     1.0  0.80199  0.63783  0.17158  1.0000
  H   H8096     1.0  0.75645  0.67351  0.24175  1.0000
  S   S1030     1.0  0.84596  0.70436  0.29553  1.0000
  C   C4561     1.0  0.77455  0.56581  0.16736  1.0000
  Fe  Fe520     1.0  0.81362  0.70562  0.27124  1.0000
  S   S1031     1.0  0.83972  0.69106  0.26575  1.0000
  S   S1032     1.0  0.79475  0.70622  0.25746  1.0000
  Fe  Fe521     1.0  0.83654  0.68326  0.29329  1.0000
  S   S1033     1.0  0.84603  0.65661  0.30479  1.0000
  Fe  Fe522     1.0  0.84707  0.71328  0.26821  1.0000
  H   H8097     1.0  0.89574  0.69322  0.21092  1.0000
  S   S1034     1.0  0.80973  0.69582  0.29857  1.0000
  H   H8098     1.0  0.74348  0.50222  0.28753  1.0000
  C   C4562     1.0  0.74638  0.60601  0.34037  1.0000
  H   H8099     1.0  0.77637  0.62416  0.25238  1.0000
  H   H8100     1.0  0.77649  0.58333  0.44089  1.0000
  C   C4563     1.0  0.80319  0.65515  0.24677  1.0000
  C   C4564     1.0  0.80811  0.65667  0.26039  1.0000
  C   C4565     1.0  0.80504  0.67230  0.26413  1.0000
  C   C4566     1.0  0.79647  0.68632  0.25463  1.0000
  C   C4567     1.0  0.79060  0.68459  0.24170  1.0000
  C   C4568     1.0  0.79421  0.66908  0.23761  1.0000
  H   H8101     1.0  0.81475  0.64589  0.26775  1.0000
  H   H8102     1.0  0.80951  0.67354  0.27421  1.0000
  H   H8103     1.0  0.78394  0.69540  0.23436  1.0000
  H   H8104     1.0  0.79009  0.66799  0.22731  1.0000
  C   C4569     1.0  0.81029  0.63058  0.99058  1.0000
  Fe  Fe523     1.0  0.74426  0.65211  0.37699  1.0000
  H   H8105     1.0  0.78980  0.72792  0.29292  1.0000
  C   C4570     1.0  0.96391  0.72327  0.11550  1.0000
  C   C4571     1.0  0.77114  0.56694  0.18574  1.0000
  C   C4572     1.0  0.77238  0.68595  0.32947  1.0000
  H   H8106     1.0  0.74867  0.63725  0.23189  1.0000
  H   H8107     1.0  0.76360  0.63736  0.17864  1.0000
  H   H8108     1.0  0.73941  0.72985  0.09757  1.0000
  H   H8109     1.0  0.91977  0.70119  0.10398  1.0000
  C   C4573     1.0  0.78039  0.62688  0.31901  1.0000
  C   C4574     1.0  0.85412  0.70312  0.15745  1.0000
  C   C4575     1.0  0.83928  0.69884  0.16708  1.0000
  C   C4576     1.0  0.83583  0.68371  0.16751  1.0000
  C   C4577     1.0  0.84699  0.67292  0.15795  1.0000
  C   C4578     1.0  0.86163  0.67744  0.14779  1.0000
  C   C4579     1.0  0.86524  0.69252  0.14759  1.0000
  H   H8110     1.0  0.83048  0.70719  0.17439  1.0000
  H   H8111     1.0  0.82447  0.68049  0.17515  1.0000
  H   H8112     1.0  0.87025  0.66919  0.14024  1.0000
  H   H8113     1.0  0.87673  0.69578  0.14008  1.0000
  C   C4580     1.0  0.77526  0.66868  0.07198  1.0000
  C   C4581     1.0  0.78950  0.66390  0.07856  1.0000
  C   C4582     1.0  0.79165  0.64940  0.09100  1.0000
  C   C4583     1.0  0.77954  0.63984  0.09674  1.0000
  C   C4584     1.0  0.76576  0.64433  0.08962  1.0000
  C   C4585     1.0  0.76349  0.65883  0.07748  1.0000
  H   H8114     1.0  0.79872  0.67143  0.07422  1.0000
  H   H8115     1.0  0.80247  0.64578  0.09634  1.0000
  C   C4586     1.0  0.79227  0.58602  0.15475  1.0000
  H   H8116     1.0  0.92445  0.68394  0.16326  1.0000
  C   C4587     1.0  0.84984  0.71136  0.06442  1.0000
  H   H8117     1.0  0.74362  0.62600  0.17143  1.0000
  C   C4588     1.0  0.74573  0.57692  0.35019  1.0000
  H   H8118     1.0  0.82420  0.62399  0.03586  1.0000
  H   H8119     1.0  0.75866  0.51475  0.16972  1.0000
  C   C4589     1.0  0.85749  0.70812  0.07778  1.0000
  Fe  Fe524     1.0  0.81916  0.71778  0.29835  1.0000
  H   H8120     1.0  0.83722  0.56630  0.21240  1.0000
  C   C4590     1.0  0.97340  0.71980  0.20835  1.0000
  C   C4591     1.0  0.77447  0.71462  0.36357  1.0000
  H   H8121     1.0  0.76929  0.69319  0.31745  1.0000
  C   C4592     1.0  0.91081  0.64135  0.14972  1.0000
  S   S1035     1.0  0.80586  0.62768  0.37552  1.0000
  C   C4593     1.0  0.84596  0.72766  0.05542  1.0000
  H   H8122     1.0  0.80473  0.56116  0.17672  1.0000
  H   H8123     1.0  0.78884  0.65610  0.14115  1.0000
  H   H8124     1.0  0.79702  0.68475  0.99369  1.0000
  H   H8125     1.0  0.74616  0.61588  0.31449  1.0000
  N   N256      1.0  0.80255  0.60070  0.32830  1.0000
  H   H8126     1.0  0.79100  0.53698  0.29477  1.0000
  C   C4594     1.0  0.81639  0.63642  0.35583  1.0000
  C   C4595     1.0  0.80795  0.64651  0.34357  1.0000
  C   C4596     1.0  0.81696  0.65308  0.32787  1.0000
  C   C4597     1.0  0.83435  0.64944  0.32447  1.0000
  C   C4598     1.0  0.84269  0.63924  0.33671  1.0000
  C   C4599     1.0  0.83374  0.63290  0.35237  1.0000
  H   H8127     1.0  0.79454  0.64911  0.34615  1.0000
  H   H8128     1.0  0.81055  0.66059  0.31825  1.0000
  H   H8129     1.0  0.85612  0.63631  0.33410  1.0000
  H   H8130     1.0  0.84031  0.62509  0.36181  1.0000
  C   C4600     1.0  0.78291  0.55433  0.23185  1.0000
  C   C4601     1.0  0.77524  0.57123  0.22870  1.0000
  C   C4602     1.0  0.78318  0.58252  0.21591  1.0000
  C   C4603     1.0  0.79867  0.57682  0.20619  1.0000
  C   C4604     1.0  0.80618  0.55995  0.20925  1.0000
  C   C4605     1.0  0.79839  0.54877  0.22210  1.0000
  H   H8131     1.0  0.76317  0.57558  0.23596  1.0000
  H   H8132     1.0  0.77721  0.59553  0.21339  1.0000
  H   H8133     1.0  0.81821  0.55556  0.20182  1.0000
  H   H8134     1.0  0.80450  0.53579  0.22461  1.0000
  C   C4606     1.0  0.84947  0.59643  0.32736  1.0000
  C   C4607     1.0  0.79283  0.66334  0.40391  1.0000
  C   C4608     1.0  0.78486  0.68884  0.38196  1.0000
  H   H8135     1.0  0.77985  0.68360  0.97530  1.0000
  H   H8136     1.0  0.85423  0.59841  0.31374  1.0000
  H   H8137     1.0  0.77650  0.62168  0.31060  1.0000
  H   H8138     1.0  0.78412  0.60091  0.27534  1.0000
  C   C4609     1.0  0.76922  0.61421  0.25768  1.0000
  C   C4610     1.0  0.75263  0.48590  0.33272  1.0000
  H   H8139     1.0  0.75844  0.61840  0.26736  1.0000
  H   H8140     1.0  0.83658  0.62592  0.05778  1.0000
  Fe  Fe525     1.0  0.74861  0.62951  0.41010  1.0000
  C   C4611     1.0  0.76372  0.63983  0.44170  1.0000
  C   C4612     1.0  0.77147  0.64499  0.45125  1.0000
  H   H8141     1.0  0.76977  0.63895  0.42907  1.0000
  H   H8142     1.0  0.78345  0.64819  0.44586  1.0000
  N   N257      1.0  0.85474  0.67271  0.21661  1.0000
  C   C4613     1.0  0.84059  0.68451  0.20948  1.0000
  C   C4614     1.0  0.86489  0.66218  0.20433  1.0000
  C   C4615     1.0  0.84770  0.66222  0.23288  1.0000
  C   C4616     1.0  0.86580  0.68200  0.21964  1.0000
  C   C4617     1.0  0.87204  0.69553  0.20481  1.0000
  C   C4618     1.0  0.82966  0.69756  0.21957  1.0000
  C   C4619     1.0  0.86049  0.64808  0.24117  1.0000
  C   C4620     1.0  0.85628  0.64979  0.20150  1.0000
  C   C4621     1.0  0.86810  0.63952  0.18929  1.0000
  C   C4622     1.0  0.88432  0.70282  0.20900  1.0000
  C   C4623     1.0  0.95903  0.68326  0.13882  1.0000
  C   C4624     1.0  0.85185  0.63808  0.25726  1.0000
  H   H8143     1.0  0.83205  0.67753  0.20814  1.0000
  H   H8144     1.0  0.84534  0.69129  0.19682  1.0000
  H   H8145     1.0  0.86850  0.67019  0.19192  1.0000
  H   H8146     1.0  0.87682  0.65508  0.20788  1.0000
  H   H8147     1.0  0.83789  0.65680  0.23153  1.0000
  H   H8148     1.0  0.84124  0.67002  0.24213  1.0000
  H   H8149     1.0  0.85951  0.68797  0.23039  1.0000
  H   H8150     1.0  0.87706  0.67320  0.22329  1.0000
  H   H8151     1.0  0.86162  0.70591  0.20159  1.0000
  H   H8152     1.0  0.87843  0.69038  0.19366  1.0000
  H   H8153     1.0  0.82374  0.69140  0.23197  1.0000
  H   H8154     1.0  0.83702  0.70550  0.22122  1.0000
  H   H8155     1.0  0.86946  0.65321  0.24433  1.0000
  H   H8156     1.0  0.86749  0.63932  0.23300  1.0000
  H   H8157     1.0  0.85230  0.64098  0.21314  1.0000
  H   H8158     1.0  0.84520  0.65647  0.19625  1.0000
  H   H8159     1.0  0.87915  0.63199  0.19425  1.0000
  H   H8160     1.0  0.86162  0.63100  0.18718  1.0000
  H   H8161     1.0  0.87217  0.64774  0.17719  1.0000
  C   C4625     1.0  0.75573  0.66490  0.23454  1.0000
  H   H8162     1.0  0.80273  0.71329  0.08252  1.0000
  C   C4626     1.0  0.76402  0.71857  0.08646  1.0000
  H   H8163     1.0  0.95159  0.67385  0.10779  1.0000
  H   H8164     1.0  0.77947  0.66375  0.40954  1.0000
  Fe  Fe526     1.0  0.75142  0.61483  0.38009  1.0000
  H   H8165     1.0  0.84514  0.64620  0.26619  1.0000
  H   H8166     1.0  0.84294  0.63235  0.25474  1.0000
  H   H8167     1.0  0.86121  0.62806  0.26301  1.0000
  S   S1036     1.0  0.74532  0.60634  0.14924  1.0000
  H   H8168     1.0  0.74803  0.62002  0.21608  1.0000
  H   H8169     1.0  0.84065  0.60411  0.27187  1.0000
  H   H8170     1.0  0.81888  0.51498  0.18243  1.0000
  H   H8171     1.0  0.75766  0.51905  0.22301  1.0000
  H   H8172     1.0  0.78164  0.50093  0.20394  1.0000
  H   H8173     1.0  0.79142  0.72564  0.37031  1.0000
  S   S1037     1.0  0.75191  0.54271  0.29365  1.0000
  H   H8174     1.0  0.78091  0.59469  0.15120  1.0000
  S   S1038     1.0  0.83343  0.71160  0.01344  1.0000
  H   H8175     1.0  0.79469  0.59076  0.42835  1.0000
  C   C4627     1.0  0.92509  0.66469  0.13208  1.0000
  C   C4628     1.0  0.91486  0.68967  0.15581  1.0000
  H   H8176     1.0  0.74468  0.57775  0.18933  1.0000
  H   H8177     1.0  0.76289  0.67591  0.14697  1.0000
  H   H8178     1.0  0.92848  0.70328  0.13355  1.0000
  H   H8179     1.0  0.83092  0.53066  0.17280  1.0000
  H   H8180     1.0  0.91168  0.69711  0.13091  1.0000
  H   H8181     1.0  0.75928  0.71503  0.28230  1.0000
  H   H8182     1.0  0.81931  0.58332  0.14426  1.0000
  C   C4629     1.0  0.80797  0.54480  0.27149  1.0000
  H   H8183     1.0  0.74793  0.49527  0.34056  1.0000
  H   H8184     1.0  0.78872  0.56249  0.26021  1.0000
  S   S1039     1.0  0.76327  0.63491  0.36201  1.0000
  C   C4630     1.0  0.80824  0.60911  0.14259  1.0000
  H   H8185     1.0  0.78690  0.67588  0.35493  1.0000
  H   H8186     1.0  0.80466  0.65098  0.00228  1.0000
  H   H8187     1.0  0.81457  0.67300  0.35424  1.0000
  H   H8188     1.0  0.80120  0.71286  0.16292  1.0000
  H   H8189     1.0  0.76871  0.57311  0.13561  1.0000
  H   H8190     1.0  0.77685  0.57788  0.10532  1.0000
  H   H8191     1.0  0.78580  0.55688  0.11436  1.0000
  H   H8192     1.0  0.77044  0.65454  0.04643  1.0000
  N   N258      1.0  0.79199  0.63779  0.03575  1.0000
  H   H8193     1.0  0.81844  0.72124  0.08611  1.0000
  C   C4631     1.0  0.78959  0.62503  0.05182  1.0000
  C   C4632     1.0  0.77552  0.61573  0.05495  1.0000
  C   C4633     1.0  0.77485  0.59526  0.46882  1.0000
  H   H8194     1.0  0.76472  0.65097  0.31144  1.0000
  C   C4634     1.0  0.77618  0.60145  0.07017  1.0000
  H   H8195     1.0  0.74822  0.66884  0.02223  1.0000
  H   H8196     1.0  0.76617  0.64316  0.03428  1.0000
  H   H8197     1.0  0.94752  0.68455  0.07866  1.0000
  H   H8198     1.0  0.83133  0.64265  0.03082  1.0000
  H   H8199     1.0  0.80120  0.61536  0.05267  1.0000
  H   H8200     1.0  0.77184  0.70610  0.08516  1.0000
  C   C4635     1.0  0.94855  0.67088  0.13940  1.0000
  H   H8201     1.0  0.77648  0.61062  0.04412  1.0000
  H   H8202     1.0  0.76318  0.62422  0.05751  1.0000
  H   H8203     1.0  0.75281  0.66205  0.07202  1.0000
  H   H8204     1.0  0.80664  0.59216  0.12918  1.0000
  H   H8205     1.0  0.79228  0.66280  0.37931  1.0000
  C   C4636     1.0  0.86139  0.72107  0.08204  1.0000
  H   H8206     1.0  0.77542  0.60615  0.08122  1.0000
  H   H8207     1.0  0.76551  0.59550  0.07268  1.0000
  H   H8208     1.0  0.78786  0.59192  0.06811  1.0000
  C   C4637     1.0  0.79530  0.59879  0.34667  1.0000
  C   C4638     1.0  0.79934  0.58107  0.35742  1.0000
  C   C4639     1.0  0.79435  0.58110  0.37583  1.0000
  H   H8209     1.0  0.80209  0.62636  0.32705  1.0000
  H   H8210     1.0  0.79909  0.60746  0.35173  1.0000
  H   H8211     1.0  0.78151  0.60258  0.34912  1.0000
  H   H8212     1.0  0.81275  0.57533  0.35480  1.0000
  H   H8213     1.0  0.82679  0.60174  0.34515  1.0000
  H   H8214     1.0  0.77200  0.62472  0.33129  1.0000
  H   H8215     1.0  0.80036  0.58956  0.37873  1.0000
  N   N259      1.0  0.78569  0.69754  0.36402  1.0000
  H   H8216     1.0  0.82028  0.60310  0.28452  1.0000
  N   N260      1.0  0.74935  0.49774  0.22199  1.0000
  H   H8217     1.0  0.79965  0.65016  0.40592  1.0000
  H   H8218     1.0  0.76456  0.61206  0.24781  1.0000
  H   H8219     1.0  0.80500  0.52025  0.28578  1.0000
  H   H8220     1.0  0.83855  0.58614  0.25551  1.0000
  N   N261      1.0  0.79758  0.67888  0.12929  1.0000
  C   C4640     1.0  0.81505  0.66875  0.12906  1.0000
  C   C4641     1.0  0.79149  0.68619  0.14453  1.0000
  C   C4642     1.0  0.81160  0.70016  0.10502  1.0000
  C   C4643     1.0  0.80092  0.69862  0.14575  1.0000
  C   C4644     1.0  0.79402  0.70423  0.16218  1.0000
  C   C4645     1.0  0.84094  0.65248  0.11286  1.0000
  H   H8221     1.0  0.81577  0.66017  0.14129  1.0000
  H   H8222     1.0  0.82388  0.67665  0.12748  1.0000
  H   H8223     1.0  0.77839  0.69318  0.14545  1.0000
  H   H8224     1.0  0.82162  0.69143  0.09842  1.0000
  H   H8225     1.0  0.81696  0.70332  0.11374  1.0000
  H   H8226     1.0  0.81433  0.69309  0.14489  1.0000
  H   H8227     1.0  0.79925  0.70996  0.13583  1.0000
  H   H8228     1.0  0.78077  0.71076  0.16322  1.0000
  H   H8229     1.0  0.79502  0.69344  0.17277  1.0000
  C   C4646     1.0  0.77492  0.66482  0.02023  1.0000
  C   C4647     1.0  0.82157  0.63615  0.03926  1.0000
  H   H8230     1.0  0.84672  0.66345  0.10774  1.0000
  H   H8231     1.0  0.84484  0.64548  0.12460  1.0000
  H   H8232     1.0  0.91233  0.67055  0.12989  1.0000
  H   H8233     1.0  0.91408  0.71470  0.15766  1.0000
  H   H8234     1.0  0.85138  0.57045  0.22217  1.0000
  H   H8235     1.0  0.91040  0.63147  0.16121  1.0000
  H   H8236     1.0  0.81468  0.56279  0.23868  1.0000
  H   H8237     1.0  0.80660  0.56595  0.33216  1.0000
  H   H8238     1.0  0.80126  0.60213  0.24566  1.0000
  H   H8239     1.0  0.78962  0.56566  0.27942  1.0000
  H   H8240     1.0  0.84549  0.64433  0.10380  1.0000
  H   H8241     1.0  0.78132  0.59249  0.32704  1.0000
  H   H8242     1.0  0.76163  0.52349  0.19419  1.0000
  C   C4648     1.0  0.74606  0.60496  0.32443  1.0000
  H   H8243     1.0  0.76170  0.65017  0.13882  1.0000
  C   C4649     1.0  0.80504  0.55708  0.16544  1.0000
  H   H8244     1.0  0.80668  0.56395  0.13329  1.0000
  H   H8245     1.0  0.80606  0.58271  0.28127  1.0000
  H   H8246     1.0  0.79310  0.53563  0.17790  1.0000
  H   H8247     1.0  0.79219  0.57313  0.35534  1.0000
  H   H8248     1.0  0.75686  0.63653  0.09332  1.0000
  H   H8249     1.0  0.77806  0.66072  0.00840  1.0000
  C   C4650     1.0  0.84041  0.57600  0.21646  1.0000
  C   C4651     1.0  0.74651  0.59192  0.35325  1.0000
  H   H8250     1.0  0.81820  0.61354  0.13233  1.0000
  H   H8251     1.0  0.79155  0.67604  0.15589  1.0000
  C   C4652     1.0  0.82204  0.65794  0.11586  1.0000
  H   H8252     1.0  0.97460  0.70204  0.18558  1.0000
  C   C4653     1.0  0.82389  0.63333  0.05693  1.0000
  C   C4654     1.0  0.81850  0.52847  0.17993  1.0000
  S   S1040     1.0  0.80331  0.71569  0.04686  1.0000
  C   C4655     1.0  0.79623  0.69229  0.11374  1.0000
  H   H8253     1.0  0.78525  0.70247  0.11640  1.0000
  H   H8254     1.0  0.77206  0.58903  0.27100  1.0000
  H   H8255     1.0  0.86046  0.69555  0.08482  1.0000
  H   H8256     1.0  0.84373  0.58572  0.20534  1.0000
  C   C4656     1.0  0.83078  0.60349  0.33149  1.0000
  H   H8257     1.0  0.81568  0.53213  0.19196  1.0000
  H   H8258     1.0  0.80794  0.53321  0.15889  1.0000
  H   H8259     1.0  0.81741  0.55827  0.15739  1.0000
  C   C4657     1.0  0.78669  0.66710  0.13086  1.0000
  C   C4658     1.0  0.78601  0.57011  0.11279  1.0000
  S   S1041     1.0  0.88781  0.72521  0.11273  1.0000
  H   H8260     1.0  0.77924  0.55650  0.19264  1.0000
  C   C4659     1.0  0.82123  0.59490  0.32464  1.0000
  H   H8261     1.0  0.80637  0.62136  0.30739  1.0000
  H   H8262     1.0  0.78983  0.58935  0.24278  1.0000
  C   C4660     1.0  0.76770  0.67444  0.13396  1.0000
  H   H8263     1.0  0.79004  0.66207  0.11949  1.0000
  H   H8264     1.0  0.79371  0.68748  0.10410  1.0000
  C   C4661     1.0  0.79468  0.59162  0.32079  1.0000
  H   H8265     1.0  0.82518  0.58138  0.32933  1.0000
  C   C4662     1.0  0.79504  0.59166  0.25221  1.0000
  H   H8266     1.0  0.78761  0.53229  0.27689  1.0000
  N   N262      1.0  0.79140  0.56817  0.15701  1.0000
  C   C4663     1.0  0.79109  0.56452  0.31719  1.0000
  H   H8267     1.0  0.76474  0.68669  0.12556  1.0000
  C   C4664     1.0  0.73995  0.63832  0.17383  1.0000
  C   C4665     1.0  0.80288  0.57313  0.32048  1.0000
  C   C4666     1.0  0.79751  0.56282  0.26747  1.0000
  H   H8268     1.0  0.82078  0.60332  0.25622  1.0000
  H   H8269     1.0  0.78697  0.63096  0.06254  1.0000
  H   H8270     1.0  0.76122  0.71364  0.36842  1.0000
  H   H8271     1.0  0.79241  0.58850  0.16668  1.0000
  S   S1042     1.0  0.76039  0.65040  0.39414  1.0000
  H   H8272     1.0  0.78372  0.67624  0.32696  1.0000
  C   C4667     1.0  0.78149  0.57480  0.12962  1.0000
  H   H8273     1.0  0.73951  0.49843  0.20116  1.0000
  H   H8274     1.0  0.82612  0.59684  0.31105  1.0000
  H   H8275     1.0  0.79474  0.59771  0.30756  1.0000
  H   H8276     1.0  0.85240  0.58296  0.33303  1.0000
  N   N263      1.0  0.80718  0.57620  0.25838  1.0000
  H   H8277     1.0  0.79231  0.55091  0.14248  1.0000
  H   H8278     1.0  0.76462  0.57523  0.16192  1.0000
  H   H8279     1.0  0.81425  0.57240  0.31043  1.0000
  C   C4668     1.0  0.81546  0.57902  0.27041  1.0000
  C   C4669     1.0  0.82684  0.59161  0.26345  1.0000
  C   C4670     1.0  0.83149  0.59607  0.27729  1.0000
  C   C4671     1.0  0.79719  0.53292  0.28295  1.0000
  H   H8280     1.0  0.81545  0.59003  0.22212  1.0000
  C   C4672     1.0  0.77990  0.49982  0.21740  1.0000
  H   H8281     1.0  0.79820  0.56838  0.38313  1.0000
  H   H8282     1.0  0.76384  0.72664  0.07393  1.0000
  H   H8283     1.0  0.78069  0.58498  0.37962  1.0000
  H   H8284     1.0  0.86731  0.71843  0.09231  1.0000
  H   H8285     1.0  0.78582  0.57187  0.30630  1.0000
  C   C4673     1.0  0.92242  0.69258  0.13702  1.0000
  H   H8286     1.0  0.76112  0.66252  0.11812  1.0000
  H   H8287     1.0  0.77540  0.72182  0.35053  1.0000
  C   C4674     1.0  0.80913  0.63743  0.00556  1.0000
  H   H8288     1.0  0.78067  0.56300  0.32813  1.0000
  C   C4675     1.0  0.81985  0.57028  0.24390  1.0000
  H   H8289     1.0  0.82347  0.56731  0.27569  1.0000
  H   H8290     1.0  0.81111  0.60883  0.15447  1.0000
  H   H8291     1.0  0.81380  0.54004  0.25999  1.0000
  H   H8292     1.0  0.79628  0.61805  0.14136  1.0000
  H   H8293     1.0  0.79278  0.71501  0.97675  1.0000
  H   H8294     1.0  0.80887  0.67105  0.38090  1.0000
  H   H8295     1.0  0.98734  0.71778  0.12288  1.0000
  H   H8296     1.0  0.78145  0.58812  0.12737  1.0000
  H   H8297     1.0  0.79851  0.57229  0.10595  1.0000
  H   H8298     1.0  0.79780  0.55202  0.31493  1.0000
  C   C4676     1.0  0.82568  0.58373  0.22871  1.0000
  H   H8299     1.0  0.81795  0.54405  0.27766  1.0000
  C   C4677     1.0  0.80744  0.59173  0.14193  1.0000
  H   H8300     1.0  0.76102  0.50183  0.23942  1.0000
  Fe  Fe527     1.0  0.77813  0.63125  0.38086  1.0000
  H   H8301     1.0  0.76141  0.49373  0.19720  1.0000
  H   H8302     1.0  0.78492  0.48671  0.22302  1.0000
  H   H8303     1.0  0.76193  0.67999  0.33695  1.0000
  C   C4678     1.0  0.79378  0.56381  0.14059  1.0000
  H   H8304     1.0  0.83101  0.56180  0.24815  1.0000
  C   C4679     1.0  0.90560  0.70605  0.16080  1.0000
  H   H8305     1.0  0.78087  0.65158  0.32070  1.0000
  C   C4680     1.0  0.77542  0.64968  0.03494  1.0000
  C   C4681     1.0  0.74656  0.66069  0.18115  1.0000
  H   H8306     1.0  0.94427  0.66537  0.15265  1.0000
  C   C4682     1.0  0.79547  0.67097  0.38534  1.0000
  H   H8307     1.0  0.96940  0.71893  0.10412  1.0000
  H   H8308     1.0  0.95114  0.69430  0.14357  1.0000
  H   H8309     1.0  0.74476  0.66765  0.13542  1.0000
  H   H8310     1.0  0.81037  0.68614  0.33516  1.0000
  H   H8311     1.0  0.89823  0.64960  0.15021  1.0000
  C   C4683     1.0  0.77539  0.69746  0.33851  1.0000
  C   C4684     1.0  0.92918  0.69014  0.10080  1.0000
  C   C4685     1.0  0.78780  0.72863  0.97492  1.0000
  H   H8312     1.0  0.76672  0.68544  0.36381  1.0000
  H   H8313     1.0  0.75147  0.56545  0.20791  1.0000
  C   C4686     1.0  0.74839  0.52303  0.17663  1.0000
  C   C4687     1.0  0.96234  0.70403  0.19430  1.0000
  C   C4688     1.0  0.75002  0.52000  0.19450  1.0000
  H   H8314     1.0  0.80312  0.71114  0.34579  1.0000
  H   H8315     1.0  0.78697  0.62751  0.01778  1.0000
  H   H8316     1.0  0.77172  0.68847  0.38839  1.0000
  C   C4689     1.0  0.77799  0.72571  0.37313  1.0000
  C   C4690     1.0  0.92363  0.65123  0.14841  1.0000
  H   H8317     1.0  0.92267  0.68042  0.10139  1.0000
  H   H8318     1.0  0.75036  0.49213  0.32016  1.0000
  H   H8319     1.0  0.79764  0.57917  0.45749  1.0000
  H   H8320     1.0  0.95717  0.66037  0.13408  1.0000
  H   H8321     1.0  0.79876  0.65421  0.04657  1.0000
  H   H8322     1.0  0.98063  0.66431  0.14501  1.0000
  C   C4691     1.0  0.97410  0.72264  0.12607  1.0000
  H   H8323     1.0  0.76406  0.70743  0.33983  1.0000
  C   C4692     1.0  0.79783  0.62914  0.02139  1.0000
  H   H8324     1.0  0.94755  0.69439  0.11074  1.0000
  H   H8325     1.0  0.93581  0.64237  0.14869  1.0000
  H   H8326     1.0  0.81880  0.63652  0.97968  1.0000
  S   S1043     1.0  0.74797  0.59240  0.37321  1.0000
  H   H8327     1.0  0.97520  0.70805  0.21790  1.0000
  H   H8328     1.0  0.93131  0.65756  0.12216  1.0000
  C   C4693     1.0  0.94155  0.68390  0.11254  1.0000
  H   H8329     1.0  0.84014  0.67833  0.33354  1.0000
  H   H8330     1.0  0.79746  0.60112  0.45101  1.0000
  H   H8331     1.0  0.80501  0.61625  0.02506  1.0000
  H   H8332     1.0  0.78578  0.70331  0.33068  1.0000
  H   H8333     1.0  0.95260  0.70496  0.18766  1.0000
  C   C4694     1.0  0.94669  0.72938  0.11966  1.0000
  C   C4695     1.0  0.75124  0.64472  0.17801  1.0000
  H   H8334     1.0  0.74445  0.56433  0.33213  1.0000
  H   H8335     1.0  0.79759  0.72550  0.09815  1.0000
  H   H8336     1.0  0.98484  0.71862  0.19845  1.0000
  H   H8337     1.0  0.83314  0.70026  0.33299  1.0000
  H   H8338     1.0  0.95826  0.73055  0.18951  1.0000
  H   H8339     1.0  0.82250  0.64534  0.06021  1.0000
  H   H8340     1.0  0.83783  0.68590  0.35177  1.0000
  H   H8341     1.0  0.76610  0.65387  0.23593  1.0000
  S   S1044     1.0  0.74595  0.58906  0.30090  1.0000
  H   H8342     1.0  0.82191  0.63513  0.00746  1.0000
  C   C4696     1.0  0.75748  0.67595  0.02159  1.0000
  C   C4697     1.0  0.77876  0.68823  0.35591  1.0000
  H   H8343     1.0  0.81484  0.62654  0.06615  1.0000
  H   H8344     1.0  0.79756  0.67011  0.41028  1.0000
  H   H8345     1.0  0.75722  0.68629  0.01053  1.0000
  H   H8346     1.0  0.78342  0.67256  0.01997  1.0000
  H   H8347     1.0  0.74721  0.72604  0.99682  1.0000
  C   C4698     1.0  0.74501  0.57595  0.33434  1.0000
  C   C4699     1.0  0.74640  0.71722  0.09606  1.0000
  S   S1045     1.0  0.83278  0.67735  0.99056  1.0000
  H   H8348     1.0  0.94445  0.70546  0.08145  1.0000
  H   H8349     1.0  0.98450  0.72481  0.23580  1.0000
  C   C4700     1.0  0.80424  0.64699  0.03667  1.0000
  H   H8350     1.0  0.77602  0.60533  0.43498  1.0000
  H   H8351     1.0  0.76859  0.60852  0.46537  1.0000
  H   H8352     1.0  0.76586  0.58798  0.46906  1.0000
  C   C4701     1.0  0.78383  0.59284  0.43872  1.0000
  C   C4702     1.0  0.74535  0.58994  0.32135  1.0000
  H   H8353     1.0  0.97931  0.68440  0.14861  1.0000
  H   H8354     1.0  0.80665  0.65672  0.02531  1.0000
  C   C4703     1.0  0.81457  0.68558  0.34640  1.0000
  C   C4704     1.0  0.74088  0.63609  0.46522  1.0000
  H   H8355     1.0  0.80881  0.70138  0.20801  1.0000
  C   C4705     1.0  0.80322  0.69943  0.35540  1.0000
  C   C4706     1.0  0.83251  0.68770  0.34087  1.0000
  H   H8356     1.0  0.74983  0.55533  0.19286  1.0000
  H   H8357     1.0  0.78942  0.50939  0.23304  1.0000
  C   C4707     1.0  0.76399  0.64563  0.46784  1.0000
  C   C4708     1.0  0.75022  0.50163  0.20359  1.0000
  C   C4709     1.0  0.79041  0.51041  0.21966  1.0000
  C   C4710     1.0  0.78975  0.59172  0.45427  1.0000
  C   C4711     1.0  0.81586  0.70883  0.21102  1.0000
  H   H8358     1.0  0.76649  0.71182  0.00000  1.0000
  C   C4712     1.0  0.80722  0.71602  0.09218  1.0000
  H   H8359     1.0  0.78623  0.52363  0.21373  1.0000
  C   C4713     1.0  0.80293  0.68175  0.98180  1.0000
  H   H8360     1.0  0.78920  0.69579  0.38849  1.0000
  S   S1046     1.0  0.74523  0.60355  0.11203  1.0000
  H   H8361     1.0  0.88784  0.71320  0.19880  1.0000
  C   C4714     1.0  0.95917  0.72000  0.20037  1.0000
  H   H8362     1.0  0.96202  0.69318  0.20491  1.0000
  S   S1047     1.0  0.86902  0.72088  0.24880  1.0000
  C   C4715     1.0  0.93818  0.69527  0.08283  1.0000
  H   H8363     1.0  0.92905  0.69987  0.07475  1.0000
  C   C4716     1.0  0.97197  0.67525  0.14944  1.0000
  S   S1048     1.0  0.73979  0.57596  0.26597  1.0000
  H   H8364     1.0  0.76968  0.72411  0.09317  1.0000
  H   H8365     1.0  0.75394  0.68128  0.03279  1.0000
  H   H8366     1.0  0.74523  0.71296  0.27107  1.0000
  H   H8367     1.0  0.80975  0.70083  0.36429  1.0000
  C   C4717     1.0  0.75317  0.56630  0.19445  1.0000
  H   H8368     1.0  0.74448  0.72400  0.32046  1.0000
  H   H8369     1.0  0.79791  0.63348  0.98752  1.0000
  H   H8370     1.0  0.74404  0.59423  0.21260  1.0000
  H   H8371     1.0  0.96587  0.67137  0.16263  1.0000
  H   H8372     1.0  0.74633  0.69749  0.08540  1.0000
  H   H8373     1.0  0.95613  0.72160  0.23777  1.0000
  H   H8374     1.0  0.94701  0.72104  0.20924  1.0000
  H   H8375     1.0  0.80364  0.50608  0.21389  1.0000
  H   H8376     1.0  0.77378  0.72129  0.38668  1.0000
  H   H8377     1.0  0.74884  0.53612  0.17037  1.0000
  S   S1049     1.0  0.97931  0.72756  0.15450  1.0000
  Fe  Fe528     1.0  0.80677  0.72501  0.01934  1.0000
  H   H8378     1.0  0.74716  0.70927  0.10851  1.0000
  C   C4718     1.0  0.76067  0.72499  0.99551  1.0000
  C   C4719     1.0  0.96708  0.72815  0.14085  1.0000
  H   H8379     1.0  0.74567  0.56600  0.36014  1.0000
  C   C4720     1.0  0.82024  0.67801  0.97706  1.0000
  S   S1050     1.0  0.82112  0.72866  0.27121  1.0000
  S   S1051     1.0  0.93424  0.72964  0.10628  1.0000
  H   H8380     1.0  0.73935  0.65395  0.21782  1.0000
  C   C4721     1.0  0.76872  0.73103  0.97741  1.0000
  H   H8381     1.0  0.73946  0.52853  0.20067  1.0000
  H   H8382     1.0  0.84013  0.73025  0.04508  1.0000
  H   H8383     1.0  0.77577  0.73136  0.03432  1.0000
  C   C4722     1.0  0.95833  0.71552  0.76399  1.0000
  C   C4723     1.0  0.84083  0.53309  0.66295  1.0000
  Fe  Fe529     1.0  0.75655  0.55154  0.65779  1.0000
  S   S1052     1.0  0.76710  0.52992  0.67616  1.0000
  C   C4724     1.0  0.78169  0.56822  0.88343  1.0000
  Fe  Fe530     1.0  0.78927  0.54962  0.63305  1.0000
  S   S1053     1.0  0.80238  0.52756  0.64955  1.0000
  S   S1054     1.0  0.80301  0.56424  0.60978  1.0000
  Fe  Fe531     1.0  0.77919  0.51779  0.65454  1.0000
  C   C4725     1.0  0.74860  0.64586  0.87935  1.0000
  Fe  Fe532     1.0  0.78902  0.54164  0.66968  1.0000
  S   S1055     1.0  0.80055  0.54341  0.68979  1.0000
  S   S1056     1.0  0.76709  0.53888  0.63641  1.0000
  S   S1057     1.0  0.77750  0.56416  0.65294  1.0000
  Fe  Fe533     1.0  0.76517  0.64683  0.50771  1.0000
  H   H8384     1.0  0.74553  0.57273  0.78854  1.0000
  Fe  Fe534     1.0  0.76639  0.65424  0.54002  1.0000
  H   H8385     1.0  0.74464  0.72383  0.86192  1.0000
  S   S1058     1.0  0.77255  0.66573  0.55767  1.0000
  Fe  Fe535     1.0  0.76343  0.61984  0.53913  1.0000
  S   S1059     1.0  0.76789  0.59220  0.54896  1.0000
  H   H8386     1.0  0.96531  0.72015  0.78403  1.0000
  H   H8387     1.0  0.90848  0.64440  0.88842  1.0000
  S   S1060     1.0  0.78237  0.63511  0.52547  1.0000
  H   H8388     1.0  0.80503  0.60783  0.87421  1.0000
  Fe  Fe536     1.0  0.94316  0.67122  0.77699  1.0000
  S   S1061     1.0  0.92392  0.68327  0.79627  1.0000
  S   S1062     1.0  0.97101  0.66757  0.77377  1.0000
  Fe  Fe537     1.0  0.91680  0.66668  0.76131  1.0000
  S   S1063     1.0  0.89567  0.67819  0.77964  1.0000
  S   S1064     1.0  0.91179  0.66202  0.73868  1.0000
  Fe  Fe538     1.0  0.91092  0.69698  0.77552  1.0000
  H   H8389     1.0  0.86600  0.69438  0.81482  1.0000
  Fe  Fe539     1.0  0.91073  0.66323  0.79845  1.0000
  S   S1065     1.0  0.89903  0.64790  0.82244  1.0000
  S   S1066     1.0  0.93114  0.68652  0.75605  1.0000
  S   S1067     1.0  0.93083  0.65011  0.78043  1.0000
  Fe  Fe540     1.0  0.82493  0.68419  0.88473  1.0000
  S   S1068     1.0  0.81743  0.66087  0.90108  1.0000
  S   S1069     1.0  0.85045  0.68951  0.87371  1.0000
  Fe  Fe541     1.0  0.78936  0.70284  0.88447  1.0000
  S   S1070     1.0  0.77870  0.68116  0.90047  1.0000
  H   H8390     1.0  0.92115  0.70569  0.84361  1.0000
  Fe  Fe542     1.0  0.79760  0.67829  0.91544  1.0000
  S   S1071     1.0  0.78807  0.67621  0.94318  1.0000
  Fe  Fe543     1.0  0.79918  0.66593  0.88479  1.0000
  S   S1072     1.0  0.79715  0.64771  0.87116  1.0000
  S   S1073     1.0  0.80666  0.70115  0.90032  1.0000
  S   S1074     1.0  0.80828  0.68794  0.86756  1.0000
  Fe  Fe544     1.0  0.84259  0.61331  0.69502  1.0000
  S   S1075     1.0  0.82895  0.63987  0.69319  1.0000
  S   S1076     1.0  0.83568  0.60299  0.67695  1.0000
  Fe  Fe545     1.0  0.86008  0.61552  0.72068  1.0000
  S   S1077     1.0  0.84720  0.64200  0.72073  1.0000
  S   S1078     1.0  0.87749  0.60543  0.73829  1.0000
  Fe  Fe546     1.0  0.82469  0.63398  0.72067  1.0000
  S   S1079     1.0  0.79962  0.64392  0.73513  1.0000
  Fe  Fe547     1.0  0.85296  0.64495  0.69336  1.0000
  S   S1080     1.0  0.86177  0.66714  0.67652  1.0000
  S   S1081     1.0  0.83675  0.60698  0.72281  1.0000
  S   S1082     1.0  0.86737  0.61897  0.69295  1.0000
  C   C4726     1.0  0.93143  0.67926  0.84581  1.0000
  S   S1083     1.0  0.81871  0.69931  0.59218  1.0000
  H   H8391     1.0  0.78914  0.54254  0.52724  1.0000
  Fe  Fe548     1.0  0.84451  0.69444  0.59584  1.0000
  S   S1084     1.0  0.85546  0.66778  0.60557  1.0000
  S   S1085     1.0  0.85465  0.70837  0.57063  1.0000
  H   H8392     1.0  0.87385  0.55765  0.60753  1.0000
  C   C4727     1.0  0.86323  0.55165  0.61019  1.0000
  C   C4728     1.0  0.75509  0.55044  0.80516  1.0000
  H   H8393     1.0  0.76877  0.56524  0.51488  1.0000
  S   S1086     1.0  0.78398  0.59723  0.80545  1.0000
  H   H8394     1.0  0.76486  0.58929  0.90641  1.0000
  H   H8395     1.0  0.81594  0.61444  0.89444  1.0000
  H   H8396     1.0  0.85396  0.58720  0.64799  1.0000
  C   C4729     1.0  0.79560  0.63120  0.75483  1.0000
  C   C4730     1.0  0.77981  0.63413  0.76500  1.0000
  C   C4731     1.0  0.77615  0.62344  0.78039  1.0000
  C   C4732     1.0  0.78842  0.61010  0.78588  1.0000
  C   C4733     1.0  0.80430  0.60727  0.77581  1.0000
  C   C4734     1.0  0.80790  0.61787  0.76029  1.0000
  H   H8397     1.0  0.77026  0.64449  0.76087  1.0000
  H   H8398     1.0  0.87708  0.53494  0.59376  1.0000
  H   H8399     1.0  0.81380  0.59691  0.78001  1.0000
  H   H8400     1.0  0.82023  0.61580  0.75265  1.0000
  C   C4735     1.0  0.86250  0.66620  0.65632  1.0000
  C   C4736     1.0  0.86600  0.67946  0.64323  1.0000
  C   C4737     1.0  0.86458  0.67964  0.62735  1.0000
  C   C4738     1.0  0.85985  0.66647  0.62458  1.0000
  C   C4739     1.0  0.85726  0.65280  0.63748  1.0000
  C   C4740     1.0  0.85856  0.65266  0.65336  1.0000
  H   H8401     1.0  0.86934  0.68977  0.64544  1.0000
  H   H8402     1.0  0.86708  0.69000  0.61726  1.0000
  H   H8403     1.0  0.85345  0.64270  0.63539  1.0000
  H   H8404     1.0  0.85604  0.64227  0.66336  1.0000
  C   C4741     1.0  0.80075  0.67728  0.95574  1.0000
  H   H8405     1.0  0.85596  0.68639  0.70833  1.0000
  C   C4742     1.0  0.79173  0.60125  0.48409  1.0000
  C   C4743     1.0  0.77515  0.59109  0.71549  1.0000
  H   H8406     1.0  0.74708  0.56298  0.74614  1.0000
  C   C4744     1.0  0.97954  0.67366  0.78703  1.0000
  H   H8407     1.0  0.96398  0.71274  0.75152  1.0000
  C   C4745     1.0  0.82524  0.72444  0.96746  1.0000
  N   N264      1.0  0.78166  0.58589  0.88298  1.0000
  C   C4746     1.0  0.75156  0.72284  0.90199  1.0000
  C   C4747     1.0  0.77782  0.64659  0.86864  1.0000
  C   C4748     1.0  0.77748  0.64116  0.85484  1.0000
  C   C4749     1.0  0.76295  0.63761  0.85351  1.0000
  H   H8408     1.0  0.82201  0.55170  0.65220  1.0000
  C   C4750     1.0  0.85499  0.58400  0.62318  1.0000
  C   C4751     1.0  0.76323  0.64932  0.88074  1.0000
  H   H8409     1.0  0.78870  0.63909  0.84543  1.0000
  H   H8410     1.0  0.76312  0.63277  0.84315  1.0000
  H   H8411     1.0  0.82275  0.59274  0.60390  1.0000
  H   H8412     1.0  0.76341  0.65342  0.89149  1.0000
  H   H8413     1.0  0.81922  0.65532  0.63808  1.0000
  H   H8414     1.0  0.78970  0.49188  0.62688  1.0000
  C   C4752     1.0  0.89578  0.71639  0.74308  1.0000
  H   H8415     1.0  0.89215  0.70948  0.72258  1.0000
  H   H8416     1.0  0.89643  0.70400  0.75060  1.0000
  C   C4753     1.0  0.90305  0.64559  0.73893  1.0000
  C   C4754     1.0  0.89664  0.64655  0.72531  1.0000
  C   C4755     1.0  0.88899  0.63420  0.72504  1.0000
  C   C4756     1.0  0.88806  0.62045  0.73823  1.0000
  C   C4757     1.0  0.89509  0.61908  0.75162  1.0000
  C   C4758     1.0  0.90225  0.63181  0.75215  1.0000
  H   H8417     1.0  0.89741  0.65702  0.71500  1.0000
  H   H8418     1.0  0.88401  0.63523  0.71447  1.0000
  H   H8419     1.0  0.89488  0.60826  0.76166  1.0000
  H   H8420     1.0  0.90740  0.63084  0.76260  1.0000
  C   C4759     1.0  0.88558  0.65927  0.83684  1.0000
  C   C4760     1.0  0.88718  0.67515  0.83626  1.0000
  C   C4761     1.0  0.87668  0.68408  0.84801  1.0000
  C   C4762     1.0  0.86393  0.67751  0.85985  1.0000
  C   C4763     1.0  0.86220  0.66164  0.86038  1.0000
  C   C4764     1.0  0.87325  0.65238  0.84908  1.0000
  H   H8421     1.0  0.89663  0.68046  0.82682  1.0000
  H   H8422     1.0  0.87817  0.69626  0.84773  1.0000
  H   H8423     1.0  0.85250  0.65643  0.86964  1.0000
  H   H8424     1.0  0.87203  0.64003  0.84961  1.0000
  H   H8425     1.0  0.74858  0.59974  0.87612  1.0000
  H   H8426     1.0  0.82176  0.58696  0.64122  1.0000
  H   H8427     1.0  0.84172  0.56642  0.65365  1.0000
  H   H8428     1.0  0.76634  0.54432  0.79721  1.0000
  H   H8429     1.0  0.74970  0.56733  0.82171  1.0000
  C   C4765     1.0  0.82088  0.59708  0.61542  1.0000
  H   H8430     1.0  0.78991  0.53364  0.89297  1.0000
  H   H8431     1.0  0.82065  0.60771  0.48731  1.0000
  H   H8432     1.0  0.90442  0.70324  0.69768  1.0000
  N   N265      1.0  0.77629  0.60319  0.72476  1.0000
  C   C4766     1.0  0.78484  0.68053  0.55252  1.0000
  C   C4767     1.0  0.79541  0.68393  0.53698  1.0000
  C   C4768     1.0  0.80667  0.69411  0.53432  1.0000
  C   C4769     1.0  0.80730  0.70097  0.54713  1.0000
  C   C4770     1.0  0.79604  0.69830  0.56228  1.0000
  C   C4771     1.0  0.78497  0.68802  0.56501  1.0000
  H   H8433     1.0  0.79529  0.67831  0.52722  1.0000
  H   H8434     1.0  0.81521  0.69632  0.52247  1.0000
  H   H8435     1.0  0.79604  0.70395  0.57201  1.0000
  H   H8436     1.0  0.77666  0.68560  0.57697  1.0000
  C   C4772     1.0  0.79207  0.54775  0.51370  1.0000
  C   C4773     1.0  0.80896  0.56077  0.68735  1.0000
  C   C4774     1.0  0.80550  0.57517  0.67530  1.0000
  C   C4775     1.0  0.81289  0.58853  0.67315  1.0000
  C   C4776     1.0  0.82411  0.58748  0.68270  1.0000
  C   C4777     1.0  0.82717  0.57333  0.69516  1.0000
  C   C4778     1.0  0.81949  0.56007  0.69756  1.0000
  H   H8437     1.0  0.79724  0.57600  0.66753  1.0000
  H   H8438     1.0  0.81025  0.59960  0.66373  1.0000
  H   H8439     1.0  0.83596  0.57233  0.70247  1.0000
  H   H8440     1.0  0.82221  0.54897  0.70694  1.0000
  C   C4779     1.0  0.79268  0.57222  0.59330  1.0000
  C   C4780     1.0  0.79407  0.58789  0.58316  1.0000
  C   C4781     1.0  0.78609  0.59434  0.56979  1.0000
  C   C4782     1.0  0.77728  0.58483  0.56612  1.0000
  C   C4783     1.0  0.77607  0.56909  0.57614  1.0000
  C   C4784     1.0  0.78344  0.56294  0.58992  1.0000
  H   H8441     1.0  0.80117  0.59512  0.58575  1.0000
  H   H8442     1.0  0.78708  0.60649  0.56210  1.0000
  H   H8443     1.0  0.76929  0.58107  0.72436  1.0000
  H   H8444     1.0  0.78246  0.55078  0.59758  1.0000
  H   H8445     1.0  0.83953  0.60306  0.63733  1.0000
  C   C4785     1.0  0.82253  0.72642  0.83005  1.0000
  C   C4786     1.0  0.96940  0.68159  0.79961  1.0000
  H   H8446     1.0  0.76141  0.61266  0.75720  1.0000
  H   H8447     1.0  0.77171  0.70658  0.66876  1.0000
  C   C4787     1.0  0.76588  0.59827  0.70111  1.0000
  H   H8448     1.0  0.89004  0.70368  0.64998  1.0000
  H   H8449     1.0  0.95616  0.68491  0.80067  1.0000
  H   H8450     1.0  0.79990  0.67050  0.63704  1.0000
  H   H8451     1.0  0.81840  0.71566  0.64123  1.0000
  C   C4788     1.0  0.84474  0.70273  0.79426  1.0000
  H   H8452     1.0  0.77910  0.69819  0.68762  1.0000
  C   C4789     1.0  0.77772  0.53958  0.89985  1.0000
  H   H8453     1.0  0.87558  0.71396  0.69140  1.0000
  C   C4790     1.0  0.81196  0.69607  0.69452  1.0000
  H   H8454     1.0  0.80149  0.57152  0.72901  1.0000
  C   C4791     1.0  0.74854  0.63965  0.86589  1.0000
  H   H8455     1.0  0.76079  0.71250  0.90658  1.0000
  C   C4792     1.0  0.78546  0.59338  0.73832  1.0000
  C   C4793     1.0  0.78586  0.61595  0.71345  1.0000
  C   C4794     1.0  0.74550  0.71284  0.85708  1.0000
  H   H8456     1.0  0.83536  0.69650  0.79327  1.0000
  C   C4795     1.0  0.78714  0.64312  0.69222  1.0000
  Fe  Fe549     1.0  0.81442  0.72209  0.60185  1.0000
  C   C4796     1.0  0.81203  0.57556  0.74688  1.0000
  H   H8457     1.0  0.78753  0.60191  0.74488  1.0000
  H   H8458     1.0  0.79232  0.62028  0.72053  1.0000
  H   H8459     1.0  0.84943  0.72125  0.95042  1.0000
  C   C4797     1.0  0.78208  0.56557  0.50996  1.0000
  H   H8460     1.0  0.76658  0.62968  0.74051  1.0000
  H   H8461     1.0  0.81050  0.58959  0.72224  1.0000
  H   H8462     1.0  0.81677  0.57388  0.63175  1.0000
  H   H8463     1.0  0.79700  0.63618  0.68363  1.0000
  H   H8464     1.0  0.77978  0.65386  0.68480  1.0000
  H   H8465     1.0  0.85204  0.70256  0.69037  1.0000
  C   C4798     1.0  0.83545  0.54634  0.64831  1.0000
  C   C4799     1.0  0.89123  0.71352  0.65529  1.0000
  H   H8466     1.0  0.82425  0.56758  0.74258  1.0000
  H   H8467     1.0  0.81427  0.58583  0.75088  1.0000
  H   H8468     1.0  0.80482  0.56800  0.75762  1.0000
  H   H8469     1.0  0.81681  0.72126  0.80923  1.0000
  H   H8470     1.0  0.79955  0.61610  0.60911  1.0000
  H   H8471     1.0  0.86793  0.57658  0.62247  1.0000
  H   H8472     1.0  0.78887  0.53985  0.50728  1.0000
  S   S1087     1.0  0.75085  0.66734  0.52108  1.0000
  H   H8473     1.0  0.86474  0.55383  0.58397  1.0000
  H   H8474     1.0  0.76375  0.62556  0.78787  1.0000
  H   H8475     1.0  0.79898  0.56994  0.48591  1.0000
  H   H8476     1.0  0.78884  0.61241  0.89177  1.0000
  S   S1088     1.0  0.83933  0.71574  0.60826  1.0000
  H   H8477     1.0  0.77554  0.53196  0.74574  1.0000
  C   C4800     1.0  0.75292  0.55034  0.75219  1.0000
  H   H8478     1.0  0.83711  0.53998  0.63821  1.0000
  H   H8479     1.0  0.76613  0.72463  0.57118  1.0000
  H   H8480     1.0  0.74236  0.59909  0.48669  1.0000
  N   N266      1.0  0.77883  0.59166  0.48569  1.0000
  H   H8481     1.0  0.93294  0.63696  0.83132  1.0000
  C   C4801     1.0  0.79414  0.71437  0.66822  1.0000
  H   H8482     1.0  0.75993  0.61195  0.49386  1.0000
  H   H8483     1.0  0.96000  0.65683  0.85383  1.0000
  H   H8484     1.0  0.76576  0.56207  0.90834  1.0000
  H   H8485     1.0  0.77848  0.55299  0.74069  1.0000
  H   H8486     1.0  0.77785  0.58512  0.74788  1.0000
  C   C4802     1.0  0.76122  0.59435  0.62012  1.0000
  S   S1089     1.0  0.77473  0.72731  0.87308  1.0000
  C   C4803     1.0  0.81446  0.72763  0.95460  1.0000
  H   H8487     1.0  0.96725  0.65702  0.83255  1.0000
  H   H8488     1.0  0.80343  0.62459  0.49227  1.0000
  C   C4804     1.0  0.75896  0.61084  0.73304  1.0000
  H   H8489     1.0  0.77992  0.56608  0.48561  1.0000
  H   H8490     1.0  0.74027  0.63813  0.75997  1.0000
  H   H8491     1.0  0.94295  0.68077  0.84812  1.0000
  H   H8492     1.0  0.80560  0.54743  0.50974  1.0000
  C   C4805     1.0  0.79323  0.68109  0.97134  1.0000
  C   C4806     1.0  0.95899  0.62602  0.80650  1.0000
  H   H8493     1.0  0.94073  0.62943  0.86559  1.0000
  H   H8494     1.0  0.76520  0.58089  0.62011  1.0000
  H   H8495     1.0  0.96850  0.64216  0.81465  1.0000
  C   C4807     1.0  0.89736  0.72912  0.74930  1.0000
  C   C4808     1.0  0.74175  0.56078  0.79508  1.0000
  C   C4809     1.0  0.90849  0.67310  0.65775  1.0000
  H   H8496     1.0  0.93131  0.68794  0.71434  1.0000
  C   C4810     1.0  0.86504  0.54405  0.59551  1.0000
  C   C4811     1.0  0.82777  0.67412  0.96150  1.0000
  H   H8497     1.0  0.94967  0.65169  0.80742  1.0000
  C   C4812     1.0  0.74848  0.64152  0.47467  1.0000
  N   N267      1.0  0.90373  0.69136  0.67896  1.0000
  H   H8498     1.0  0.75575  0.58968  0.68526  1.0000
  H   H8499     1.0  0.88600  0.73084  0.80540  1.0000
  H   H8500     1.0  0.97594  0.62533  0.83960  1.0000
  H   H8501     1.0  0.92353  0.66498  0.83315  1.0000
  H   H8502     1.0  0.78723  0.71327  0.95084  1.0000
  H   H8503     1.0  0.84967  0.71110  0.97174  1.0000
  H   H8504     1.0  0.75191  0.57909  0.70670  1.0000
  C   C4813     1.0  0.80267  0.60594  0.61971  1.0000
  H   H8505     1.0  0.82850  0.60638  0.61293  1.0000
  H   H8506     1.0  0.86239  0.61553  0.61849  1.0000
  H   H8507     1.0  0.80028  0.61133  0.63071  1.0000
  H   H8508     1.0  0.79448  0.59711  0.62235  1.0000
  N   N268      1.0  0.83924  0.63376  0.78296  1.0000
  C   C4814     1.0  0.84767  0.64140  0.76574  1.0000
  C   C4815     1.0  0.84017  0.61571  0.78387  1.0000
  C   C4816     1.0  0.82107  0.64242  0.78545  1.0000
  C   C4817     1.0  0.84653  0.63564  0.79628  1.0000
  C   C4818     1.0  0.86546  0.63542  0.79171  1.0000
  C   C4819     1.0  0.84528  0.66061  0.76186  1.0000
  C   C4820     1.0  0.80950  0.63549  0.80180  1.0000
  C   C4821     1.0  0.85751  0.60404  0.78256  1.0000
  C   C4822     1.0  0.85690  0.58691  0.78100  1.0000
  C   C4823     1.0  0.87221  0.63345  0.80694  1.0000
  C   C4824     1.0  0.85885  0.66674  0.74760  1.0000
  C   C4825     1.0  0.79228  0.64695  0.80422  1.0000
  H   H8509     1.0  0.84297  0.63839  0.75632  1.0000
  H   H8510     1.0  0.86114  0.63584  0.76301  1.0000
  H   H8511     1.0  0.83281  0.61001  0.79582  1.0000
  H   H8512     1.0  0.83471  0.61472  0.77398  1.0000
  H   H8513     1.0  0.81583  0.64215  0.77503  1.0000
  H   H8514     1.0  0.81961  0.65577  0.78517  1.0000
  H   H8515     1.0  0.84021  0.64753  0.80028  1.0000
  H   H8516     1.0  0.84406  0.62579  0.80762  1.0000
  H   H8517     1.0  0.86791  0.64720  0.78313  1.0000
  H   H8518     1.0  0.87295  0.62524  0.78552  1.0000
  H   H8519     1.0  0.83315  0.66649  0.75827  1.0000
  H   H8520     1.0  0.84526  0.66508  0.77279  1.0000
  H   H8521     1.0  0.81474  0.63401  0.81267  1.0000
  H   H8522     1.0  0.80758  0.62332  0.80155  1.0000
  H   H8523     1.0  0.86635  0.60897  0.77158  1.0000
  H   H8524     1.0  0.86224  0.60230  0.79382  1.0000
  H   H8525     1.0  0.84835  0.58110  0.79192  1.0000
  H   H8526     1.0  0.85273  0.58792  0.76956  1.0000
  H   H8527     1.0  0.86952  0.57877  0.78015  1.0000
  H   H8528     1.0  0.86990  0.62197  0.81619  1.0000
  H   H8529     1.0  0.88584  0.63256  0.80315  1.0000
  H   H8530     1.0  0.86656  0.64435  0.81268  1.0000
  H   H8531     1.0  0.85985  0.66204  0.73650  1.0000
  H   H8532     1.0  0.85597  0.68051  0.74427  1.0000
  H   H8533     1.0  0.87098  0.66253  0.75134  1.0000
  H   H8534     1.0  0.78408  0.64126  0.81555  1.0000
  H   H8535     1.0  0.79301  0.65919  0.80563  1.0000
  H   H8536     1.0  0.78660  0.64876  0.79353  1.0000
  N   N269      1.0  0.83628  0.65080  0.56566  1.0000
  C   C4826     1.0  0.84645  0.66244  0.55321  1.0000
  C   C4827     1.0  0.82457  0.64685  0.55769  1.0000
  C   C4828     1.0  0.82591  0.65974  0.57919  1.0000
  C   C4829     1.0  0.84698  0.63513  0.57357  1.0000
  C   C4830     1.0  0.85998  0.62490  0.56167  1.0000
  C   C4831     1.0  0.85880  0.66788  0.55971  1.0000
  C   C4832     1.0  0.81277  0.65088  0.59226  1.0000
  C   C4833     1.0  0.83041  0.64624  0.53907  1.0000
  C   C4834     1.0  0.81853  0.63948  0.53369  1.0000
  C   C4835     1.0  0.87093  0.61025  0.57117  1.0000
  C   C4836     1.0  0.86917  0.67852  0.54565  1.0000
  C   C4837     1.0  0.80251  0.66168  0.60454  1.0000
  H   H8537     1.0  0.83802  0.67395  0.54793  1.0000
  H   H8538     1.0  0.85386  0.65698  0.54248  1.0000
  H   H8539     1.0  0.82088  0.63495  0.56470  1.0000
  H   H8540     1.0  0.81275  0.65642  0.55834  1.0000
  H   H8541     1.0  0.81931  0.67230  0.57367  1.0000
  H   H8542     1.0  0.83391  0.66184  0.58628  1.0000
  H   H8543     1.0  0.85350  0.63794  0.58167  1.0000
  H   H8544     1.0  0.83912  0.62655  0.58203  1.0000
  H   H8545     1.0  0.86827  0.63249  0.55235  1.0000
  H   H8546     1.0  0.85366  0.61964  0.55535  1.0000
  H   H8547     1.0  0.85206  0.67545  0.56905  1.0000
  H   H8548     1.0  0.86750  0.65702  0.56536  1.0000
  H   H8549     1.0  0.81888  0.63905  0.59946  1.0000
  H   H8550     1.0  0.80398  0.64823  0.58651  1.0000
  H   H8551     1.0  0.83055  0.65900  0.53144  1.0000
  H   H8552     1.0  0.84299  0.63845  0.53611  1.0000
  H   H8553     1.0  0.82240  0.63998  0.52017  1.0000
  H   H8554     1.0  0.81849  0.62640  0.54031  1.0000
  H   H8555     1.0  0.80574  0.64712  0.53635  1.0000
  H   H8556     1.0  0.87763  0.61471  0.57787  1.0000
  H   H8557     1.0  0.86331  0.60174  0.58016  1.0000
  H   H8558     1.0  0.88027  0.60320  0.56236  1.0000
  H   H8559     1.0  0.87790  0.68228  0.55059  1.0000
  H   H8560     1.0  0.87653  0.67146  0.53599  1.0000
  H   H8561     1.0  0.86100  0.68994  0.53996  1.0000
  H   H8562     1.0  0.79380  0.65486  0.61432  1.0000
  H   H8563     1.0  0.81084  0.66490  0.61041  1.0000
  H   H8564     1.0  0.79520  0.67330  0.59816  1.0000
  H   H8565     1.0  0.76321  0.53822  0.77389  1.0000
  H   H8566     1.0  0.76976  0.72641  0.69430  1.0000
  H   H8567     1.0  0.89465  0.63698  0.88123  1.0000
  H   H8568     1.0  0.82471  0.59316  0.89277  1.0000
  C   C4838     1.0  0.93528  0.66560  0.83582  1.0000
  C   C4839     1.0  0.89528  0.72795  0.64097  1.0000
  C   C4840     1.0  0.80937  0.61143  0.49673  1.0000
  H   H8569     1.0  0.77821  0.71743  0.59565  1.0000
  S   S1090     1.0  0.77589  0.49113  0.66205  1.0000
  C   C4841     1.0  0.78536  0.57319  0.49103  1.0000
  H   H8570     1.0  0.91382  0.65426  0.64353  1.0000
  H   H8571     1.0  0.96575  0.62934  0.79345  1.0000
  H   H8572     1.0  0.74293  0.68359  0.85837  1.0000
  H   H8573     1.0  0.76926  0.60126  0.60961  1.0000
  C   C4842     1.0  0.97644  0.68536  0.81068  1.0000
  C   C4843     1.0  0.74427  0.72518  0.55073  1.0000
  C   C4844     1.0  0.75693  0.72068  0.53537  1.0000
  H   H8574     1.0  0.94283  0.67019  0.82357  1.0000
  H   H8575     1.0  0.75751  0.70439  0.83401  1.0000
  H   H8576     1.0  0.76058  0.70817  0.60010  1.0000
  H   H8577     1.0  0.74030  0.51849  0.72338  1.0000
  H   H8578     1.0  0.80318  0.65675  0.65652  1.0000
  H   H8579     1.0  0.81670  0.71683  0.83954  1.0000
  C   C4845     1.0  0.96112  0.64976  0.84438  1.0000
  C   C4846     1.0  0.91393  0.67641  0.67204  1.0000
  C   C4847     1.0  0.75466  0.55013  0.76972  1.0000
  H   H8580     1.0  0.76627  0.57091  0.80371  1.0000
  H   H8581     1.0  0.94797  0.69617  0.69932  1.0000
  H   H8582     1.0  0.77414  0.60428  0.69003  1.0000
  C   C4848     1.0  0.85196  0.71251  0.76296  1.0000
  H   H8583     1.0  0.84188  0.70236  0.95947  1.0000
  H   H8584     1.0  0.74527  0.66926  0.83658  1.0000
  H   H8585     1.0  0.82433  0.68212  0.63622  1.0000
  H   H8586     1.0  0.87970  0.68991  0.67650  1.0000
  C   C4849     1.0  0.84647  0.56438  0.61295  1.0000
  H   H8587     1.0  0.91140  0.69571  0.83429  1.0000
  C   C4850     1.0  0.77739  0.70938  0.67753  1.0000
  C   C4851     1.0  0.74307  0.60066  0.61891  1.0000
  H   H8588     1.0  0.91407  0.62344  0.88500  1.0000
  H   H8589     1.0  0.77514  0.53174  0.91250  1.0000
  H   H8590     1.0  0.87890  0.71806  0.66292  1.0000
  H   H8591     1.0  0.74136  0.57886  0.58137  1.0000
  C   C4852     1.0  0.86578  0.72017  0.80570  1.0000
  H   H8592     1.0  0.90353  0.71777  0.67168  1.0000
  C   C4853     1.0  0.85217  0.59501  0.63573  1.0000
  C   C4854     1.0  0.92969  0.69209  0.68859  1.0000
  H   H8593     1.0  0.82501  0.66973  0.65677  1.0000
  H   H8594     1.0  0.80162  0.71893  0.93192  1.0000
  C   C4855     1.0  0.91618  0.64282  0.86245  1.0000
  H   H8595     1.0  0.80387  0.58738  0.50464  1.0000
  C   C4856     1.0  0.81943  0.68306  0.70816  1.0000
  N   N270      1.0  0.84307  0.57269  0.62723  1.0000
  C   C4857     1.0  0.77798  0.55698  0.90093  1.0000
  H   H8596     1.0  0.83281  0.67815  0.70345  1.0000
  H   H8597     1.0  0.78772  0.58481  0.70963  1.0000
  H   H8598     1.0  0.76869  0.62914  0.69656  1.0000
  C   C4858     1.0  0.80276  0.58240  0.73277  1.0000
  C   C4859     1.0  0.82531  0.58226  0.62973  1.0000
  C   C4860     1.0  0.93443  0.69672  0.70234  1.0000
  H   H8599     1.0  0.85697  0.69390  0.79190  1.0000
  H   H8600     1.0  0.82399  0.67103  0.93878  1.0000
  H   H8601     1.0  0.84631  0.57383  0.60114  1.0000
  H   H8602     1.0  0.79605  0.61018  0.70415  1.0000
  H   H8603     1.0  0.78522  0.57273  0.51711  1.0000
  H   H8604     1.0  0.87751  0.59898  0.62797  1.0000
  H   H8605     1.0  0.75420  0.60737  0.70418  1.0000
  H   H8606     1.0  0.85487  0.53749  0.59777  1.0000
  H   H8607     1.0  0.92773  0.70953  0.70368  1.0000
  C   C4861     1.0  0.92346  0.69612  0.83634  1.0000
  C   C4862     1.0  0.79996  0.60310  0.88752  1.0000
  C   C4863     1.0  0.76503  0.72349  0.68490  1.0000
  H   H8608     1.0  0.80844  0.59800  0.91045  1.0000
  H   H8609     1.0  0.85391  0.52647  0.65930  1.0000
  H   H8610     1.0  0.93295  0.70118  0.67691  1.0000
  H   H8611     1.0  0.91475  0.64609  0.66496  1.0000
  H   H8612     1.0  0.96658  0.61460  0.81287  1.0000
  H   H8613     1.0  0.81295  0.59640  0.82779  1.0000
  H   H8614     1.0  0.79291  0.64798  0.69943  1.0000
  C   C4864     1.0  0.77578  0.63195  0.70397  1.0000
  H   H8615     1.0  0.76514  0.60771  0.89092  1.0000
  H   H8616     1.0  0.89509  0.67323  0.66070  1.0000
  S   S1091     1.0  0.90100  0.72454  0.76934  1.0000
  H   H8617     1.0  0.79180  0.72347  0.65659  1.0000
  H   H8618     1.0  0.85498  0.59221  0.61069  1.0000
  H   H8619     1.0  0.92279  0.67624  0.85789  1.0000
  H   H8620     1.0  0.81811  0.70664  0.69114  1.0000
  H   H8621     1.0  0.74321  0.58471  0.60387  1.0000
  H   H8622     1.0  0.86415  0.54129  0.62117  1.0000
  H   H8623     1.0  0.77226  0.57452  0.69359  1.0000
  H   H8624     1.0  0.81446  0.71507  0.95332  1.0000
  H   H8625     1.0  0.84117  0.67115  0.95773  1.0000
  C   C4865     1.0  0.83377  0.69203  0.82371  1.0000
  H   H8626     1.0  0.93178  0.69984  0.82419  1.0000
  C   C4866     1.0  0.85693  0.69931  0.70177  1.0000
  C   C4867     1.0  0.93478  0.64248  0.86069  1.0000
  C   C4868     1.0  0.84326  0.67408  0.82218  1.0000
  H   H8627     1.0  0.82177  0.72663  0.66557  1.0000
  H   H8628     1.0  0.91416  0.66503  0.68221  1.0000
  H   H8629     1.0  0.88943  0.70878  0.81303  1.0000
  H   H8630     1.0  0.76166  0.55991  0.76784  1.0000
  C   C4869     1.0  0.83451  0.66130  0.83529  1.0000
  H   H8631     1.0  0.78768  0.55569  0.90773  1.0000
  H   H8632     1.0  0.83279  0.52391  0.66716  1.0000
  H   H8633     1.0  0.93545  0.64968  0.86936  1.0000
  H   H8634     1.0  0.82075  0.69324  0.82285  1.0000
  H   H8635     1.0  0.76274  0.59620  0.63182  1.0000
  H   H8636     1.0  0.83316  0.69268  0.83661  1.0000
  H   H8637     1.0  0.75172  0.61898  0.72387  1.0000
  H   H8638     1.0  0.79711  0.72162  0.67544  1.0000
  C   C4870     1.0  0.91774  0.65613  0.65403  1.0000
  C   C4871     1.0  0.87498  0.70089  0.69749  1.0000
  H   H8639     1.0  0.90895  0.68123  0.70352  1.0000
  H   H8640     1.0  0.75393  0.72970  0.52401  1.0000
  H   H8641     1.0  0.85607  0.67173  0.82391  1.0000
  H   H8642     1.0  0.84399  0.67177  0.80993  1.0000
  H   H8643     1.0  0.83961  0.53875  0.67348  1.0000
  H   H8644     1.0  0.76863  0.54661  0.72828  1.0000
  H   H8645     1.0  0.81813  0.68869  0.71874  1.0000
  C   C4872     1.0  0.90459  0.70727  0.66594  1.0000
  C   C4873     1.0  0.76951  0.72259  0.83522  1.0000
  H   H8646     1.0  0.92707  0.67750  0.66698  1.0000
  C   C4874     1.0  0.88620  0.68892  0.68627  1.0000
  S   S1092     1.0  0.77470  0.65077  0.47990  1.0000
  C   C4875     1.0  0.81308  0.60200  0.89691  1.0000
  Fe  Fe550     1.0  0.82834  0.71464  0.56756  1.0000
  H   H8647     1.0  0.84162  0.64854  0.83432  1.0000
  H   H8648     1.0  0.83365  0.66278  0.84793  1.0000
  H   H8649     1.0  0.82178  0.66269  0.83363  1.0000
  C   C4876     1.0  0.79571  0.58594  0.89035  1.0000
  C   C4877     1.0  0.78366  0.59537  0.86526  1.0000
  C   C4878     1.0  0.79979  0.58892  0.85317  1.0000
  C   C4879     1.0  0.80275  0.60196  0.83714  1.0000
  H   H8650     1.0  0.79283  0.58105  0.90398  1.0000
  H   H8651     1.0  0.80730  0.57726  0.88571  1.0000
  H   H8652     1.0  0.78274  0.60861  0.86467  1.0000
  H   H8653     1.0  0.77326  0.59534  0.85993  1.0000
  H   H8654     1.0  0.77279  0.56784  0.87631  1.0000
  H   H8655     1.0  0.79402  0.56205  0.87693  1.0000
  H   H8656     1.0  0.79870  0.57764  0.84996  1.0000
  H   H8657     1.0  0.81093  0.58573  0.85847  1.0000
  C   C4880     1.0  0.87991  0.72054  0.81307  1.0000
  H   H8658     1.0  0.79138  0.60678  0.83200  1.0000
  H   H8659     1.0  0.80628  0.61247  0.83948  1.0000
  H   H8660     1.0  0.81321  0.61042  0.50834  1.0000
  C   C4881     1.0  0.76314  0.59818  0.49733  1.0000
  C   C4882     1.0  0.76560  0.59423  0.89289  1.0000
  C   C4883     1.0  0.84548  0.56016  0.64304  1.0000
  H   H8661     1.0  0.75032  0.55871  0.68719  1.0000
  H   H8662     1.0  0.91703  0.70611  0.65738  1.0000
  C   C4884     1.0  0.75799  0.62106  0.74571  1.0000
  S   S1093     1.0  0.82272  0.71207  0.54430  1.0000
  H   H8663     1.0  0.76942  0.56161  0.57325  1.0000
  S   S1094     1.0  0.74752  0.63006  0.52046  1.0000
  H   H8664     1.0  0.86291  0.61314  0.63984  1.0000
  H   H8665     1.0  0.94772  0.72639  0.76313  1.0000
  H   H8666     1.0  0.77685  0.71374  0.92681  1.0000
  H   H8667     1.0  0.76492  0.59538  0.51017  1.0000
  C   C4885     1.0  0.75375  0.71614  0.83843  1.0000
  H   H8668     1.0  0.87897  0.69778  0.70939  1.0000
  H   H8669     1.0  0.96847  0.69104  0.82068  1.0000
  H   H8670     1.0  0.85887  0.55425  0.64240  1.0000
  C   C4886     1.0  0.81806  0.67404  0.95075  1.0000
  H   H8671     1.0  0.95343  0.70464  0.77211  1.0000
  H   H8672     1.0  0.93137  0.65526  0.65060  1.0000
  C   C4887     1.0  0.86454  0.60633  0.63005  1.0000
  H   H8673     1.0  0.78654  0.60411  0.50993  1.0000
  H   H8674     1.0  0.93731  0.67956  0.68729  1.0000
  C   C4888     1.0  0.94545  0.63678  0.83283  1.0000
  N   N271      1.0  0.94416  0.64864  0.84344  1.0000
  C   C4889     1.0  0.90792  0.63649  0.88041  1.0000
  H   H8675     1.0  0.83635  0.55806  0.61421  1.0000
  C   C4890     1.0  0.76993  0.54519  0.74111  1.0000
  H   H8676     1.0  0.74271  0.51319  0.67038  1.0000
  C   C4891     1.0  0.91096  0.69189  0.69289  1.0000
  H   H8677     1.0  0.91143  0.68258  0.64629  1.0000
  N   N272      1.0  0.80851  0.70022  0.66425  1.0000
  Fe  Fe551     1.0  0.75726  0.60641  0.81645  1.0000
  C   C4892     1.0  0.82268  0.70742  0.65244  1.0000
  C   C4893     1.0  0.80305  0.69052  0.65526  1.0000
  C   C4894     1.0  0.81389  0.68853  0.67947  1.0000
  N   N273      1.0  0.84103  0.70600  0.81147  1.0000
  H   H8678     1.0  0.74993  0.54073  0.81522  1.0000
  C   C4895     1.0  0.81672  0.67661  0.64814  1.0000
  H   H8679     1.0  0.90911  0.65560  0.85848  1.0000
  H   H8680     1.0  0.96843  0.62585  0.86120  1.0000
  H   H8681     1.0  0.75071  0.57868  0.49752  1.0000
  C   C4896     1.0  0.80922  0.66404  0.64473  1.0000
  C   C4897     1.0  0.79722  0.60020  0.50009  1.0000
  H   H8682     1.0  0.88630  0.67607  0.69379  1.0000
  H   H8683     1.0  0.83297  0.69750  0.64796  1.0000
  C   C4898     1.0  0.76123  0.58453  0.69639  1.0000
  H   H8684     1.0  0.79765  0.69900  0.64476  1.0000
  H   H8685     1.0  0.79295  0.68449  0.66366  1.0000
  H   H8686     1.0  0.80688  0.67839  0.68429  1.0000
  H   H8687     1.0  0.82711  0.68204  0.67613  1.0000
  H   H8688     1.0  0.81294  0.67261  0.71266  1.0000
  S   S1095     1.0  0.74520  0.59581  0.84236  1.0000
  H   H8689     1.0  0.74480  0.54963  0.71758  1.0000
  H   H8690     1.0  0.95015  0.62376  0.83905  1.0000
  H   H8691     1.0  0.79868  0.70055  0.69996  1.0000
  C   C4899     1.0  0.85672  0.70615  0.81605  1.0000
  H   H8692     1.0  0.77856  0.71353  0.84221  1.0000
  H   H8693     1.0  0.91476  0.63487  0.85496  1.0000
  C   C4900     1.0  0.78929  0.72330  0.93972  1.0000
  H   H8694     1.0  0.75463  0.70282  0.86321  1.0000
  C   C4901     1.0  0.76049  0.56125  0.81325  1.0000
  H   H8695     1.0  0.94697  0.62349  0.80654  1.0000
  H   H8696     1.0  0.74911  0.49703  0.72227  1.0000
  H   H8697     1.0  0.76687  0.63938  0.71267  1.0000
  C   C4902     1.0  0.95613  0.64034  0.81497  1.0000
  S   S1096     1.0  0.74876  0.63778  0.55502  1.0000
  H   H8698     1.0  0.84470  0.70444  0.76128  1.0000
  H   H8699     1.0  0.84925  0.70787  0.70996  1.0000
  S   S1097     1.0  0.74688  0.63295  0.81841  1.0000
  H   H8700     1.0  0.98143  0.70758  0.77186  1.0000
  C   C4903     1.0  0.84454  0.71796  0.77943  1.0000
  H   H8701     1.0  0.85267  0.71744  0.63875  1.0000
  C   C4904     1.0  0.97128  0.71875  0.77117  1.0000
  H   H8702     1.0  0.76966  0.72048  0.53623  1.0000
  H   H8703     1.0  0.75668  0.70810  0.53441  1.0000
  H   H8704     1.0  0.76977  0.55344  0.82059  1.0000
  H   H8705     1.0  0.74497  0.69613  0.89062  1.0000
  H   H8706     1.0  0.85425  0.70652  0.82935  1.0000
  H   H8707     1.0  0.87514  0.72257  0.82588  1.0000
  C   C4905     1.0  0.76451  0.72013  0.59722  1.0000
  S   S1098     1.0  0.79147  0.72997  0.62062  1.0000
  C   C4906     1.0  0.98055  0.72571  0.67711  1.0000
  H   H8708     1.0  0.87146  0.71789  0.79309  1.0000
  C   C4907     1.0  0.97341  0.63303  0.84882  1.0000
  H   H8709     1.0  0.83835  0.70836  0.66811  1.0000
  H   H8710     1.0  0.74535  0.72551  0.83100  1.0000
  H   H8711     1.0  0.75188  0.60099  0.73974  1.0000
  C   C4908     1.0  0.74758  0.59207  0.49773  1.0000
  H   H8712     1.0  0.98849  0.64323  0.85855  1.0000
  H   H8713     1.0  0.77541  0.72452  0.82183  1.0000
  C   C4909     1.0  0.83097  0.71717  0.65931  1.0000
  H   H8714     1.0  0.97423  0.71962  0.81441  1.0000
  C   C4910     1.0  0.89344  0.71952  0.72701  1.0000
  H   H8715     1.0  0.86506  0.70565  0.76243  1.0000
  H   H8716     1.0  0.75028  0.60300  0.59222  1.0000
  H   H8717     1.0  0.88577  0.73173  0.63339  1.0000
  C   C4911     1.0  0.77610  0.72568  0.92994  1.0000
  H   H8718     1.0  0.74524  0.52779  0.79792  1.0000
  H   H8719     1.0  0.74856  0.58013  0.89053  1.0000
  H   H8720     1.0  0.78725  0.61464  0.47867  1.0000
  H   H8721     1.0  0.76784  0.54015  0.89354  1.0000
  H   H8722     1.0  0.75881  0.72642  0.60778  1.0000
  H   H8723     1.0  0.74129  0.52120  0.77378  1.0000
  H   H8724     1.0  0.74641  0.50976  0.64230  1.0000
  C   C4912     1.0  0.74044  0.59838  0.60267  1.0000
  H   H8725     1.0  0.74521  0.54181  0.75257  1.0000
  H   H8726     1.0  0.75301  0.71974  0.69099  1.0000
  H   H8727     1.0  0.90758  0.72421  0.63286  1.0000
  Fe  Fe552     1.0  0.84740  0.73024  0.58269  1.0000
  H   H8728     1.0  0.83320  0.72785  0.83404  1.0000
  C   C4913     1.0  0.74045  0.63119  0.75075  1.0000
  H   H8729     1.0  0.74755  0.71547  0.56154  1.0000
  C   C4914     1.0  0.74938  0.59314  0.88898  1.0000
  C   C4915     1.0  0.75961  0.73126  0.58134  1.0000
  C   C4916     1.0  0.82813  0.72190  0.81278  1.0000
  C   C4917     1.0  0.84294  0.72627  0.64549  1.0000
  H   H8730     1.0  0.76591  0.72380  0.97004  1.0000
  C   C4918     1.0  0.84258  0.71417  0.96187  1.0000
  H   H8731     1.0  0.80337  0.59692  0.47537  1.0000
  H   H8732     1.0  0.74244  0.64227  0.48729  1.0000
  H   H8733     1.0  0.97939  0.72342  0.66544  1.0000
  H   H8734     1.0  0.85150  0.72680  0.77996  1.0000
  H   H8735     1.0  0.73961  0.61385  0.61982  1.0000
  H   H8736     1.0  0.98826  0.71447  0.68360  1.0000
  H   H8737     1.0  0.76345  0.72948  0.93740  1.0000
  H   H8738     1.0  0.83153  0.72486  0.77929  1.0000
  H   H8739     1.0  0.85181  0.72359  0.75256  1.0000
  H   H8740     1.0  0.96794  0.72801  0.68518  1.0000
  H   H8741     1.0  0.98142  0.73020  0.90081  1.0000
  C   C4919     1.0  0.78319  0.48185  0.63205  1.0000
  H   H8742     1.0  0.76880  0.77861  0.00046  1.0000
  H   H8743     1.0  0.80972  0.76926  0.29573  1.0000
  Fe  Fe553     1.0  0.90744  0.79797  0.22234  1.0000
  S   S1099     1.0  0.90386  0.81216  0.19705  1.0000
  S   S1100     1.0  0.88486  0.79084  0.24115  1.0000
  Fe  Fe554     1.0  0.94461  0.79802  0.21362  1.0000
  S   S1101     1.0  0.94405  0.81164  0.18745  1.0000
  S   S1102     1.0  0.96836  0.78852  0.22331  1.0000
  Fe  Fe555     1.0  0.92041  0.82745  0.19881  1.0000
  S   S1103     1.0  0.91551  0.85490  0.18819  1.0000
  Fe  Fe556     1.0  0.92760  0.79520  0.18791  1.0000
  S   S1104     1.0  0.93205  0.78258  0.16689  1.0000
  S   S1105     1.0  0.92191  0.81497  0.22512  1.0000
  S   S1106     1.0  0.93022  0.77986  0.21311  1.0000
  Fe  Fe557     1.0  0.81850  0.91441  0.17997  1.0000
  S   S1107     1.0  0.79778  0.93504  0.18751  1.0000
  S   S1108     1.0  0.82014  0.90872  0.15551  1.0000
  Fe  Fe558     1.0  0.83080  0.90794  0.21136  1.0000
  S   S1109     1.0  0.81096  0.92815  0.22147  1.0000
  S   S1110     1.0  0.84806  0.89123  0.22732  1.0000
  Fe  Fe559     1.0  0.79436  0.91813  0.21249  1.0000
  H   H8744     1.0  0.79127  0.81033  0.32474  1.0000
  Fe  Fe560     1.0  0.81651  0.94310  0.19555  1.0000
  S   S1111     1.0  0.81833  0.97001  0.18657  1.0000
  S   S1112     1.0  0.81374  0.89678  0.20433  1.0000
  S   S1113     1.0  0.83776  0.92361  0.18600  1.0000
  H   H8745     1.0  0.78603  0.80271  0.26959  1.0000
  C   C4920     1.0  0.76396  0.76962  0.01095  1.0000
  C   C4921     1.0  0.89158  0.79190  0.13830  1.0000
  H   H8746     1.0  0.75685  0.96241  0.20197  1.0000
  H   H8747     1.0  0.76793  0.95217  0.14580  1.0000
  S   S1114     1.0  0.79565  0.75089  0.00737  1.0000
  C   C4922     1.0  0.77479  0.82818  0.20671  1.0000
  C   C4923     1.0  0.78608  0.74432  0.30917  1.0000
  C   C4924     1.0  0.78216  0.73879  0.29722  1.0000
  H   H8748     1.0  0.89158  0.76836  0.18528  1.0000
  C   C4925     1.0  0.76801  0.74311  0.03011  1.0000
  C   C4926     1.0  0.75131  0.74660  0.03823  1.0000
  C   C4927     1.0  0.75671  0.82849  0.01164  1.0000
  H   H8749     1.0  0.83230  0.78179  0.15675  1.0000
  C   C4928     1.0  0.75246  0.82209  0.19655  1.0000
  C   C4929     1.0  0.80909  0.89394  0.15631  1.0000
  H   H8750     1.0  0.75469  0.83245  0.18565  1.0000
  C   C4930     1.0  0.77448  0.75479  0.01674  1.0000
  H   H8751     1.0  0.83028  0.75398  0.31334  1.0000
  C   C4931     1.0  0.80797  0.88027  0.16962  1.0000
  H   H8752     1.0  0.80260  0.90615  0.13278  1.0000
  H   H8753     1.0  0.93487  0.75484  0.26231  1.0000
  H   H8754     1.0  0.81384  0.87871  0.17970  1.0000
  H   H8755     1.0  0.89555  0.73606  0.22799  1.0000
  H   H8756     1.0  0.92908  0.77130  0.07616  1.0000
  C   C4932     1.0  0.81933  0.87305  0.09582  1.0000
  S   S1115     1.0  0.74561  0.81302  0.29825  1.0000
  H   H8757     1.0  0.74560  0.97433  0.17672  1.0000
  C   C4933     1.0  0.82328  0.97640  0.21456  1.0000
  N   N274      1.0  0.74450  0.91970  0.18518  1.0000
  H   H8758     1.0  0.83905  0.80685  0.12581  1.0000
  H   H8759     1.0  0.85609  0.96827  0.17071  1.0000
  H   H8760     1.0  0.81922  0.96509  0.22142  1.0000
  C   C4934     1.0  0.77212  0.86053  0.25425  1.0000
  H   H8761     1.0  0.77298  0.80167  0.33185  1.0000
  H   H8762     1.0  0.79584  0.88945  0.23774  1.0000
  H   H8763     1.0  0.77628  0.77575  0.26238  1.0000
  C   C4935     1.0  0.91634  0.78664  0.15594  1.0000
  C   C4936     1.0  0.90102  0.79744  0.15999  1.0000
  C   C4937     1.0  0.88873  0.80027  0.15100  1.0000
  C   C4938     1.0  0.79212  0.82390  0.12836  1.0000
  H   H8764     1.0  0.89864  0.80363  0.16997  1.0000
  H   H8765     1.0  0.87691  0.80854  0.15421  1.0000
  C   C4939     1.0  0.89110  0.76015  0.23350  1.0000
  C   C4940     1.0  0.88078  0.77125  0.24322  1.0000
  H   H8766     1.0  0.90190  0.76348  0.22454  1.0000
  C   C4941     1.0  0.89710  0.86516  0.19936  1.0000
  C   C4942     1.0  0.88934  0.85702  0.21478  1.0000
  C   C4943     1.0  0.87431  0.86517  0.22338  1.0000
  C   C4944     1.0  0.86665  0.88116  0.21624  1.0000
  C   C4945     1.0  0.87422  0.88918  0.20063  1.0000
  C   C4946     1.0  0.88972  0.88139  0.19244  1.0000
  H   H8767     1.0  0.89497  0.84449  0.22017  1.0000
  H   H8768     1.0  0.86849  0.85895  0.23547  1.0000
  H   H8769     1.0  0.86833  0.90149  0.19505  1.0000
  H   H8770     1.0  0.89583  0.88775  0.18060  1.0000
  H   H8771     1.0  0.79205  0.81608  0.28716  1.0000
  H   H8772     1.0  0.76870  0.94749  0.22666  1.0000
  H   H8773     1.0  0.73927  0.81861  0.09015  1.0000
  C   C4947     1.0  0.82765  0.85588  0.10441  1.0000
  H   H8774     1.0  0.74443  0.79337  0.20985  1.0000
  C   C4948     1.0  0.76890  0.95974  0.22841  1.0000
  C   C4949     1.0  0.78122  0.80764  0.32074  1.0000
  C   C4950     1.0  0.93972  0.73482  0.13446  1.0000
  H   H8775     1.0  0.96841  0.82282  0.20523  1.0000
  H   H8776     1.0  0.98556  0.74278  0.18147  1.0000
  H   H8777     1.0  0.73954  0.97126  0.08648  1.0000
  H   H8778     1.0  0.74722  0.79211  0.15522  1.0000
  H   H8779     1.0  0.80770  0.84440  0.10755  1.0000
  S   S1116     1.0  0.76885  0.91437  0.22590  1.0000
  C   C4951     1.0  0.82996  0.81353  0.10369  1.0000
  H   H8780     1.0  0.82840  0.92708  0.26828  1.0000
  Fe  Fe561     1.0  0.74942  0.83181  0.27429  1.0000
  H   H8781     1.0  0.74621  0.86500  0.25411  1.0000
  H   H8782     1.0  0.77885  0.95791  0.23509  1.0000
  H   H8783     1.0  0.94797  0.78331  0.08398  1.0000
  C   C4952     1.0  0.94987  0.73408  0.14507  1.0000
  S   S1117     1.0  0.85900  0.75802  0.12191  1.0000
  H   H8784     1.0  0.97172  0.74928  0.08262  1.0000
  H   H8785     1.0  0.83279  0.82862  0.24250  1.0000
  H   H8786     1.0  0.82874  0.79452  0.25853  1.0000
  S   S1118     1.0  0.87562  0.79378  0.12835  1.0000
  H   H8787     1.0  0.96710  0.75675  0.11299  1.0000
  H   H8788     1.0  0.97339  0.82166  0.15759  1.0000
  H   H8789     1.0  0.81105  0.87198  0.08845  1.0000
  C   C4953     1.0  0.82804  0.83407  0.13924  1.0000
  H   H8790     1.0  0.76212  0.73264  0.00331  1.0000
  H   H8791     1.0  0.78031  0.79409  0.24685  1.0000
  H   H8792     1.0  0.77485  0.83402  0.06264  1.0000
  H   H8793     1.0  0.85475  0.73314  0.21829  1.0000
  C   C4954     1.0  0.98186  0.81436  0.07117  1.0000
  H   H8794     1.0  0.76220  0.97509  0.11051  1.0000
  H   H8795     1.0  0.80512  0.85452  0.12367  1.0000
  H   H8796     1.0  0.85863  0.77544  0.26211  1.0000
  H   H8797     1.0  0.75651  0.81467  0.22204  1.0000
  H   H8798     1.0  0.95630  0.75261  0.19973  1.0000
  H   H8799     1.0  0.77453  0.81662  0.15110  1.0000
  C   C4955     1.0  0.75709  0.82540  0.21137  1.0000
  H   H8800     1.0  0.83595  0.85776  0.11116  1.0000
  H   H8801     1.0  0.75747  0.82777  0.03645  1.0000
  C   C4956     1.0  0.76004  0.87299  0.20552  1.0000
  C   C4957     1.0  0.77000  0.89385  0.23732  1.0000
  C   C4958     1.0  0.80171  0.89564  0.14314  1.0000
  C   C4959     1.0  0.82687  0.81581  0.26841  1.0000
  S   S1119     1.0  0.74311  0.81749  0.25958  1.0000
  Fe  Fe562     1.0  0.90635  0.73941  0.11282  1.0000
  H   H8802     1.0  0.80896  0.80787  0.29701  1.0000
  N   N275      1.0  0.87140  0.86875  0.15572  1.0000
  C   C4960     1.0  0.88449  0.85475  0.14942  1.0000
  C   C4961     1.0  0.85647  0.87155  0.14855  1.0000
  C   C4962     1.0  0.87853  0.88413  0.15060  1.0000
  C   C4963     1.0  0.86627  0.86475  0.17437  1.0000
  C   C4964     1.0  0.85861  0.84928  0.18236  1.0000
  C   C4965     1.0  0.89976  0.84842  0.15751  1.0000
  C   C4966     1.0  0.86576  0.90081  0.15183  1.0000
  C   C4967     1.0  0.85967  0.87611  0.12936  1.0000
  C   C4968     1.0  0.84341  0.88295  0.12342  1.0000
  C   C4969     1.0  0.85609  0.84552  0.20121  1.0000
  C   C4970     1.0  0.91386  0.83711  0.14788  1.0000
  C   C4971     1.0  0.87437  0.91493  0.14947  1.0000
  H   H8803     1.0  0.88930  0.85865  0.13586  1.0000
  H   H8804     1.0  0.87910  0.84391  0.15086  1.0000
  H   H8805     1.0  0.85135  0.86020  0.15234  1.0000
  H   H8806     1.0  0.84622  0.88108  0.15377  1.0000
  H   H8807     1.0  0.88605  0.88551  0.13769  1.0000
  H   H8808     1.0  0.88746  0.88295  0.15827  1.0000
  H   H8809     1.0  0.87698  0.86317  0.17992  1.0000
  H   H8810     1.0  0.85692  0.87529  0.17890  1.0000
  H   H8811     1.0  0.86667  0.83811  0.17796  1.0000
  H   H8812     1.0  0.84622  0.85159  0.17953  1.0000
  H   H8813     1.0  0.90477  0.85882  0.15796  1.0000
  H   H8814     1.0  0.89623  0.84129  0.17033  1.0000
  H   H8815     1.0  0.85695  0.90002  0.16400  1.0000
  H   H8816     1.0  0.85843  0.90433  0.14213  1.0000
  H   H8817     1.0  0.86735  0.88555  0.12387  1.0000
  H   H8818     1.0  0.86627  0.86482  0.12437  1.0000
  H   H8819     1.0  0.83767  0.89551  0.12598  1.0000
  H   H8820     1.0  0.84587  0.88406  0.10985  1.0000
  H   H8821     1.0  0.83454  0.87470  0.12972  1.0000
  H   H8822     1.0  0.84901  0.83558  0.20689  1.0000
  H   H8823     1.0  0.86827  0.84129  0.20488  1.0000
  H   H8824     1.0  0.84896  0.85670  0.20619  1.0000
  H   H8825     1.0  0.92374  0.83125  0.15505  1.0000
  H   H8826     1.0  0.90935  0.82716  0.14569  1.0000
  H   H8827     1.0  0.91934  0.84440  0.13576  1.0000
  H   H8828     1.0  0.88326  0.91640  0.13731  1.0000
  H   H8829     1.0  0.86493  0.92674  0.14987  1.0000
  H   H8830     1.0  0.88107  0.91251  0.15953  1.0000
  H   H8831     1.0  0.82894  0.87968  0.08735  1.0000
  H   H8832     1.0  0.74367  0.78347  0.98253  1.0000
  H   H8833     1.0  0.77848  0.76238  0.32439  1.0000
  C   C4972     1.0  0.77566  0.75820  0.31494  1.0000
  C   C4973     1.0  0.85960  0.77548  0.20449  1.0000
  C   C4974     1.0  0.84312  0.78696  0.21138  1.0000
  H   H8834     1.0  0.74002  0.75947  0.07086  1.0000
  H   H8835     1.0  0.84955  0.81217  0.24932  1.0000
  H   H8836     1.0  0.82768  0.76552  0.17473  1.0000
  H   H8837     1.0  0.80979  0.78633  0.24927  1.0000
  C   C4975     1.0  0.84633  0.79884  0.21987  1.0000
  H   H8838     1.0  0.82404  0.82438  0.09521  1.0000
  C   C4976     1.0  0.79946  0.86839  0.16974  1.0000
  H   H8839     1.0  0.76601  0.74350  0.28063  1.0000
  C   C4977     1.0  0.98158  0.80211  0.22073  1.0000
  H   H8840     1.0  0.84131  0.78331  0.28665  1.0000
  H   H8841     1.0  0.80606  0.76783  0.26445  1.0000
  C   C4978     1.0  0.78506  0.88411  0.24105  1.0000
  H   H8842     1.0  0.83366  0.81020  0.27852  1.0000
  H   H8843     1.0  0.86507  0.76807  0.21528  1.0000
  H   H8844     1.0  0.86840  0.78361  0.19718  1.0000
  H   H8845     1.0  0.83462  0.77956  0.22073  1.0000
  H   H8846     1.0  0.83661  0.79455  0.20144  1.0000
  C   C4979     1.0  0.75839  0.76173  0.29559  1.0000
  H   H8847     1.0  0.93112  0.77034  0.13972  1.0000
  H   H8848     1.0  0.85072  0.83090  0.15825  1.0000
  H   H8849     1.0  0.81910  0.74902  0.23321  1.0000
  H   H8850     1.0  0.76243  0.89799  0.17824  1.0000
  H   H8851     1.0  0.85902  0.75188  0.16840  1.0000
  H   H8852     1.0  0.82600  0.78460  0.30571  1.0000
  H   H8853     1.0  0.82476  0.77028  0.27700  1.0000
  H   H8854     1.0  0.83455  0.80755  0.22390  1.0000
  H   H8855     1.0  0.85142  0.79183  0.23094  1.0000
  H   H8856     1.0  0.85535  0.80614  0.21132  1.0000
  S   S1120     1.0  0.74319  0.88910  0.14491  1.0000
  C   C4980     1.0  0.88992  0.75781  0.18128  1.0000
  H   H8857     1.0  0.77721  0.91539  0.16239  1.0000
  C   C4981     1.0  0.85418  0.76542  0.16512  1.0000
  H   H8858     1.0  0.84405  0.78475  0.17920  1.0000
  H   H8859     1.0  0.84945  0.76062  0.30929  1.0000
  H   H8860     1.0  0.79717  0.82974  0.05876  1.0000
  H   H8861     1.0  0.78657  0.78330  0.28390  1.0000
  H   H8862     1.0  0.94520  0.75326  0.07284  1.0000
  C   C4982     1.0  0.96928  0.77589  0.13365  1.0000
  H   H8863     1.0  0.84530  0.75240  0.29409  1.0000
  H   H8864     1.0  0.79560  0.78435  0.31506  1.0000
  H   H8865     1.0  0.77787  0.79339  0.30572  1.0000
  C   C4983     1.0  0.85547  0.77487  0.17762  1.0000
  H   H8866     1.0  0.81715  0.82667  0.27185  1.0000
  H   H8867     1.0  0.98713  0.78230  0.11142  1.0000
  H   H8868     1.0  0.90774  0.73998  0.19488  1.0000
  H   H8869     1.0  0.96457  0.80014  0.07237  1.0000
  S   S1121     1.0  0.76891  0.87490  0.11279  1.0000
  H   H8870     1.0  0.78443  0.93670  0.13717  1.0000
  H   H8871     1.0  0.79039  0.77369  0.24288  1.0000
  H   H8872     1.0  0.74654  0.83980  0.01109  1.0000
  H   H8873     1.0  0.77481  0.96301  0.17549  1.0000
  C   C4984     1.0  0.90692  0.78121  0.13420  1.0000
  S   S1122     1.0  0.89265  0.74659  0.13689  1.0000
  H   H8874     1.0  0.96607  0.76765  0.17097  1.0000
  H   H8875     1.0  0.78477  0.96621  0.20484  1.0000
  H   H8876     1.0  0.81118  0.81101  0.25588  1.0000
  C   C4985     1.0  0.91928  0.77865  0.14294  1.0000
  C   C4986     1.0  0.76181  0.76699  0.30807  1.0000
  H   H8877     1.0  0.96294  0.74196  0.24914  1.0000
  H   H8878     1.0  0.74724  0.98071  0.20990  1.0000
  Fe  Fe563     1.0  0.87497  0.74955  0.09903  1.0000
  H   H8879     1.0  0.75376  0.77772  0.31248  1.0000
  H   H8880     1.0  0.75375  0.86339  0.21448  1.0000
  N   N276      1.0  0.82089  0.82996  0.12703  1.0000
  H   H8881     1.0  0.76108  0.81283  0.06144  1.0000
  H   H8882     1.0  0.79637  0.82091  0.11595  1.0000
  C   C4987     1.0  0.82373  0.98157  0.19757  1.0000
  C   C4988     1.0  0.74092  0.76167  0.03283  1.0000
  N   N277      1.0  0.87127  0.93403  0.22001  1.0000
  C   C4989     1.0  0.87287  0.93733  0.20155  1.0000
  C   C4990     1.0  0.88158  0.91702  0.22570  1.0000
  C   C4991     1.0  0.85334  0.93355  0.22824  1.0000
  C   C4992     1.0  0.87589  0.94728  0.22527  1.0000
  C   C4993     1.0  0.88961  0.95592  0.21303  1.0000
  C   C4994     1.0  0.86045  0.95268  0.19430  1.0000
  C   C4995     1.0  0.84946  0.92804  0.24741  1.0000
  C   C4996     1.0  0.90020  0.91338  0.21715  1.0000
  C   C4997     1.0  0.90832  0.89515  0.22292  1.0000
  H   H8883     1.0  0.97476  0.76686  0.06642  1.0000
  C   C4998     1.0  0.86556  0.95757  0.17545  1.0000
  H   H8884     1.0  0.96649  0.76121  0.20943  1.0000
  H   H8885     1.0  0.87105  0.92646  0.19817  1.0000
  H   H8886     1.0  0.88557  0.93873  0.19471  1.0000
  H   H8887     1.0  0.88128  0.91458  0.23914  1.0000
  H   H8888     1.0  0.87607  0.90733  0.22421  1.0000
  H   H8889     1.0  0.84896  0.92519  0.22332  1.0000
  H   H8890     1.0  0.84520  0.94601  0.22522  1.0000
  H   H8891     1.0  0.86486  0.95757  0.22760  1.0000
  H   H8892     1.0  0.87969  0.94215  0.23736  1.0000
  H   H8893     1.0  0.88512  0.96378  0.20186  1.0000
  H   H8894     1.0  0.90096  0.94691  0.20885  1.0000
  H   H8895     1.0  0.84804  0.94969  0.19740  1.0000
  H   H8896     1.0  0.85926  0.96356  0.19946  1.0000
  H   H8897     1.0  0.85447  0.93528  0.25300  1.0000
  H   H8898     1.0  0.85490  0.91463  0.25134  1.0000
  H   H8899     1.0  0.90211  0.91575  0.20351  1.0000
  H   H8900     1.0  0.90685  0.92090  0.22052  1.0000
  H   H8901     1.0  0.90234  0.88687  0.21972  1.0000
  H   H8902     1.0  0.92168  0.89276  0.21671  1.0000
  H   H8903     1.0  0.90734  0.89199  0.23652  1.0000
  C   C4999     1.0  0.75592  0.88700  0.24233  1.0000
  C   C5000     1.0  0.88744  0.74466  0.23543  1.0000
  H   H8904     1.0  0.78773  0.97437  0.17819  1.0000
  H   H8905     1.0  0.86639  0.94709  0.16984  1.0000
  Fe  Fe564     1.0  0.74823  0.89723  0.11730  1.0000
  H   H8906     1.0  0.80062  0.96374  0.14869  1.0000
  H   H8907     1.0  0.94445  0.73792  0.22494  1.0000
  H   H8908     1.0  0.87314  0.74117  0.18745  1.0000
  C   C5001     1.0  0.95591  0.73435  0.22991  1.0000
  N   N278      1.0  0.77079  0.79300  0.04817  1.0000
  C   C5002     1.0  0.76966  0.80299  0.03091  1.0000
  C   C5003     1.0  0.78480  0.77770  0.04757  1.0000
  C   C5004     1.0  0.75476  0.78711  0.05584  1.0000
  C   C5005     1.0  0.77263  0.80326  0.05895  1.0000
  C   C5006     1.0  0.78744  0.81196  0.05251  1.0000
  H   H8909     1.0  0.83608  0.76068  0.15467  1.0000
  Fe  Fe565     1.0  0.87312  0.73464  0.13554  1.0000
  C   C5007     1.0  0.80043  0.77905  0.03337  1.0000
  C   C5008     1.0  0.81431  0.76360  0.03599  1.0000
  H   H8910     1.0  0.77373  0.81950  0.31490  1.0000
  C   C5009     1.0  0.94271  0.76675  0.07246  1.0000
  S   S1123     1.0  0.74465  0.85229  0.13988  1.0000
  H   H8911     1.0  0.76763  0.79513  0.02361  1.0000
  H   H8912     1.0  0.78150  0.80672  0.02407  1.0000
  H   H8913     1.0  0.78901  0.77332  0.05948  1.0000
  H   H8914     1.0  0.78041  0.76715  0.04621  1.0000
  H   H8915     1.0  0.75259  0.78013  0.04776  1.0000
  H   H8916     1.0  0.87727  0.74516  0.20471  1.0000
  C   C5010     1.0  0.76844  0.74749  0.29040  1.0000
  H   H8917     1.0  0.77409  0.79546  0.07135  1.0000
  C   C5011     1.0  0.78621  0.82396  0.06326  1.0000
  H   H8918     1.0  0.79924  0.80260  0.05312  1.0000
  H   H8919     1.0  0.79781  0.86003  0.25231  1.0000
  C   C5012     1.0  0.78594  0.78118  0.25252  1.0000
  C   C5013     1.0  0.83644  0.76860  0.16276  1.0000
  H   H8920     1.0  0.76455  0.76591  0.07473  1.0000
  H   H8921     1.0  0.79736  0.78003  0.02136  1.0000
  H   H8922     1.0  0.80534  0.79000  0.03236  1.0000
  H   H8923     1.0  0.82524  0.76468  0.02553  1.0000
  H   H8924     1.0  0.81820  0.76223  0.04765  1.0000
  H   H8925     1.0  0.81013  0.75229  0.03651  1.0000
  H   H8926     1.0  0.78595  0.79981  0.14065  1.0000
  C   C5014     1.0  0.83956  0.76007  0.30355  1.0000
  C   C5015     1.0  0.78613  0.86747  0.24944  1.0000
  C   C5016     1.0  0.86666  0.76685  0.25467  1.0000
  H   H8927     1.0  0.74422  0.89451  0.23959  1.0000
  C   C5017     1.0  0.85778  0.73734  0.07286  1.0000
  H   H8928     1.0  0.76073  0.92400  0.15121  1.0000
  C   C5018     1.0  0.83334  0.81947  0.15344  1.0000
  H   H8929     1.0  0.90934  0.77490  0.12422  1.0000
  N   N279      1.0  0.80804  0.79385  0.27986  1.0000
  C   C5019     1.0  0.79972  0.80419  0.29274  1.0000
  C   C5020     1.0  0.81871  0.80331  0.26514  1.0000
  C   C5021     1.0  0.79450  0.79070  0.27378  1.0000
  C   C5022     1.0  0.81806  0.77724  0.28693  1.0000
  C   C5023     1.0  0.83138  0.77763  0.29570  1.0000
  C   C5024     1.0  0.78849  0.79606  0.30862  1.0000
  C   C5025     1.0  0.80046  0.78101  0.25963  1.0000
  H   H8930     1.0  0.78581  0.81734  0.07638  1.0000
  H   H8931     1.0  0.76893  0.87542  0.21133  1.0000
  C   C5026     1.0  0.81447  0.84619  0.11596  1.0000
  H   H8932     1.0  0.79869  0.85780  0.18001  1.0000
  S   S1124     1.0  0.89475  0.76305  0.09711  1.0000
  H   H8933     1.0  0.86202  0.76966  0.15291  1.0000
  C   C5027     1.0  0.75597  0.81922  0.02965  1.0000
  H   H8934     1.0  0.78515  0.94182  0.15581  1.0000
  C   C5028     1.0  0.84410  0.75584  0.20228  1.0000
  H   H8935     1.0  0.78792  0.81927  0.03965  1.0000
  Fe  Fe566     1.0  0.76266  0.86644  0.14038  1.0000
  H   H8936     1.0  0.84439  0.83165  0.25554  1.0000
  C   C5029     1.0  0.77676  0.94022  0.14890  1.0000
  C   C5030     1.0  0.75346  0.77615  0.07363  1.0000
  C   C5031     1.0  0.77982  0.81319  0.13888  1.0000
  N   N280      1.0  0.85838  0.76435  0.19419  1.0000
  H   H8937     1.0  0.82140  0.80488  0.10938  1.0000
  H   H8938     1.0  0.86536  0.78200  0.17150  1.0000
  H   H8939     1.0  0.83205  0.76507  0.20301  1.0000
  H   H8940     1.0  0.80081  0.82575  0.14845  1.0000
  C   C5032     1.0  0.89440  0.96731  0.22094  1.0000
  C   C5033     1.0  0.76757  0.92655  0.15912  1.0000
  H   H8941     1.0  0.98679  0.77133  0.16522  1.0000
  S   S1125     1.0  0.77382  0.83965  0.26475  1.0000
  H   H8942     1.0  0.98868  0.84046  0.20022  1.0000
  Fe  Fe567     1.0  0.87983  0.76931  0.12125  1.0000
  C   C5034     1.0  0.79274  0.88409  0.14352  1.0000
  H   H8943     1.0  0.84354  0.81504  0.17512  1.0000
  C   C5035     1.0  0.83454  0.81868  0.11741  1.0000
  H   H8944     1.0  0.76341  0.93306  0.18274  1.0000
  H   H8945     1.0  0.78677  0.88576  0.13347  1.0000
  C   C5036     1.0  0.83912  0.82242  0.25295  1.0000
  H   H8946     1.0  0.81894  0.84401  0.14511  1.0000
  H   H8947     1.0  0.95980  0.77820  0.10659  1.0000
  C   C5037     1.0  0.90573  0.74427  0.18203  1.0000
  H   H8948     1.0  0.76527  0.90386  0.19543  1.0000
  H   H8949     1.0  0.84350  0.80975  0.14848  1.0000
  C   C5038     1.0  0.95125  0.76985  0.08437  1.0000
  C   C5039     1.0  0.82840  0.73904  0.22768  1.0000
  S   S1126     1.0  0.78083  0.85563  0.15712  1.0000
  H   H8950     1.0  0.82987  0.83510  0.17080  1.0000
  C   C5040     1.0  0.87437  0.75138  0.19233  1.0000
  H   H8951     1.0  0.78511  0.83702  0.12698  1.0000
  H   H8952     1.0  0.82282  0.81367  0.16096  1.0000
  C   C5041     1.0  0.97910  0.81815  0.21083  1.0000
  C   C5042     1.0  0.83973  0.82556  0.16510  1.0000
  H   H8953     1.0  0.76948  0.81539  0.13258  1.0000
  C   C5043     1.0  0.96816  0.75065  0.20362  1.0000
  H   H8954     1.0  0.88882  0.76192  0.16815  1.0000
  H   H8955     1.0  0.77104  0.97985  0.14949  1.0000
  C   C5044     1.0  0.79164  0.87041  0.15680  1.0000
  H   H8956     1.0  0.82555  0.92225  0.25036  1.0000
  C   C5045     1.0  0.98096  0.77176  0.11770  1.0000
  H   H8957     1.0  0.75624  0.80278  0.17371  1.0000
  C   C5046     1.0  0.80679  0.82136  0.13673  1.0000
  H   H8958     1.0  0.74720  0.73463  0.34335  1.0000
  H   H8959     1.0  0.84177  0.80002  0.08400  1.0000
  H   H8960     1.0  0.92656  0.73972  0.13776  1.0000
  C   C5047     1.0  0.98196  0.75318  0.18792  1.0000
  H   H8961     1.0  0.95350  0.75901  0.23495  1.0000
  C   C5048     1.0  0.87339  0.74024  0.24698  1.0000
  C   C5049     1.0  0.75566  0.93150  0.17503  1.0000
  H   H8962     1.0  0.81167  0.80776  0.14063  1.0000
  H   H8963     1.0  0.85191  0.79334  0.10117  1.0000
  H   H8964     1.0  0.94587  0.76345  0.09705  1.0000
  H   H8965     1.0  0.87769  0.96131  0.17162  1.0000
  C   C5050     1.0  0.84482  0.74447  0.21956  1.0000
  C   C5051     1.0  0.74710  0.88879  0.20104  1.0000
  H   H8966     1.0  0.76874  0.83236  0.00615  1.0000
  H   H8967     1.0  0.77749  0.83137  0.21722  1.0000
  H   H8968     1.0  0.85412  0.81268  0.08655  1.0000
  S   S1127     1.0  0.86287  0.75392  0.07748  1.0000
  H   H8969     1.0  0.96360  0.76524  0.14105  1.0000
  H   H8970     1.0  0.98389  0.81865  0.13692  1.0000
  C   C5052     1.0  0.85002  0.74057  0.05959  1.0000
  H   H8971     1.0  0.83542  0.84907  0.09468  1.0000
  Fe  Fe568     1.0  0.74878  0.86276  0.11246  1.0000
  H   H8972     1.0  0.83933  0.83911  0.13287  1.0000
  H   H8973     1.0  0.84563  0.82429  0.11188  1.0000
  C   C5053     1.0  0.97367  0.79955  0.07955  1.0000
  H   H8974     1.0  0.74394  0.79772  0.05673  1.0000
  H   H8975     1.0  0.85201  0.74811  0.26533  1.0000
  C   C5054     1.0  0.84540  0.80435  0.09325  1.0000
  H   H8976     1.0  0.84732  0.75310  0.05238  1.0000
  C   C5055     1.0  0.98598  0.73272  0.22305  1.0000
  C   C5056     1.0  0.97032  0.76301  0.08005  1.0000
  C   C5057     1.0  0.76857  0.74369  0.36861  1.0000
  C   C5058     1.0  0.86291  0.75142  0.25650  1.0000
  H   H8977     1.0  0.75507  0.82055  0.00422  1.0000
  H   H8978     1.0  0.74417  0.92413  0.20875  1.0000
  C   C5059     1.0  0.75561  0.90282  0.18957  1.0000
  H   H8979     1.0  0.74339  0.81660  0.03461  1.0000
  C   C5060     1.0  0.74715  0.77294  0.01886  1.0000
  C   C5061     1.0  0.75868  0.95177  0.10845  1.0000
  H   H8980     1.0  0.82436  0.94359  0.25072  1.0000
  H   H8981     1.0  0.74863  0.83653  0.21550  1.0000
  C   C5062     1.0  0.97138  0.76845  0.10655  1.0000
  H   H8982     1.0  0.81190  0.88057  0.10510  1.0000
  H   H8983     1.0  0.74765  0.97117  0.06534  1.0000
  C   C5063     1.0  0.75480  0.96577  0.11547  1.0000
  H   H8984     1.0  0.98659  0.74510  0.22437  1.0000
  H   H8985     1.0  0.88340  0.97702  0.22475  1.0000
  H   H8986     1.0  0.73926  0.88561  0.19460  1.0000
  H   H8987     1.0  0.94708  0.77344  0.05961  1.0000
  H   H8988     1.0  0.89958  0.96006  0.23193  1.0000
  C   C5064     1.0  0.97626  0.76902  0.17574  1.0000
  H   H8989     1.0  0.98841  0.81365  0.05822  1.0000
  H   H8990     1.0  0.84343  0.74765  0.19458  1.0000
  C   C5065     1.0  0.77622  0.97585  0.17404  1.0000
  H   H8991     1.0  0.79028  0.73209  0.98542  1.0000
  H   H8992     1.0  0.97353  0.80319  0.15155  1.0000
  H   H8993     1.0  0.77416  0.76256  0.97640  1.0000
  H   H8994     1.0  0.97646  0.77862  0.14106  1.0000
  H   H8995     1.0  0.75200  0.78384  0.08263  1.0000
  H   H8996     1.0  0.76891  0.95056  0.09788  1.0000
  C   C5066     1.0  0.83078  0.93046  0.25455  1.0000
  C   C5067     1.0  0.79723  0.97749  0.14647  1.0000
  C   C5068     1.0  0.74944  0.93933  0.11498  1.0000
  H   H8997     1.0  0.77630  0.83856  0.19574  1.0000
  H   H8998     1.0  0.76700  0.86819  0.19425  1.0000
  H   H8999     1.0  0.75500  0.74437  0.37125  1.0000
  H   H9000     1.0  0.95927  0.78700  0.13100  1.0000
  H   H9001     1.0  0.84744  0.75066  0.22798  1.0000
  C   C5069     1.0  0.74288  0.80268  0.17661  1.0000
  C   C5070     1.0  0.77243  0.97169  0.21168  1.0000
  H   H9002     1.0  0.76182  0.81103  0.19314  1.0000
  H   H9003     1.0  0.78390  0.81677  0.20389  1.0000
  H   H9004     1.0  0.77085  0.75126  0.37599  1.0000
  H   H9005     1.0  0.97185  0.77983  0.18175  1.0000
  C   C5071     1.0  0.98101  0.81236  0.15018  1.0000
  C   C5072     1.0  0.75702  0.87030  0.25064  1.0000
  S   S1128     1.0  0.80459  0.73443  0.31589  1.0000
  C   C5073     1.0  0.93641  0.74647  0.25395  1.0000
  H   H9006     1.0  0.96712  0.80120  0.09222  1.0000
  H   H9007     1.0  0.91656  0.74933  0.17398  1.0000
  C   C5074     1.0  0.95322  0.74610  0.24177  1.0000
  H   H9008     1.0  0.92610  0.75128  0.24724  1.0000
  H   H9009     1.0  0.90501  0.73360  0.17756  1.0000
  H   H9010     1.0  0.97223  0.82608  0.07095  1.0000
  H   H9011     1.0  0.77289  0.74906  0.35527  1.0000
  N   N281      1.0  0.98083  0.76734  0.08913  1.0000
  C   C5075     1.0  0.98677  0.78303  0.07970  1.0000
  S   S1129     1.0  0.75107  0.84258  0.09888  1.0000
  H   H9012     1.0  0.94440  0.73845  0.15644  1.0000
  S   S1130     1.0  0.75378  0.92280  0.10467  1.0000
  H   H9013     1.0  0.74095  0.79093  0.18552  1.0000
  C   C5076     1.0  0.74154  0.96754  0.12906  1.0000
  H   H9014     1.0  0.76522  0.97973  0.07974  1.0000
  H   H9015     1.0  0.90397  0.97358  0.21186  1.0000
  H   H9016     1.0  0.75681  0.96475  0.23614  1.0000
  H   H9017     1.0  0.74653  0.73766  0.04880  1.0000
  H   H9018     1.0  0.74812  0.94407  0.17087  1.0000
  C   C5077     1.0  0.75871  0.97475  0.20204  1.0000
  H   H9019     1.0  0.82336  0.73605  0.21858  1.0000
  S   S1131     1.0  0.74190  0.77276  0.28598  1.0000
  N   N282      1.0  0.97116  0.73441  0.21592  1.0000
  H   H9020     1.0  0.93556  0.73386  0.26159  1.0000
  H   H9021     1.0  0.73932  0.81427  0.15145  1.0000
  H   H9022     1.0  0.73952  0.89219  0.21279  1.0000
  C   C5078     1.0  0.73922  0.84471  0.08422  1.0000
  H   H9023     1.0  0.75227  0.73197  0.26632  1.0000
  H   H9024     1.0  0.81336  0.79324  0.61042  1.0000
  H   H9025     1.0  0.83524  0.80003  0.55103  1.0000
  C   C5079     1.0  0.75103  0.84001  0.73507  1.0000
  H   H9026     1.0  0.82055  0.81338  0.58946  1.0000
  H   H9027     1.0  0.85412  0.79060  0.57685  1.0000
  C   C5080     1.0  0.84536  0.79771  0.58589  1.0000
  S   S1132     1.0  0.74003  0.89381  0.77587  1.0000
  H   H9028     1.0  0.81087  0.81860  0.54808  1.0000
  H   H9029     1.0  0.82710  0.73611  0.96906  1.0000
  H   H9030     1.0  0.95461  0.83105  0.64579  1.0000
  H   H9031     1.0  0.89777  0.75505  0.74406  1.0000
  H   H9032     1.0  0.77363  0.76917  0.95460  1.0000
  H   H9033     1.0  0.84310  0.76236  0.54524  1.0000
  C   C5081     1.0  0.74356  0.74640  0.88050  1.0000
  C   C5082     1.0  0.85394  0.81028  0.58777  1.0000
  H   H9034     1.0  0.84194  0.78041  0.56319  1.0000
  S   S1133     1.0  0.76033  0.80291  0.58787  1.0000
  H   H9035     1.0  0.97302  0.78709  0.74438  1.0000
  Fe  Fe569     1.0  0.77367  0.93272  0.66672  1.0000
  S   S1134     1.0  0.78383  0.91236  0.68653  1.0000
  S   S1135     1.0  0.76558  0.95934  0.67020  1.0000
  Fe  Fe570     1.0  0.77360  0.90818  0.64649  1.0000
  S   S1136     1.0  0.78362  0.88643  0.66479  1.0000
  S   S1137     1.0  0.77021  0.90169  0.62403  1.0000
  Fe  Fe571     1.0  0.76570  0.89916  0.68402  1.0000
  S   S1138     1.0  0.74885  0.88434  0.70354  1.0000
  Fe  Fe572     1.0  0.80079  0.90157  0.66520  1.0000
  S   S1139     1.0  0.82817  0.89020  0.66217  1.0000
  S   S1140     1.0  0.75419  0.92013  0.66573  1.0000
  S   S1141     1.0  0.79205  0.92290  0.64544  1.0000
  Fe  Fe573     1.0  0.89153  0.76325  0.67914  1.0000
  S   S1142     1.0  0.91190  0.76730  0.65659  1.0000
  H   H9036     1.0  0.96608  0.74329  0.79163  1.0000
  Fe  Fe574     1.0  0.87140  0.79792  0.67087  1.0000
  S   S1143     1.0  0.89018  0.80530  0.64786  1.0000
  S   S1144     1.0  0.84583  0.81205  0.68070  1.0000
  Fe  Fe575     1.0  0.89135  0.78046  0.64310  1.0000
  S   S1145     1.0  0.89380  0.77967  0.61648  1.0000
  Fe  Fe576     1.0  0.90939  0.79164  0.66311  1.0000
  S   S1146     1.0  0.93355  0.80012  0.65856  1.0000
  S   S1147     1.0  0.87125  0.77412  0.66499  1.0000
  S   S1148     1.0  0.89033  0.78660  0.68670  1.0000
  C   C5083     1.0  0.74728  0.94327  0.75228  1.0000
  H   H9037     1.0  0.77610  0.84954  0.68979  1.0000
  H   H9038     1.0  0.84113  0.78142  0.52956  1.0000
  N   N283      1.0  0.82028  0.79541  0.57611  1.0000
  H   H9039     1.0  0.75700  0.78562  0.62224  1.0000
  C   C5084     1.0  0.75546  0.73271  0.88619  1.0000
  H   H9040     1.0  0.81266  0.79156  0.54569  1.0000
  H   H9041     1.0  0.82750  0.76748  0.53326  1.0000
  H   H9042     1.0  0.82124  0.73372  0.94238  1.0000
  H   H9043     1.0  0.82737  0.87339  0.60800  1.0000
  C   C5085     1.0  0.83251  0.86846  0.66593  1.0000
  C   C5086     1.0  0.84801  0.85982  0.65863  1.0000
  C   C5087     1.0  0.85201  0.84238  0.66242  1.0000
  C   C5088     1.0  0.84057  0.83362  0.67374  1.0000
  C   C5089     1.0  0.82491  0.84225  0.68065  1.0000
  C   C5090     1.0  0.82088  0.85963  0.67675  1.0000
  H   H9044     1.0  0.85698  0.86664  0.65016  1.0000
  H   H9045     1.0  0.86407  0.83577  0.65696  1.0000
  H   H9046     1.0  0.81606  0.83550  0.68947  1.0000
  H   H9047     1.0  0.80902  0.86621  0.68268  1.0000
  C   C5091     1.0  0.83053  0.78968  0.56054  1.0000
  H   H9048     1.0  0.79617  0.79700  0.57176  1.0000
  H   H9049     1.0  0.96737  0.79970  0.65625  1.0000
  H   H9050     1.0  0.93464  0.82696  0.62547  1.0000
  H   H9051     1.0  0.85735  0.73258  0.80494  1.0000
  C   C5092     1.0  0.89311  0.73533  0.71674  1.0000
  H   H9052     1.0  0.93404  0.86965  0.65274  1.0000
  H   H9053     1.0  0.76574  0.95034  0.71090  1.0000
  H   H9054     1.0  0.98054  0.73382  0.74741  1.0000
  C   C5093     1.0  0.82171  0.78182  0.55211  1.0000
  C   C5094     1.0  0.87116  0.75647  0.58823  1.0000
  C   C5095     1.0  0.86509  0.75468  0.60543  1.0000
  C   C5096     1.0  0.87171  0.76173  0.61459  1.0000
  C   C5097     1.0  0.88457  0.77025  0.60653  1.0000
  C   C5098     1.0  0.89046  0.77188  0.58945  1.0000
  C   C5099     1.0  0.88378  0.76515  0.58040  1.0000
  H   H9055     1.0  0.85521  0.74813  0.61152  1.0000
  H   H9056     1.0  0.86694  0.76058  0.62778  1.0000
  C   C5100     1.0  0.74347  0.87327  0.61633  1.0000
  C   C5101     1.0  0.77477  0.83097  0.61180  1.0000
  C   C5102     1.0  0.78071  0.74953  0.61183  1.0000
  C   C5103     1.0  0.78271  0.75451  0.59466  1.0000
  C   C5104     1.0  0.77628  0.77089  0.58734  1.0000
  C   C5105     1.0  0.76718  0.78219  0.59726  1.0000
  C   C5106     1.0  0.76414  0.77696  0.61452  1.0000
  C   C5107     1.0  0.77104  0.76063  0.62182  1.0000
  H   H9057     1.0  0.78907  0.74567  0.58700  1.0000
  H   H9058     1.0  0.77828  0.77478  0.57401  1.0000
  H   H9059     1.0  0.96681  0.84012  0.61371  1.0000
  H   H9060     1.0  0.76927  0.75678  0.63514  1.0000
  H   H9061     1.0  0.78582  0.82556  0.67557  1.0000
  C   C5108     1.0  0.78427  0.78383  0.96352  1.0000
  H   H9062     1.0  0.84912  0.73272  0.65079  1.0000
  H   H9063     1.0  0.79572  0.80906  0.58547  1.0000
  H   H9064     1.0  0.89428  0.76047  0.71516  1.0000
  H   H9065     1.0  0.77653  0.83193  0.56853  1.0000
  C   C5109     1.0  0.75973  0.89072  0.72795  1.0000
  H   H9066     1.0  0.78510  0.83994  0.54711  1.0000
  H   H9067     1.0  0.76772  0.89543  0.74761  1.0000
  H   H9068     1.0  0.77111  0.89215  0.71895  1.0000
  H   H9069     1.0  0.86522  0.80361  0.59273  1.0000
  H   H9070     1.0  0.79959  0.83264  0.61063  1.0000
  H   H9071     1.0  0.81489  0.75316  0.82102  1.0000
  H   H9072     1.0  0.74152  0.87010  0.60579  1.0000
  C   C5110     1.0  0.96532  0.88513  0.62761  1.0000
  H   H9073     1.0  0.84558  0.81800  0.59648  1.0000
  H   H9074     1.0  0.88846  0.76672  0.56715  1.0000
  C   C5111     1.0  0.94352  0.80222  0.67310  1.0000
  C   C5112     1.0  0.93474  0.80555  0.68856  1.0000
  C   C5113     1.0  0.94276  0.80986  0.69851  1.0000
  H   H9075     1.0  0.77689  0.81741  0.61718  1.0000
  H   H9076     1.0  0.92167  0.80542  0.69254  1.0000
  H   H9077     1.0  0.93581  0.81296  0.71020  1.0000
  C   C5114     1.0  0.89647  0.74516  0.73932  1.0000
  H   H9078     1.0  0.80678  0.83057  0.56346  1.0000
  H   H9079     1.0  0.76258  0.74411  0.97351  1.0000
  C   C5115     1.0  0.78018  0.96935  0.67206  1.0000
  C   C5116     1.0  0.79723  0.96257  0.66854  1.0000
  H   H9080     1.0  0.95139  0.87212  0.65865  1.0000
  C   C5117     1.0  0.80269  0.82105  0.55998  1.0000
  C   C5118     1.0  0.75278  0.98151  0.71641  1.0000
  H   H9081     1.0  0.80172  0.95083  0.66470  1.0000
  H   H9082     1.0  0.82173  0.96604  0.66651  1.0000
  N   N284      1.0  0.79607  0.84233  0.64105  1.0000
  C   C5119     1.0  0.80292  0.85642  0.62862  1.0000
  H   H9083     1.0  0.95677  0.89180  0.63712  1.0000
  C   C5120     1.0  0.80965  0.82760  0.64565  1.0000
  C   C5121     1.0  0.82177  0.82007  0.63126  1.0000
  C   C5122     1.0  0.81612  0.86248  0.63331  1.0000
  H   H9084     1.0  0.75683  0.74451  0.54980  1.0000
  C   C5123     1.0  0.78512  0.82854  0.55710  1.0000
  C   C5124     1.0  0.83633  0.80707  0.63729  1.0000
  C   C5125     1.0  0.82160  0.87707  0.62006  1.0000
  H   H9085     1.0  0.80881  0.85315  0.61643  1.0000
  C   C5126     1.0  0.83417  0.77276  0.53924  1.0000
  H   H9086     1.0  0.79553  0.85150  0.66233  1.0000
  H   H9087     1.0  0.81707  0.83078  0.65265  1.0000
  H   H9088     1.0  0.80424  0.81725  0.65435  1.0000
  H   H9089     1.0  0.82706  0.82964  0.62121  1.0000
  H   H9090     1.0  0.81528  0.81372  0.62623  1.0000
  H   H9091     1.0  0.81118  0.86690  0.64498  1.0000
  H   H9092     1.0  0.82732  0.85242  0.63468  1.0000
  C   C5127     1.0  0.97458  0.84853  0.64512  1.0000
  H   H9093     1.0  0.76224  0.88696  0.60179  1.0000
  H   H9094     1.0  0.84371  0.81287  0.64195  1.0000
  H   H9095     1.0  0.83180  0.79702  0.64738  1.0000
  H   H9096     1.0  0.84466  0.80141  0.62695  1.0000
  H   H9097     1.0  0.81082  0.88768  0.61859  1.0000
  H   H9098     1.0  0.83086  0.88126  0.62386  1.0000
  N   N285      1.0  0.79686  0.73755  0.95868  1.0000
  C   C5128     1.0  0.79788  0.75442  0.96000  1.0000
  S   S1149     1.0  0.96866  0.81850  0.70477  1.0000
  H   H9099     1.0  0.75827  0.82893  0.73001  1.0000
  H   H9100     1.0  0.83241  0.73273  0.80386  1.0000
  C   C5129     1.0  0.74050  0.73531  0.58304  1.0000
  H   H9101     1.0  0.76803  0.83313  0.66618  1.0000
  H   H9102     1.0  0.79846  0.74191  0.82618  1.0000
  H   H9103     1.0  0.78082  0.95857  0.72965  1.0000
  C   C5130     1.0  0.80961  0.74277  0.82978  1.0000
  C   C5131     1.0  0.78684  0.84870  0.65654  1.0000
  H   H9104     1.0  0.74659  0.75415  0.86831  1.0000
  C   C5132     1.0  0.95962  0.81066  0.69320  1.0000
  H   H9105     1.0  0.83608  0.73566  0.63657  1.0000
  H   H9106     1.0  0.74147  0.79655  0.55725  1.0000
  C   C5133     1.0  0.75513  0.88290  0.61407  1.0000
  H   H9107     1.0  0.93408  0.86788  0.68783  1.0000
  H   H9108     1.0  0.89525  0.73878  0.64569  1.0000
  H   H9109     1.0  0.77220  0.79256  0.96656  1.0000
  H   H9110     1.0  0.76586  0.93143  0.72574  1.0000
  H   H9111     1.0  0.75796  0.85632  0.68085  1.0000
  H   H9112     1.0  0.98647  0.83254  0.62734  1.0000
  H   H9113     1.0  0.91807  0.86211  0.68196  1.0000
  C   C5134     1.0  0.75702  0.88798  0.62749  1.0000
  H   H9114     1.0  0.74896  0.76491  0.56621  1.0000
  H   H9115     1.0  0.78230  0.82454  0.64117  1.0000
  H   H9116     1.0  0.74922  0.88646  0.65377  1.0000
  H   H9117     1.0  0.96659  0.74506  0.76192  1.0000
  C   C5135     1.0  0.95837  0.87078  0.62626  1.0000
  H   H9118     1.0  0.80397  0.75325  0.97021  1.0000
  H   H9119     1.0  0.76140  0.83650  0.69507  1.0000
  H   H9120     1.0  0.83207  0.81631  0.56887  1.0000
  H   H9121     1.0  0.94983  0.82533  0.60644  1.0000
  H   H9122     1.0  0.94633  0.85244  0.61276  1.0000
  H   H9123     1.0  0.77816  0.73512  0.91822  1.0000
  H   H9124     1.0  0.74042  0.94312  0.78616  1.0000
  C   C5136     1.0  0.95040  0.84345  0.63809  1.0000
  H   H9125     1.0  0.76279  0.73480  0.67501  1.0000
  H   H9126     1.0  0.78468  0.85206  0.60934  1.0000
  H   H9127     1.0  0.75699  0.94504  0.75751  1.0000
  C   C5137     1.0  0.74778  0.97060  0.73381  1.0000
  H   H9128     1.0  0.79536  0.74740  0.93300  1.0000
  C   C5138     1.0  0.81863  0.78024  0.58988  1.0000
  C   C5139     1.0  0.80929  0.78357  0.60725  1.0000
  C   C5140     1.0  0.81210  0.76785  0.62070  1.0000
  H   H9129     1.0  0.81180  0.77243  0.58709  1.0000
  H   H9130     1.0  0.83107  0.77201  0.59078  1.0000
  H   H9131     1.0  0.84300  0.78905  0.59809  1.0000
  H   H9132     1.0  0.79574  0.78768  0.60775  1.0000
  H   H9133     1.0  0.82527  0.76435  0.62178  1.0000
  H   H9134     1.0  0.80408  0.77005  0.63278  1.0000
  H   H9135     1.0  0.80901  0.75740  0.61777  1.0000
  H   H9136     1.0  0.85781  0.81845  0.57558  1.0000
  N   N286      1.0  0.86845  0.83659  0.70750  1.0000
  C   C5141     1.0  0.87970  0.83214  0.69171  1.0000
  C   C5142     1.0  0.86009  0.82237  0.71699  1.0000
  C   C5143     1.0  0.85501  0.85148  0.70272  1.0000
  C   C5144     1.0  0.87746  0.84092  0.71801  1.0000
  C   C5145     1.0  0.89592  0.83180  0.71750  1.0000
  C   C5146     1.0  0.88675  0.84658  0.67891  1.0000
  C   C5147     1.0  0.84085  0.85705  0.71711  1.0000
  C   C5148     1.0  0.87143  0.80581  0.72372  1.0000
  C   C5149     1.0  0.86217  0.79165  0.72969  1.0000
  C   C5150     1.0  0.90272  0.83612  0.73006  1.0000
  C   C5151     1.0  0.90140  0.84020  0.66578  1.0000
  C   C5152     1.0  0.83050  0.87433  0.71139  1.0000
  H   H9137     1.0  0.87296  0.82732  0.68533  1.0000
  H   H9138     1.0  0.89028  0.82171  0.69427  1.0000
  H   H9139     1.0  0.85079  0.82560  0.72812  1.0000
  H   H9140     1.0  0.85298  0.81992  0.70917  1.0000
  H   H9141     1.0  0.84904  0.84910  0.69395  1.0000
  H   H9142     1.0  0.86044  0.86249  0.69598  1.0000
  H   H9143     1.0  0.87749  0.85443  0.71440  1.0000
  H   H9144     1.0  0.87063  0.83883  0.73119  1.0000
  H   H9145     1.0  0.90379  0.83553  0.70511  1.0000
  H   H9146     1.0  0.89761  0.81816  0.72021  1.0000
  H   H9147     1.0  0.87702  0.85492  0.67238  1.0000
  H   H9148     1.0  0.89085  0.85411  0.68498  1.0000
  H   H9149     1.0  0.84581  0.85742  0.72756  1.0000
  H   H9150     1.0  0.83224  0.84840  0.72167  1.0000
  H   H9151     1.0  0.88256  0.80208  0.71430  1.0000
  H   H9152     1.0  0.87547  0.80697  0.73446  1.0000
  H   H9153     1.0  0.85839  0.78953  0.71922  1.0000
  H   H9154     1.0  0.87042  0.78002  0.73484  1.0000
  H   H9155     1.0  0.85096  0.79449  0.73951  1.0000
  H   H9156     1.0  0.91597  0.82970  0.72929  1.0000
  H   H9157     1.0  0.90190  0.84970  0.72745  1.0000
  H   H9158     1.0  0.89571  0.83202  0.74284  1.0000
  H   H9159     1.0  0.90564  0.85086  0.65646  1.0000
  H   H9160     1.0  0.91191  0.83247  0.67151  1.0000
  H   H9161     1.0  0.89770  0.83268  0.65936  1.0000
  H   H9162     1.0  0.83825  0.88377  0.70717  1.0000
  H   H9163     1.0  0.82499  0.87451  0.70109  1.0000
  H   H9164     1.0  0.82022  0.87779  0.72179  1.0000
  H   H9165     1.0  0.90029  0.77850  0.58309  1.0000
  H   H9166     1.0  0.79254  0.86732  0.62621  1.0000
  C   C5153     1.0  0.74692  0.88688  0.72354  1.0000
  H   H9167     1.0  0.77661  0.83290  0.59819  1.0000
  S   S1150     1.0  0.82217  0.73806  0.57685  1.0000
  C   C5154     1.0  0.96858  0.80645  0.67815  1.0000
  C   C5155     1.0  0.94801  0.82616  0.61949  1.0000
  C   C5156     1.0  0.94336  0.84982  0.67207  1.0000
  S   S1151     1.0  0.89129  0.73819  0.69622  1.0000
  H   H9168     1.0  0.96743  0.73899  0.82111  1.0000
  H   H9169     1.0  0.97854  0.85698  0.65030  1.0000
  C   C5157     1.0  0.74781  0.88267  0.64333  1.0000
  C   C5158     1.0  0.77716  0.83689  0.67055  1.0000
  H   H9170     1.0  0.98860  0.78934  0.72554  1.0000
  H   H9171     1.0  0.76427  0.74272  0.57871  1.0000
  H   H9172     1.0  0.74407  0.92731  0.72042  1.0000
  H   H9173     1.0  0.76169  0.83686  0.61672  1.0000
  H   H9174     1.0  0.95543  0.81465  0.62594  1.0000
  H   H9175     1.0  0.77105  0.84549  0.63781  1.0000
  C   C5159     1.0  0.76758  0.84538  0.68491  1.0000
  C   C5160     1.0  0.78899  0.73965  0.94436  1.0000
  H   H9176     1.0  0.93661  0.84624  0.64231  1.0000
  C   C5161     1.0  0.96053  0.80231  0.66815  1.0000
  H   H9177     1.0  0.76603  0.97712  0.71085  1.0000
  C   C5162     1.0  0.78125  0.76701  0.96378  1.0000
  H   H9178     1.0  0.75191  0.77154  0.91474  1.0000
  H   H9179     1.0  0.77778  0.86055  0.65332  1.0000
  H   H9180     1.0  0.98155  0.80700  0.67392  1.0000
  C   C5163     1.0  0.75788  0.89241  0.74419  1.0000
  C   C5164     1.0  0.82895  0.80648  0.58001  1.0000
  H   H9181     1.0  0.81480  0.77282  0.56116  1.0000
  H   H9182     1.0  0.97190  0.90820  0.61261  1.0000
  H   H9183     1.0  0.74514  0.98128  0.70803  1.0000
  C   C5165     1.0  0.74387  0.74287  0.55237  1.0000
  C   C5166     1.0  0.96722  0.89792  0.61124  1.0000
  S   S1152     1.0  0.86284  0.74955  0.57537  1.0000
  H   H9184     1.0  0.74258  0.76985  0.96118  1.0000
  H   H9185     1.0  0.95506  0.90323  0.60758  1.0000
  H   H9186     1.0  0.97624  0.89216  0.60127  1.0000
  H   H9187     1.0  0.78047  0.81959  0.55334  1.0000
  H   H9188     1.0  0.75382  0.85134  0.72587  1.0000
  C   C5167     1.0  0.78679  0.83876  0.61583  1.0000
  H   H9189     1.0  0.80578  0.76030  0.94844  1.0000
  C   C5168     1.0  0.89450  0.74824  0.72296  1.0000
  C   C5169     1.0  0.78366  0.83742  0.63475  1.0000
  H   H9190     1.0  0.73958  0.78168  0.72653  1.0000
  C   C5170     1.0  0.97760  0.73456  0.76066  1.0000
  N   N287      1.0  0.95775  0.85632  0.64099  1.0000
  C   C5171     1.0  0.80319  0.80506  0.57390  1.0000
  C   C5172     1.0  0.74312  0.89052  0.75589  1.0000
  C   C5173     1.0  0.79641  0.94028  0.71618  1.0000
  C   C5174     1.0  0.76503  0.94489  0.72437  1.0000
  H   H9191     1.0  0.96596  0.86666  0.61482  1.0000
  H   H9192     1.0  0.78219  0.93750  0.74118  1.0000
  H   H9193     1.0  0.97891  0.76306  0.76686  1.0000
  H   H9194     1.0  0.79728  0.92744  0.71514  1.0000
  C   C5175     1.0  0.80853  0.97119  0.66961  1.0000
  H   H9195     1.0  0.79110  0.78921  0.95108  1.0000
  H   H9196     1.0  0.98531  0.76024  0.73575  1.0000
  C   C5176     1.0  0.95356  0.84142  0.62003  1.0000
  H   H9197     1.0  0.74982  0.92962  0.75326  1.0000
  H   H9198     1.0  0.93911  0.83944  0.67042  1.0000
  H   H9199     1.0  0.77595  0.74667  0.94661  1.0000
  H   H9200     1.0  0.92899  0.84793  0.69725  1.0000
  H   H9201     1.0  0.97770  0.88047  0.63078  1.0000
  H   H9202     1.0  0.75499  0.83951  0.74646  1.0000
  H   H9203     1.0  0.80564  0.74550  0.84236  1.0000
  H   H9204     1.0  0.75548  0.97174  0.74178  1.0000
  H   H9205     1.0  0.95496  0.84472  0.67675  1.0000
  C   C5177     1.0  0.98652  0.78373  0.73899  1.0000
  C   C5178     1.0  0.97823  0.74138  0.79481  1.0000
  H   H9206     1.0  0.79154  0.78248  0.97287  1.0000
  N   N288      1.0  0.74877  0.95258  0.73447  1.0000
  C   C5179     1.0  0.78093  0.94584  0.72897  1.0000
  C   C5180     1.0  0.93027  0.85749  0.68555  1.0000
  H   H9207     1.0  0.79607  0.94878  0.70388  1.0000
  C   C5181     1.0  0.94635  0.86293  0.65568  1.0000
  H   H9208     1.0  0.97967  0.75166  0.66762  1.0000
  H   H9209     1.0  0.94567  0.87623  0.62380  1.0000
  H   H9210     1.0  0.98042  0.75377  0.79407  1.0000
  H   H9211     1.0  0.97393  0.83722  0.65521  1.0000
  H   H9212     1.0  0.80769  0.94058  0.71993  1.0000
  H   H9213     1.0  0.76650  0.73464  0.83902  1.0000
  H   H9214     1.0  0.98850  0.74279  0.68561  1.0000
  C   C5182     1.0  0.98818  0.74079  0.67353  1.0000
  C   C5183     1.0  0.98882  0.84299  0.63091  1.0000
  H   H9215     1.0  0.74052  0.75549  0.94339  1.0000
  H   H9216     1.0  0.73990  0.79155  0.90675  1.0000
  C   C5184     1.0  0.97727  0.73181  0.81275  1.0000
