data_image0
_chemical_formula_structural       FeS2FeS2FeHFeS3CSFeS2FeS2FeSFeS3FeSC4H3C7H5C6H4C3H2C6H6CHCH4CH11CH2C2NH2NC8HC3H14CH2C2H3CHCH7CH6CH4CH2CH2C2H2CSH3C2HC2H4CFeH4CHCH2C3H9NHC2H3CHCH5NH4CH3C4H3CHFeS3H2S2C5H4C4HCH3FeSHFeS2C6H4C6H4NC12H18CH10CH4CH6CNCHCH7CSHC2HCNH4CHFeH2CHC4H2CHCHC3H2CH3CH4NH3CHCH4CNHC2H6C2H2C2H2CH5CHCHCH12C2FeS2FeS2FeSFeHS2FeHSHFeS2FeS2FeSFeS2FeHSH2C2HCHC6H4C6H4C3H2C6H4NC12H28NC10H12CH8CH2SHCSH2CH3CHCH3CHCH2CH5CHNH3SCHCH4CSC2H3CHC2SHCH4CH4CH2CH7CHCH3CFeS2FeS2FeSFeS3HSNFeHSCSC2SHC3HCHCH4CH2C6H4CH2C2H2C4HCH5C4HC2H5CH2SH9CHCHCSH4CH2CHSH4FeHCNH4CH6C2HNCHCH4CHCHCH5C2H2CHC2HNCHFeH2CH7CHCHCH5CSHC3H4CH3C3H2C3HCH7NH2C2H2CHCH4FeS2FeS2Fe2S2FeS2C3H2C2H2C4H2C6H4FeS2FeS4CSHC3H2C4H2C2H2C6H4CSH2CH3CHCH2CH3C2H3CH5NC8HC2H21CH12CHC3HCH7CH3CH8CHCH4CH7CHCH3CH2CH2CHCHC3HCNH4CHNC2HCHCH6CHCNH5FeH2CSH2FeS2FeS2FeCFeS3HCSHSCHFeSH2SH2CFeH2C2H8C6H4CHSC2H3NC4HC3H2C2H8CH6CH2FeC2H4CH3CH3C3H3SH8SHC2HCH3C2H3C2HFeCH5CSNH2NC10HCH15C4NCH2CH5CH5FeCHCFeS2FeS2FeSFeS2HCHS2FeSCH7CH6C2HC6H4C5H2C2H2FeH3CH3C2H5CH4C2H3CHNH5SH4CNC2HC3HC2HC2H4CH8CHCSNCH7NCH3CHCHC3HC3HCFeH4CHCHCHC2HCH10C3H4C2SH3SH3FeCSH3SH5CFeSFeS2FeS3CH2C6H2C3H2C6H4S2FeS2FeSFeS3C5H4C3H3C4H4CNFeH6C2H2C2H2NH3CHCH3C2H2CHCH2CH3CH2NC5HC2H6SHCH6CH6CH6CH10CH2CHC2HFeCH2CHC2HCH10CH5C2HCH3C3H2CH2CH5C3H4CHNH4CH2CH7CH2CH2C2HCH3C2H6CSH6CH2NH2FeS2FeS2FeSFeS3H2FeSHFeS2HCH3C2H7C2HC7H4C3H4C2H4CH9CSH2CH5NH9CH2C3HC3H3CH3C2H10C2H6FeH7CHC2NC9H5CH3CFeH3CHC2HNHSH3CHCHC2SHSCHC4H3CHSHCHCH3C3HCHCH2C3HC2HNCFeS2FeS2FeHFeS3FeS2FeSHFeSFeS3FeCSCHFeHSC6H4CH2CHCSHC6H4C6H5SCHCNC12H31C2HCHC3H4CH2CHC2HCH2CH5SH2CH4CHCH3CH6NH9C3H2CH5CHCNHCH2CSH3C2H2CH4CH2CH5FeS2FeSHC6H3C7H4FeS2HCFeS2C6H4C6HCH20C2HCH4C2HCH4C2HNHCH3C2H6CNC2HC2H8CH6CHCNH3CHCH3CHC2H2CH2CH2C2H4CHCH3NCHSHC2H2CH3C4H3C2SHC2H4C2H5FeS2FeS2FeSFeHS2FeSHFeS2FeSFeS3C2FeSHFeSHC6H4CH2CHC2HC6H4C6H4NH4C2H7CHC3H3CH2CH5CH2CH5CH8NHC2H2C2SH2C2H8CH2CH6CHC3H5NC2HC5HC2H4C2H6CH4SH4CHSHC3H3CH2CH2CH3C3HC2HCH9CH3CHCHC2H9CHC
_chemical_formula_sum              "Fe96 S192 H1536 C864 N48"
_cell_length_a       49.238
_cell_length_b       49.1543
_cell_length_c       47.4389
_cell_angle_alpha    90.4986
_cell_angle_beta     88.8235
_cell_angle_gamma    120.22

_space_group_name_H-M_alt    "P 1"
_space_group_IT_number       1

loop_
  _space_group_symop_operation_xyz
  'x, y, z'

loop_
  _atom_site_type_symbol
  _atom_site_label
  _atom_site_symmetry_multiplicity
  _atom_site_fract_x
  _atom_site_fract_y
  _atom_site_fract_z
  _atom_site_occupancy
  Fe  Fe1       1.0  0.12744  0.30369  0.22818  1.0000
  S   S1        1.0  0.14402  0.35464  0.23767  1.0000
  S   S2        1.0  0.07625  0.26239  0.22498  1.0000
  Fe  Fe2       1.0  0.19597  0.31670  0.21951  1.0000
  S   S3        1.0  0.21593  0.36875  0.22709  1.0000
  S   S4        1.0  0.23329  0.30275  0.20857  1.0000
  Fe  Fe3       1.0  0.18175  0.35440  0.26394  1.0000
  H   H1        1.0  0.44225  0.13255  0.04237  1.0000
  Fe  Fe4       1.0  0.17707  0.36493  0.19997  1.0000
  S   S5        1.0  0.17940  0.40025  0.16690  1.0000
  S   S6        1.0  0.16297  0.30239  0.25696  1.0000
  S   S7        1.0  0.15941  0.31414  0.18989  1.0000
  C   C1        1.0  0.20563  0.00205  0.23781  1.0000
  S   S8        1.0  0.46888  0.25904  0.05467  1.0000
  Fe  Fe5       1.0  0.30295  0.18293  0.23732  1.0000
  S   S9        1.0  0.35377  0.21595  0.22548  1.0000
  S   S10       1.0  0.26450  0.19593  0.24540  1.0000
  Fe  Fe6       1.0  0.31168  0.12464  0.23917  1.0000
  S   S11       1.0  0.36315  0.15450  0.22735  1.0000
  S   S12       1.0  0.29703  0.07287  0.24746  1.0000
  Fe  Fe7       1.0  0.36434  0.18974  0.25882  1.0000
  S   S13       1.0  0.40631  0.21500  0.28859  1.0000
  Fe  Fe8       1.0  0.34881  0.17796  0.19513  1.0000
  S   S14       1.0  0.36087  0.17983  0.14756  1.0000
  S   S15       1.0  0.31393  0.15893  0.27238  1.0000
  S   S16       1.0  0.29704  0.14603  0.20532  1.0000
  Fe  Fe9       1.0  0.22827  0.46820  0.00448  1.0000
  S   S17       1.0  0.22672  0.43358  0.03801  1.0000
  C   C2        1.0  0.28266  0.18753  0.14712  1.0000
  C   C3        1.0  0.26290  0.00823  0.25264  1.0000
  C   C4        1.0  0.23291  0.03220  0.23839  1.0000
  C   C5        1.0  0.26174  0.03552  0.24597  1.0000
  H   H2        1.0  0.28501  0.01043  0.25854  1.0000
  H   H3        1.0  0.28304  0.25868  0.31276  1.0000
  H   H4        1.0  0.23156  0.05287  0.23319  1.0000
  C   C6        1.0  0.27329  0.48838  0.12471  1.0000
  C   C7        1.0  0.43919  0.23573  0.08039  1.0000
  C   C8        1.0  0.44304  0.24618  0.10859  1.0000
  C   C9        1.0  0.41992  0.22905  0.12962  1.0000
  C   C10       1.0  0.39233  0.20128  0.12269  1.0000
  C   C11       1.0  0.38883  0.19050  0.09464  1.0000
  C   C12       1.0  0.41209  0.20745  0.07367  1.0000
  H   H5        1.0  0.46396  0.26791  0.11416  1.0000
  H   H6        1.0  0.42330  0.23756  0.15106  1.0000
  H   H7        1.0  0.36769  0.16904  0.08893  1.0000
  H   H8        1.0  0.40870  0.19896  0.05218  1.0000
  H   H9        1.0  0.25367  0.49324  0.06747  1.0000
  C   C13       1.0  0.19058  0.40705  0.13042  1.0000
  C   C14       1.0  0.20676  0.39395  0.11674  1.0000
  C   C15       1.0  0.21695  0.40182  0.08835  1.0000
  C   C16       1.0  0.21097  0.42267  0.07308  1.0000
  C   C17       1.0  0.19393  0.43499  0.08649  1.0000
  C   C18       1.0  0.18406  0.42742  0.11499  1.0000
  H   H10       1.0  0.21203  0.37827  0.12820  1.0000
  H   H11       1.0  0.22997  0.39197  0.07824  1.0000
  H   H12       1.0  0.18877  0.45074  0.07504  1.0000
  H   H13       1.0  0.17150  0.43769  0.12523  1.0000
  C   C19       1.0  0.03717  0.25644  0.22691  1.0000
  C   C20       1.0  0.01136  0.22596  0.22261  1.0000
  C   C21       1.0  0.03106  0.28098  0.23208  1.0000
  H   H14       1.0  0.01560  0.20668  0.21872  1.0000
  H   H15       1.0  0.05037  0.30434  0.23627  1.0000
  C   C22       1.0  0.24129  0.27273  0.21937  1.0000
  C   C23       1.0  0.21927  0.24565  0.23395  1.0000
  C   C24       1.0  0.22686  0.22256  0.24167  1.0000
  C   C25       1.0  0.25637  0.22590  0.23469  1.0000
  C   C26       1.0  0.27844  0.25306  0.22020  1.0000
  C   C27       1.0  0.27095  0.27630  0.21276  1.0000
  H   H16       1.0  0.19624  0.24227  0.23901  1.0000
  H   H17       1.0  0.20955  0.20173  0.25290  1.0000
  H   H18       1.0  0.30139  0.25633  0.21510  1.0000
  H   H19       1.0  0.28831  0.29740  0.20198  1.0000
  H   H20       1.0  0.40226  0.26645  0.17563  1.0000
  H   H21       1.0  0.13663  0.36653  0.05917  1.0000
  C   C28       1.0  0.36865  0.06804  0.23017  1.0000
  H   H22       1.0  0.41179  0.15071  0.28957  1.0000
  C   C29       1.0  0.28459  0.03025  0.16954  1.0000
  H   H23       1.0  0.28707  0.45476  0.18354  1.0000
  H   H24       1.0  0.36231  0.03649  0.29509  1.0000
  H   H25       1.0  0.23159  0.16617  0.14985  1.0000
  H   H26       1.0  0.46683  0.18835  0.12064  1.0000
  C   C30       1.0  0.26084  0.34043  0.28079  1.0000
  H   H27       1.0  0.24327  0.34812  0.27783  1.0000
  H   H28       1.0  0.27841  0.46308  0.07810  1.0000
  H   H29       1.0  0.25393  0.32100  0.26550  1.0000
  H   H30       1.0  0.35113  0.23268  0.15406  1.0000
  H   H31       1.0  0.38811  0.28900  0.13461  1.0000
  H   H32       1.0  0.30805  0.03428  0.17548  1.0000
  H   H33       1.0  0.24672  0.14346  0.16578  1.0000
  H   H34       1.0  0.41835  0.30841  0.17754  1.0000
  H   H35       1.0  0.20813  0.28115  0.27832  1.0000
  H   H36       1.0  0.27847  0.04444  0.18388  1.0000
  H   H37       1.0  0.31719  0.48385  0.09130  1.0000
  C   C31       1.0  0.36150  0.25194  0.09030  1.0000
  H   H38       1.0  0.28156  0.27259  0.14591  1.0000
  H   H39       1.0  0.25112  0.17800  0.18340  1.0000
  C   C32       1.0  0.36732  0.09276  0.27714  1.0000
  C   C33       1.0  0.30758  0.28754  0.14430  1.0000
  N   N1        1.0  0.32151  0.24489  0.13060  1.0000
  H   H40       1.0  0.09716  0.35991  0.06062  1.0000
  H   H41       1.0  0.32026  0.39191  0.23360  1.0000
  N   N2        1.0  0.07491  0.31755  0.14160  1.0000
  C   C34       1.0  0.07793  0.32416  0.11029  1.0000
  C   C35       1.0  0.04070  0.29774  0.15053  1.0000
  C   C36       1.0  0.08857  0.34891  0.15657  1.0000
  C   C37       1.0  0.09321  0.30199  0.15021  1.0000
  C   C38       1.0  0.08305  0.26938  0.13704  1.0000
  C   C39       1.0  0.11180  0.34649  0.09868  1.0000
  C   C40       1.0  0.08212  0.34773  0.18886  1.0000
  C   C41       1.0  0.01798  0.27245  0.12954  1.0000
  H   H42       1.0  0.29559  0.39080  0.27927  1.0000
  C   C42       1.0  0.10555  0.25778  0.14445  1.0000
  C   C43       1.0  0.11218  0.35008  0.06669  1.0000
  C   C44       1.0  0.09748  0.38083  0.20140  1.0000
  H   H43       1.0  0.06336  0.33477  0.10471  1.0000
  H   H44       1.0  0.06833  0.30219  0.09782  1.0000
  H   H45       1.0  0.03882  0.28602  0.17111  1.0000
  H   H46       1.0  0.03019  0.31293  0.15443  1.0000
  H   H47       1.0  0.07967  0.36359  0.14716  1.0000
  H   H48       1.0  0.11456  0.36248  0.15372  1.0000
  H   H49       1.0  0.11878  0.31782  0.14606  1.0000
  H   H50       1.0  0.09125  0.29814  0.17335  1.0000
  H   H51       1.0  0.08240  0.26998  0.11375  1.0000
  H   H52       1.0  0.05961  0.25169  0.14567  1.0000
  H   H53       1.0  0.12164  0.37043  0.10775  1.0000
  H   H54       1.0  0.12776  0.33742  0.10345  1.0000
  H   H55       1.0  0.09155  0.33452  0.19978  1.0000
  H   H56       1.0  0.05662  0.33637  0.19384  1.0000
  C   C45       1.0  0.28399  0.29716  0.28936  1.0000
  H   H57       1.0  0.02805  0.25925  0.11912  1.0000
  H   H58       1.0  0.43908  0.16523  0.02928  1.0000
  C   C46       1.0  0.27893  0.31413  0.31505  1.0000
  C   C47       1.0  0.32917  0.23115  0.10510  1.0000
  H   H59       1.0  0.10572  0.25486  0.16764  1.0000
  H   H60       1.0  0.09767  0.23451  0.13449  1.0000
  H   H61       1.0  0.12975  0.27449  0.13661  1.0000
  C   C48       1.0  0.38792  0.08715  0.25535  1.0000
  H   H62       1.0  0.27830  0.37283  0.22968  1.0000
  C   C49       1.0  0.29903  0.27797  0.29819  1.0000
  H   H63       1.0  0.12334  0.39336  0.19785  1.0000
  H   H64       1.0  0.31048  0.22409  0.08912  1.0000
  H   H65       1.0  0.30535  0.32094  0.11584  1.0000
  H   H66       1.0  0.42903  0.12634  0.28970  1.0000
  H   H67       1.0  0.32921  0.20925  0.11084  1.0000
  H   H68       1.0  0.33234  0.24829  0.17515  1.0000
  H   H69       1.0  0.33630  0.47252  0.04536  1.0000
  C   C50       1.0  0.29912  0.48714  0.08071  1.0000
  H   H70       1.0  0.31732  0.28822  0.16532  1.0000
  H   H71       1.0  0.38463  0.28265  0.19915  1.0000
  H   H72       1.0  0.36929  0.30267  0.15877  1.0000
  H   H73       1.0  0.25180  0.46617  0.11857  1.0000
  H   H74       1.0  0.34950  0.04444  0.23710  1.0000
  H   H75       1.0  0.01205  0.28404  0.11266  1.0000
  C   C51       1.0  0.36282  0.23859  0.06139  1.0000
  H   H76       1.0  0.27099  0.21836  0.12485  1.0000
  H   H77       1.0  0.29966  0.46389  0.13285  1.0000
  H   H78       1.0  0.34674  0.24068  0.04663  1.0000
  H   H79       1.0  0.36224  0.11031  0.26763  1.0000
  C   C52       1.0  0.32088  0.27401  0.12178  1.0000
  H   H80       1.0  0.34459  0.29318  0.11536  1.0000
  H   H81       1.0  0.10383  0.32703  0.05612  1.0000
  C   C53       1.0  0.28863  0.22100  0.14065  1.0000
  H   H82       1.0  0.38715  0.25193  0.05248  1.0000
  H   H83       1.0  0.31403  0.07591  0.30929  1.0000
  C   C54       1.0  0.27283  0.46073  0.16979  1.0000
  C   C55       1.0  0.34409  0.25095  0.15420  1.0000
  H   H84       1.0  0.09273  0.37924  0.22450  1.0000
  H   H85       1.0  0.34417  0.07086  0.27853  1.0000
  C   C56       1.0  0.48717  0.17622  0.03728  1.0000
  S   S18       1.0  0.20190  0.37151  0.30831  1.0000
  H   H86       1.0  0.35607  0.21344  0.06310  1.0000
  H   H87       1.0  0.34085  0.33727  0.13636  1.0000
  H   H88       1.0  0.26489  0.47478  0.18226  1.0000
  C   C57       1.0  0.39623  0.28527  0.17822  1.0000
  C   C58       1.0  0.31907  0.47671  0.03433  1.0000
  H   H89       1.0  0.16153  0.23482  0.29690  1.0000
  C   C59       1.0  0.45339  0.15355  0.02838  1.0000
  C   C60       1.0  0.37468  0.28362  0.15472  1.0000
  H   H90       1.0  0.25189  0.43840  0.16315  1.0000
  H   H91       1.0  0.38406  0.06487  0.21471  1.0000
  H   H92       1.0  0.21899  0.26137  0.30401  1.0000
  H   H93       1.0  0.08786  0.39469  0.19183  1.0000
  C   C61       1.0  0.20795  0.27596  0.30102  1.0000
  Fe  Fe10      1.0  0.47761  0.25430  0.00720  1.0000
  H   H94       1.0  0.30637  0.26902  0.10261  1.0000
  H   H95       1.0  0.29742  0.34965  0.23078  1.0000
  H   H96       1.0  0.38027  0.25231  0.10315  1.0000
  H   H97       1.0  0.28574  0.03854  0.14760  1.0000
  C   C62       1.0  0.25107  0.16768  0.16245  1.0000
  H   H98       1.0  0.32872  0.48642  0.01303  1.0000
  C   C63       1.0  0.17362  0.25582  0.31070  1.0000
  H   H99       1.0  0.28245  0.22923  0.16042  1.0000
  H   H100      1.0  0.29982  0.31454  0.27335  1.0000
  C   C64       1.0  0.29337  0.36838  0.27146  1.0000
  C   C65       1.0  0.29750  0.37077  0.23941  1.0000
  C   C66       1.0  0.31505  0.32078  0.13674  1.0000
  H   H101      1.0  0.30142  0.18869  0.16046  1.0000
  H   H102      1.0  0.30415  0.32914  0.15280  1.0000
  H   H103      1.0  0.28188  0.17501  0.12728  1.0000
  H   H104      1.0  0.36693  0.27640  0.08677  1.0000
  H   H105      1.0  0.30298  0.33200  0.32185  1.0000
  H   H106      1.0  0.48438  0.23330  0.15358  1.0000
  H   H107      1.0  0.30342  0.26712  0.27928  1.0000
  H   H108      1.0  0.17500  0.41351  0.31212  1.0000
  H   H109      1.0  0.45353  0.14560  0.00640  1.0000
  N   N3        1.0  0.38109  0.10360  0.30596  1.0000
  H   H110      1.0  0.33463  0.03955  0.31774  1.0000
  C   C67       1.0  0.41336  0.13238  0.30205  1.0000
  C   C68       1.0  0.29247  0.47922  0.14404  1.0000
  H   H111      1.0  0.26183  0.28101  0.27877  1.0000
  H   H112      1.0  0.35810  0.08051  0.21955  1.0000
  H   H113      1.0  0.32182  0.29323  0.30856  1.0000
  C   C69       1.0  0.22498  0.30660  0.31847  1.0000
  H   H114      1.0  0.47335  0.20200  0.06539  1.0000
  C   C70       1.0  0.48764  0.19024  0.06662  1.0000
  H   H115      1.0  0.16112  0.26931  0.30944  1.0000
  H   H116      1.0  0.31294  0.36629  0.28023  1.0000
  H   H117      1.0  0.46479  0.19229  0.30860  1.0000
  H   H118      1.0  0.40696  0.11011  0.24704  1.0000
  H   H119      1.0  0.39891  0.07463  0.26498  1.0000
  N   N4        1.0  0.25898  0.32916  0.31065  1.0000
  H   H120      1.0  0.47522  0.19731  0.17123  1.0000
  H   H121      1.0  0.29684  0.45395  0.03167  1.0000
  H   H122      1.0  0.18344  0.99988  0.23218  1.0000
  H   H123      1.0  0.21110  0.31878  0.31707  1.0000
  C   C71       1.0  0.99984  0.27522  0.23218  1.0000
  H   H124      1.0  0.36756  0.23858  0.32037  1.0000
  H   H125      1.0  0.47433  0.16955  0.08074  1.0000
  H   H126      1.0  0.99561  0.29451  0.23600  1.0000
  C   C72       1.0  0.49152  0.20034  0.12789  1.0000
  C   C73       1.0  0.35890  0.04377  0.31646  1.0000
  C   C74       1.0  0.49188  0.21559  0.15620  1.0000
  C   C75       1.0  0.36114  0.11394  0.32221  1.0000
  H   H127      1.0  0.36104  0.13360  0.31071  1.0000
  H   H128      1.0  0.40713  0.08051  0.31703  1.0000
  H   H129      1.0  0.47862  0.16461  0.31227  1.0000
  C   C76       1.0  0.38406  0.07876  0.32194  1.0000
  H   H130      1.0  0.36835  0.27576  0.32017  1.0000
  Fe  Fe11      1.0  0.46536  0.23343  0.45196  1.0000
  S   S19       1.0  0.46911  0.27772  0.46999  1.0000
  S   S20       1.0  0.42568  0.20419  0.42070  1.0000
  S   S21       1.0  0.46382  0.21308  0.49522  1.0000
  H   H131      1.0  0.43410  0.34266  0.42569  1.0000
  H   H132      1.0  0.39047  0.23826  0.64421  1.0000
  S   S22       1.0  0.20797  0.46801  0.40368  1.0000
  S   S23       1.0  0.35450  0.16878  0.64735  1.0000
  C   C77       1.0  0.38578  0.19172  0.34331  1.0000
  C   C78       1.0  0.39090  0.18942  0.37221  1.0000
  C   C79       1.0  0.42091  0.20781  0.38392  1.0000
  C   C80       1.0  0.44578  0.22860  0.36625  1.0000
  C   C81       1.0  0.30830  0.10330  0.34151  1.0000
  H   H133      1.0  0.37140  0.17343  0.38566  1.0000
  H   H134      1.0  0.46897  0.24298  0.37483  1.0000
  H   H135      1.0  0.39633  0.36183  0.41924  1.0000
  H   H136      1.0  0.40192  0.25259  0.36558  1.0000
  C   C82       1.0  0.22092  0.40366  0.35858  1.0000
  C   C83       1.0  0.22341  0.42532  0.37957  1.0000
  C   C84       1.0  0.20789  0.44236  0.37667  1.0000
  C   C85       1.0  0.19045  0.43785  0.35211  1.0000
  H   H137      1.0  0.34515  0.22837  0.36927  1.0000
  C   C86       1.0  0.29758  0.47498  0.60882  1.0000
  H   H138      1.0  0.23720  0.42877  0.39807  1.0000
  H   H139      1.0  0.17832  0.45087  0.34953  1.0000
  H   H140      1.0  0.22359  0.04276  0.60733  1.0000
  Fe  Fe12      1.0  0.47006  0.25839  0.51274  1.0000
  S   S24       1.0  0.44553  0.26525  0.55170  1.0000
  H   H141      1.0  0.28275  0.39961  0.37349  1.0000
  Fe  Fe13      1.0  0.23726  0.46758  0.50757  1.0000
  S   S25       1.0  0.21688  0.42328  0.53569  1.0000
  S   S26       1.0  0.26023  0.46458  0.46678  1.0000
  C   C87       1.0  0.41990  0.23801  0.57793  1.0000
  C   C88       1.0  0.40521  0.20539  0.57421  1.0000
  C   C89       1.0  0.38535  0.18473  0.59566  1.0000
  C   C90       1.0  0.37975  0.19629  0.62111  1.0000
  C   C91       1.0  0.39449  0.22892  0.62485  1.0000
  C   C92       1.0  0.41432  0.24958  0.60336  1.0000
  H   H142      1.0  0.40896  0.19607  0.55472  1.0000
  H   H143      1.0  0.37405  0.15958  0.59242  1.0000
  H   H144      1.0  0.33701  0.20751  0.46031  1.0000
  H   H145      1.0  0.42541  0.27474  0.60649  1.0000
  C   C93       1.0  0.18331  0.40176  0.62915  1.0000
  C   C94       1.0  0.18439  0.37907  0.61191  1.0000
  C   C95       1.0  0.19434  0.38600  0.58337  1.0000
  C   C96       1.0  0.20358  0.41573  0.57164  1.0000
  C   C97       1.0  0.20220  0.43834  0.58880  1.0000
  C   C98       1.0  0.19199  0.43130  0.61726  1.0000
  H   H146      1.0  0.17766  0.35619  0.62057  1.0000
  H   H147      1.0  0.19516  0.36824  0.57035  1.0000
  H   H148      1.0  0.20905  0.46126  0.58017  1.0000
  H   H149      1.0  0.19115  0.44905  0.63028  1.0000
  N   N5        1.0  0.14984  0.38059  0.45570  1.0000
  C   C99       1.0  0.18145  0.38865  0.44312  1.0000
  C   C100      1.0  0.13734  0.39842  0.43988  1.0000
  C   C101      1.0  0.15517  0.39235  0.48579  1.0000
  C   C102      1.0  0.12648  0.34560  0.45580  1.0000
  C   C103      1.0  0.12928  0.32586  0.43127  1.0000
  C   C104      1.0  0.20008  0.37662  0.45998  1.0000
  C   C105      1.0  0.12636  0.39014  0.50192  1.0000
  C   C106      1.0  0.12950  0.38975  0.40847  1.0000
  C   C107      1.0  0.12001  0.41155  0.39444  1.0000
  C   C108      1.0  0.10072  0.29261  0.43084  1.0000
  C   C109      1.0  0.22621  0.37660  0.44203  1.0000
  C   C110      1.0  0.13277  0.39658  0.53338  1.0000
  H   H150      1.0  0.19679  0.41470  0.44129  1.0000
  H   H151      1.0  0.17928  0.38009  0.42114  1.0000
  H   H152      1.0  0.11497  0.39454  0.44962  1.0000
  H   H153      1.0  0.15425  0.42426  0.44123  1.0000
  H   H154      1.0  0.17443  0.41736  0.48656  1.0000
  H   H155      1.0  0.16334  0.37908  0.49863  1.0000
  H   H156      1.0  0.12819  0.33446  0.47555  1.0000
  H   H157      1.0  0.10205  0.34148  0.45621  1.0000
  H   H158      1.0  0.15036  0.32354  0.43381  1.0000
  H   H159      1.0  0.13148  0.33657  0.41035  1.0000
  H   H160      1.0  0.21130  0.39225  0.47834  1.0000
  H   H161      1.0  0.18451  0.35249  0.46825  1.0000
  H   H162      1.0  0.10526  0.36647  0.49959  1.0000
  H   H163      1.0  0.12108  0.40813  0.49395  1.0000
  H   H164      1.0  0.14974  0.39149  0.39632  1.0000
  H   H165      1.0  0.10917  0.36550  0.40672  1.0000
  H   H166      1.0  0.24508  0.02613  0.59111  1.0000
  H   H167      1.0  0.09851  0.40928  0.40474  1.0000
  C   C111      1.0  0.43139  0.14822  0.32943  1.0000
  H   H168      1.0  0.07898  0.29344  0.42689  1.0000
  H   H169      1.0  0.10376  0.27881  0.41366  1.0000
  H   H170      1.0  0.09809  0.28042  0.45119  1.0000
  H   H171      1.0  0.24375  0.40094  0.43539  1.0000
  H   H172      1.0  0.23846  0.36724  0.45465  1.0000
  H   H173      1.0  0.21642  0.36159  0.42306  1.0000
  H   H174      1.0  0.46496  0.17376  0.65490  1.0000
  H   H175      1.0  0.13791  0.37914  0.54296  1.0000
  H   H176      1.0  0.44708  0.12900  0.55708  1.0000
  H   H177      1.0  0.28548  0.42661  0.60557  1.0000
  C   C112      1.0  0.36220  0.21990  0.46601  1.0000
  H   H178      1.0  0.27226  0.33244  0.36758  1.0000
  H   H179      1.0  0.30661  0.46403  0.56605  1.0000
  H   H180      1.0  0.43900  0.29710  0.42953  1.0000
  H   H181      1.0  0.37260  0.20516  0.45982  1.0000
  C   C113      1.0  0.43263  0.28796  0.40783  1.0000
  H   H182      1.0  0.32926  0.43375  0.62293  1.0000
  H   H183      1.0  0.13926  0.43646  0.39564  1.0000
  H   H184      1.0  0.26900  0.29693  0.33279  1.0000
  H   H185      1.0  0.34361  0.99704  0.33280  1.0000
  H   H186      1.0  0.43715  0.15511  0.53903  1.0000
  H   H187      1.0  0.11187  0.39493  0.54438  1.0000
  C   C114      1.0  0.41083  0.21195  0.32550  1.0000
  N   N6        1.0  0.39883  0.27792  0.40193  1.0000
  C   C115      1.0  0.24717  0.04820  0.59974  1.0000
  H   H188      1.0  0.31224  0.38813  0.37519  1.0000
  C   C116      1.0  0.44936  0.18293  0.64899  1.0000
  H   H189      1.0  0.27300  0.46950  0.56958  1.0000
  H   H190      1.0  0.38427  0.08315  0.34505  1.0000
  H   H191      1.0  0.39591  0.31853  0.38852  1.0000
  H   H192      1.0  0.25481  0.00020  0.63201  1.0000
  H   H193      1.0  0.31943  0.11605  0.36125  1.0000
  H   H194      1.0  0.25285  0.43162  0.61134  1.0000
  H   H195      1.0  0.37120  0.12335  0.34320  1.0000
  C   C117      1.0  0.37769  0.24880  0.41914  1.0000
  S   S27       1.0  0.20891  0.48545  0.48569  1.0000
  H   H196      1.0  0.24140  0.34202  0.36847  1.0000
  C   C118      1.0  0.25318  0.37512  0.63276  1.0000
  C   C119      1.0  0.29728  0.47790  0.57678  1.0000
  H   H197      1.0  0.40695  0.28996  0.35747  1.0000
  C   C120      1.0  0.49070  0.32661  0.39908  1.0000
  N   N7        1.0  0.27680  0.43369  0.64950  1.0000
  H   H198      1.0  0.30286  0.03644  0.65259  1.0000
  H   H199      1.0  0.49065  0.20003  0.54794  1.0000
  H   H200      1.0  0.40837  0.31502  0.45158  1.0000
  H   H201      1.0  0.23936  0.06145  0.55844  1.0000
  C   C121      1.0  0.44074  0.23054  0.33728  1.0000
  H   H202      1.0  0.28168  0.37503  0.40194  1.0000
  Fe  Fe14      1.0  0.23443  0.48511  0.44543  1.0000
  H   H203      1.0  0.28024  0.07728  0.56652  1.0000
  H   H204      1.0  0.15308  0.42064  0.53666  1.0000
  C   C122      1.0  0.27039  0.35751  0.32976  1.0000
  H   H205      1.0  0.41995  0.15927  0.34134  1.0000
  C   C123      1.0  0.32654  0.08854  0.32853  1.0000
  C   C124      1.0  0.48131  0.17904  0.56170  1.0000
  C   C125      1.0  0.38013  0.25209  0.45162  1.0000
  C   C126      1.0  0.39112  0.30365  0.40764  1.0000
  H   H206      1.0  0.28836  0.48964  0.61797  1.0000
  H   H207      1.0  0.36385  0.22298  0.48927  1.0000
  C   C127      1.0  0.18845  0.41658  0.33083  1.0000
  H   H208      1.0  0.48195  0.23276  0.64563  1.0000
  C   C128      1.0  0.46740  0.21327  0.63087  1.0000
  H   H209      1.0  0.35253  0.24013  0.41484  1.0000
  C   C129      1.0  0.45668  0.15119  0.54479  1.0000
  C   C130      1.0  0.39318  0.26889  0.37113  1.0000
  C   C131      1.0  0.24242  0.00862  0.64641  1.0000
  H   H210      1.0  0.36545  0.29309  0.41205  1.0000
  H   H211      1.0  0.44953  0.21869  0.62278  1.0000
  C   C132      1.0  0.46684  0.18348  0.58935  1.0000
  H   H212      1.0  0.43607  0.26725  0.40714  1.0000
  H   H213      1.0  0.25815  0.09381  0.58277  1.0000
  H   H214      1.0  0.38199  0.22938  0.41280  1.0000
  C   C133      1.0  0.27191  0.06124  0.62340  1.0000
  H   H215      1.0  0.38505  0.02440  0.33648  1.0000
  H   H216      1.0  0.23248  0.39022  0.36142  1.0000
  H   H217      1.0  0.37037  0.33397  0.44573  1.0000
  H   H218      1.0  0.28380  0.08456  0.34654  1.0000
  N   N8        1.0  0.48751  0.21223  0.60678  1.0000
  H   H219      1.0  0.22056  0.00304  0.63545  1.0000
  H   H220      1.0  0.46774  0.14869  0.52502  1.0000
  H   H221      1.0  0.32564  0.07139  0.34412  1.0000
  C   C134      1.0  0.26623  0.35059  0.36194  1.0000
  H   H222      1.0  0.11515  0.40519  0.37184  1.0000
  C   C135      1.0  0.28701  0.38019  0.37910  1.0000
  H   H223      1.0  0.36248  0.17784  0.33485  1.0000
  H   H224      1.0  0.22266  0.29874  0.34072  1.0000
  H   H225      1.0  0.29295  0.06156  0.61379  1.0000
  H   H226      1.0  0.32241  0.48489  0.61499  1.0000
  C   C136      1.0  0.25693  0.07169  0.57542  1.0000
  N   N9        1.0  0.26296  0.04363  0.65120  1.0000
  H   H227      1.0  0.44503  0.18355  0.58381  1.0000
  C   C137      1.0  0.35855  0.25305  0.36149  1.0000
  C   C138      1.0  0.20366  0.39923  0.33396  1.0000
  H   H228      1.0  0.24057  0.37645  0.61416  1.0000
  H   H229      1.0  0.36951  0.26612  0.45926  1.0000
  H   H230      1.0  0.40467  0.26326  0.45870  1.0000
  H   H231      1.0  0.27921  0.08648  0.62693  1.0000
  H   H232      1.0  0.45729  0.30184  0.36684  1.0000
  H   H233      1.0  0.23203  0.32464  0.62674  1.0000
  C   C139      1.0  0.45761  0.31291  0.38746  1.0000
  C   C140      1.0  0.35648  0.25169  0.32933  1.0000
  H   H234      1.0  0.45905  0.16157  0.60171  1.0000
  H   H235      1.0  0.32672  0.09615  0.64717  1.0000
  C   C141      1.0  0.40902  0.32710  0.43181  1.0000
  C   C142      1.0  0.27726  0.44014  0.61835  1.0000
  H   H236      1.0  0.40887  0.36519  0.45516  1.0000
  H   H237      1.0  0.42921  0.16446  0.63705  1.0000
  C   C143      1.0  0.39519  0.34825  0.43827  1.0000
  H   H238      1.0  0.34692  0.26599  0.36952  1.0000
  H   H239      1.0  0.43269  0.13095  0.34341  1.0000
  H   H240      1.0  0.45296  0.33244  0.38375  1.0000
  H   H241      1.0  0.35662  0.02717  0.35942  1.0000
  H   H242      1.0  0.27652  0.37970  0.62531  1.0000
  C   C144      1.0  0.36132  0.02187  0.33764  1.0000
  H   H243      1.0  0.17214  0.24772  0.33276  1.0000
  C   C145      1.0  0.23494  0.34137  0.64388  1.0000
  H   H244      1.0  0.47788  0.23980  0.57785  1.0000
  C   C146      1.0  0.32818  0.43115  0.64616  1.0000
  H   H245      1.0  0.21763  0.06596  0.64447  1.0000
  H   H246      1.0  0.46029  0.24645  0.32382  1.0000
  H   H247      1.0  0.21120  0.33556  0.65181  1.0000
  H   H248      1.0  0.31750  0.40590  0.65178  1.0000
  H   H249      1.0  0.37437  0.47311  0.65076  1.0000
  H   H250      1.0  0.37487  0.43692  0.64637  1.0000
  H   H251      1.0  0.24091  0.44642  0.65527  1.0000
  H   H252      1.0  0.33144  0.23929  0.32309  1.0000
  H   H253      1.0  0.29582  0.37431  0.32574  1.0000
  H   H254      1.0  0.25823  0.37086  0.32493  1.0000
  H   H255      1.0  0.30737  0.11994  0.32639  1.0000
  H   H256      1.0  0.47681  0.18623  0.34248  1.0000
  C   C147      1.0  0.25530  0.39893  0.65561  1.0000
  C   C148      1.0  0.46497  0.17439  0.32265  1.0000
  Fe  Fe15      1.0  0.11241  0.29934  0.73217  1.0000
  S   S28       1.0  0.13497  0.35198  0.73770  1.0000
  S   S29       1.0  0.06128  0.26370  0.74612  1.0000
  Fe  Fe16      1.0  0.17612  0.30384  0.71671  1.0000
  S   S30       1.0  0.20153  0.35658  0.72106  1.0000
  S   S31       1.0  0.21015  0.28683  0.70244  1.0000
  Fe  Fe17      1.0  0.17307  0.34946  0.76085  1.0000
  S   S32       1.0  0.20112  0.37444  0.80043  1.0000
  Fe  Fe18      1.0  0.16199  0.35533  0.69725  1.0000
  H   H257      1.0  0.35472  0.02255  0.84794  1.0000
  S   S33       1.0  0.14958  0.29671  0.75764  1.0000
  S   S34       1.0  0.13749  0.30274  0.69049  1.0000
  Fe  Fe19      1.0  0.45676  0.23788  0.94486  1.0000
  H   H258      1.0  0.07228  0.41441  0.87012  1.0000
  S   S35       1.0  0.41250  0.21714  0.91769  1.0000
  H   H259      1.0  0.36951  0.02943  0.81185  1.0000
  Fe  Fe20      1.0  0.29111  0.17775  0.73371  1.0000
  S   S36       1.0  0.34192  0.21141  0.72129  1.0000
  S   S37       1.0  0.25141  0.18863  0.74343  1.0000
  Fe  Fe21      1.0  0.30074  0.12012  0.73729  1.0000
  S   S38       1.0  0.35184  0.15091  0.72564  1.0000
  S   S39       1.0  0.29077  0.06925  0.74316  1.0000
  Fe  Fe22      1.0  0.35298  0.18692  0.75575  1.0000
  S   S40       1.0  0.39673  0.21080  0.78339  1.0000
  Fe  Fe23      1.0  0.33726  0.17256  0.69208  1.0000
  S   S41       1.0  0.30280  0.15516  0.76960  1.0000
  S   S42       1.0  0.28568  0.14027  0.70246  1.0000
  Fe  Fe24      1.0  0.20930  0.47221  0.94359  1.0000
  H   H260      1.0  0.23708  0.45784  0.73245  1.0000
  S   S43       1.0  0.17892  0.44527  0.90544  1.0000
  H   H261      1.0  0.07037  0.38120  0.78744  1.0000
  H   H262      1.0  0.01740  0.27996  0.84209  1.0000
  C   C149      1.0  0.25670  0.03096  0.74547  1.0000
  C   C150      1.0  0.22641  0.02629  0.74931  1.0000
  H   H263      1.0  0.27988  0.45433  0.70830  1.0000
  C   C151      1.0  0.07437  0.32364  0.82706  1.0000
  H   H264      1.0  0.22316  0.04641  0.75136  1.0000
  C   C152      1.0  0.40056  0.21361  0.82080  1.0000
  C   C153      1.0  0.37459  0.20272  0.83923  1.0000
  C   C154      1.0  0.37875  0.20427  0.86871  1.0000
  C   C155      1.0  0.40889  0.21698  0.88027  1.0000
  C   C156      1.0  0.43489  0.22816  0.86183  1.0000
  C   C157      1.0  0.43071  0.22647  0.83234  1.0000
  H   H265      1.0  0.35130  0.19314  0.83076  1.0000
  H   H266      1.0  0.35847  0.19567  0.88272  1.0000
  H   H267      1.0  0.45821  0.23800  0.87029  1.0000
  H   H268      1.0  0.45102  0.23509  0.81836  1.0000
  C   C158      1.0  0.19453  0.39454  0.82908  1.0000
  C   C159      1.0  0.21664  0.40708  0.85080  1.0000
  C   C160      1.0  0.21244  0.42282  0.87410  1.0000
  C   C161      1.0  0.18587  0.42617  0.87617  1.0000
  C   C162      1.0  0.16374  0.41368  0.85440  1.0000
  C   C163      1.0  0.16809  0.39816  0.83096  1.0000
  H   H269      1.0  0.23723  0.40463  0.84967  1.0000
  H   H270      1.0  0.22968  0.43223  0.89057  1.0000
  H   H271      1.0  0.14318  0.41624  0.85566  1.0000
  H   H272      1.0  0.15107  0.38911  0.81434  1.0000
  C   C164      1.0  0.02260  0.25587  0.73839  1.0000
  C   C165      1.0  0.08593  0.30331  0.81160  1.0000
  C   C166      1.0  0.01673  0.27186  0.71728  1.0000
  H   H273      1.0  0.24829  0.01341  0.80636  1.0000
  H   H274      1.0  0.03617  0.28987  0.70503  1.0000
  C   C167      1.0  0.22139  0.25962  0.71467  1.0000
  C   C168      1.0  0.24941  0.26189  0.70403  1.0000
  C   C169      1.0  0.25909  0.24059  0.71255  1.0000
  C   C170      1.0  0.24075  0.21651  0.73181  1.0000
  C   C171      1.0  0.21284  0.21441  0.74259  1.0000
  C   C172      1.0  0.20316  0.23567  0.73405  1.0000
  H   H275      1.0  0.26367  0.28012  0.68888  1.0000
  H   H276      1.0  0.28058  0.24263  0.70402  1.0000
  H   H277      1.0  0.19835  0.19586  0.75741  1.0000
  H   H278      1.0  0.18122  0.23303  0.74199  1.0000
  N   N10       1.0  0.25651  0.31930  0.79608  1.0000
  C   C173      1.0  0.26816  0.29694  0.78877  1.0000
  C   C174      1.0  0.25360  0.33371  0.76917  1.0000
  C   C175      1.0  0.27947  0.34416  0.81576  1.0000
  C   C176      1.0  0.22467  0.30248  0.81067  1.0000
  C   C177      1.0  0.19937  0.27200  0.79623  1.0000
  C   C178      1.0  0.27013  0.27790  0.81379  1.0000
  C   C179      1.0  0.27377  0.37195  0.82213  1.0000
  C   C180      1.0  0.28477  0.35441  0.75242  1.0000
  C   C181      1.0  0.27968  0.37060  0.72743  1.0000
  C   C182      1.0  0.16846  0.25697  0.81313  1.0000
  C   C183      1.0  0.27819  0.25324  0.80339  1.0000
  C   C184      1.0  0.29790  0.39517  0.84276  1.0000
  H   H279      1.0  0.29229  0.30998  0.77941  1.0000
  H   H280      1.0  0.25367  0.28028  0.77193  1.0000
  H   H281      1.0  0.23779  0.31495  0.75447  1.0000
  H   H282      1.0  0.24183  0.34771  0.77327  1.0000
  H   H283      1.0  0.30405  0.35397  0.80775  1.0000
  H   H284      1.0  0.27893  0.33345  0.83650  1.0000
  H   H285      1.0  0.22668  0.29654  0.83283  1.0000
  H   H286      1.0  0.21465  0.31835  0.81240  1.0000
  H   H287      1.0  0.20672  0.25411  0.79443  1.0000
  H   H288      1.0  0.19467  0.27724  0.77482  1.0000
  H   H289      1.0  0.28883  0.29383  0.82840  1.0000
  H   H290      1.0  0.24767  0.26533  0.82589  1.0000
  H   H291      1.0  0.25011  0.36334  0.83176  1.0000
  H   H292      1.0  0.27569  0.38525  0.80270  1.0000
  H   H293      1.0  0.30285  0.37313  0.76574  1.0000
  H   H294      1.0  0.29421  0.33968  0.74383  1.0000
  H   H295      1.0  0.26218  0.35279  0.71298  1.0000
  H   H296      1.0  0.27133  0.38668  0.73487  1.0000
  H   H297      1.0  0.30214  0.38461  0.71549  1.0000
  H   H298      1.0  0.16007  0.27396  0.81609  1.0000
  H   H299      1.0  0.15030  0.23616  0.80160  1.0000
  H   H300      1.0  0.17154  0.24912  0.83410  1.0000
  H   H301      1.0  0.30035  0.26431  0.79062  1.0000
  H   H302      1.0  0.28119  0.24108  0.82166  1.0000
  H   H303      1.0  0.25889  0.23527  0.79039  1.0000
  H   H304      1.0  0.29593  0.38346  0.86325  1.0000
  H   H305      1.0  0.32212  0.40494  0.83396  1.0000
  H   H306      1.0  0.29353  0.41498  0.84666  1.0000
  N   N11       1.0  0.36530  0.11128  0.82608  1.0000
  C   C185      1.0  0.39145  0.13378  0.84498  1.0000
  C   C186      1.0  0.37399  0.12236  0.79588  1.0000
  C   C187      1.0  0.33628  0.11302  0.83391  1.0000
  C   C188      1.0  0.35770  0.07752  0.82908  1.0000
  C   C189      1.0  0.38510  0.07207  0.83684  1.0000
  C   C190      1.0  0.38371  0.12971  0.87710  1.0000
  C   C191      1.0  0.30746  0.09412  0.81483  1.0000
  C   C192      1.0  0.04731  0.32973  0.78552  1.0000
  C   C193      1.0  0.41356  0.14517  0.89455  1.0000
  C   C194      1.0  0.27781  0.09217  0.82765  1.0000
  H   H307      1.0  0.39851  0.15852  0.83967  1.0000
  H   H308      1.0  0.41313  0.13264  0.84128  1.0000
  H   H309      1.0  0.35513  0.10634  0.78134  1.0000
  H   H310      1.0  0.37601  0.14585  0.79351  1.0000
  H   H311      1.0  0.34177  0.13795  0.83378  1.0000
  H   H312      1.0  0.32826  0.10438  0.85581  1.0000
  H   H313      1.0  0.19840  0.02586  0.65761  1.0000
  H   H314      1.0  0.39198  0.07903  0.85903  1.0000
  H   H315      1.0  0.40629  0.08588  0.82343  1.0000
  H   H316      1.0  0.36978  0.14111  0.88292  1.0000
  H   H317      1.0  0.36967  0.10451  0.88314  1.0000
  H   H318      1.0  0.31177  0.10606  0.79417  1.0000
  C   C195      1.0  0.01833  0.28786  0.81993  1.0000
  H   H319      1.0  0.24218  0.42027  0.70180  1.0000
  H   H320      1.0  0.19532  0.04444  0.70539  1.0000
  H   H321      1.0  0.45495  0.20575  0.68992  1.0000
  H   H322      1.0  0.23058  0.39351  0.65877  1.0000
  H   H323      1.0  0.40725  0.14435  0.91727  1.0000
  H   H324      1.0  0.09449  0.34810  0.82588  1.0000
  H   H325      1.0  0.28148  0.11616  0.83123  1.0000
  H   H326      1.0  0.36725  0.11123  0.68239  1.0000
  C   C196      1.0  0.29283  0.04897  0.66473  1.0000
  H   H327      1.0  0.40157  0.10093  0.78168  1.0000
  H   H328      1.0  0.30264  0.06977  0.81119  1.0000
  S   S44       1.0  0.24933  0.46842  0.96133  1.0000
  H   H329      1.0  0.22138  0.00237  0.83594  1.0000
  C   C197      1.0  0.43582  0.18897  0.67606  1.0000
  S   S45       1.0  0.17257  0.39514  0.66577  1.0000
  H   H330      1.0  0.34705  0.06426  0.80933  1.0000
  H   H331      1.0  0.33924  0.06509  0.84574  1.0000
  C   C198      1.0  0.24111  0.46256  0.70943  1.0000
  H   H332      1.0  0.24571  0.04706  0.69262  1.0000
  H   H333      1.0  0.43424  0.14105  0.74598  1.0000
  H   H334      1.0  0.17738  0.05719  0.67999  1.0000
  C   C199      1.0  0.21501  0.05082  0.66272  1.0000
  H   H335      1.0  0.07436  0.34908  0.73298  1.0000
  C   C200      1.0  0.11490  0.30629  0.82574  1.0000
  H   H336      1.0  0.21790  0.45385  0.69954  1.0000
  H   H337      1.0  0.13493  0.33076  0.82403  1.0000
  H   H338      1.0  0.42512  0.13984  0.79678  1.0000
  C   C201      1.0  0.37538  0.03734  0.83404  1.0000
  H   H339      1.0  0.27129  0.07907  0.84793  1.0000
  C   C202      1.0  0.26352  0.45169  0.66481  1.0000
  H   H340      1.0  0.26158  0.39242  0.67587  1.0000
  H   H341      1.0  0.25805  0.07958  0.81286  1.0000
  C   C203      1.0  0.31942  0.08388  0.66782  1.0000
  H   H342      1.0  0.42884  0.17025  0.88843  1.0000
  H   H343      1.0  0.41498  0.16306  0.75449  1.0000
  H   H344      1.0  0.39291  0.12396  0.73942  1.0000
  H   H345      1.0  0.06798  0.27796  0.81187  1.0000
  H   H346      1.0  0.28365  0.00760  0.74041  1.0000
  C   C204      1.0  0.41201  0.13908  0.75407  1.0000
  H   H347      1.0  0.28785  0.03888  0.68639  1.0000
  N   N12       1.0  0.04467  0.32157  0.81639  1.0000
  H   H348      1.0  0.27948  0.47750  0.66249  1.0000
  H   H349      1.0  0.10991  0.29947  0.84833  1.0000
  H   H350      1.0  0.02251  0.27175  0.80634  1.0000
  S   S46       1.0  0.18676  0.46929  0.98665  1.0000
  C   C205      1.0  0.07340  0.36801  0.74514  1.0000
  H   H351      1.0  0.21569  0.08485  0.69311  1.0000
  C   C206      1.0  0.24762  0.05633  0.67098  1.0000
  H   H352      1.0  0.39511  0.03399  0.84035  1.0000
  H   H353      1.0  0.12177  0.29043  0.81513  1.0000
  H   H354      1.0  0.42145  0.16653  0.68775  1.0000
  H   H355      1.0  0.26125  0.01054  0.84088  1.0000
  C   C207      1.0  0.40452  0.12475  0.78366  1.0000
  S   S47       1.0  0.47340  0.28198  0.97120  1.0000
  C   C208      1.0  0.30928  0.44497  0.66048  1.0000
  C   C209      1.0  0.20006  0.05993  0.68683  1.0000
  H   H356      1.0  0.09406  0.39098  0.73890  1.0000
  H   H357      1.0  0.03387  0.38067  0.87652  1.0000
  H   H358      1.0  0.35781  0.07376  0.66730  1.0000
  C   C210      1.0  0.03630  0.34242  0.83389  1.0000
  H   H359      1.0  0.42695  0.13269  0.89155  1.0000
  C   C211      1.0  0.26035  0.00436  0.74329  1.0000
  C   C212      1.0  0.06380  0.37256  0.84717  1.0000
  S   S48       1.0  0.45780  0.20971  0.98186  1.0000
  H   H360      1.0  0.36243  0.44531  0.67970  1.0000
  C   C213      1.0  0.07382  0.36296  0.77688  1.0000
  H   H361      1.0  0.09722  0.36648  0.78214  1.0000
  H   H362      1.0  0.09257  0.31124  0.78943  1.0000
  H   H363      1.0  0.02093  0.32910  0.85226  1.0000
  H   H364      1.0  0.07438  0.36592  0.86437  1.0000
  C   C214      1.0  0.05230  0.39365  0.86009  1.0000
  H   H365      1.0  0.07122  0.31713  0.84984  1.0000
  H   H366      1.0  0.05169  0.36816  0.73949  1.0000
  H   H367      1.0  0.02516  0.32800  0.77830  1.0000
  H   H368      1.0  0.08274  0.38684  0.83168  1.0000
  C   C215      1.0  0.25747  0.44560  0.69705  1.0000
  H   H369      1.0  0.00233  0.22542  0.66120  1.0000
  H   H370      1.0  0.05009  0.31227  0.77260  1.0000
  C   C216      1.0  0.99686  0.23260  0.75411  1.0000
  H   H371      1.0  0.04272  0.40219  0.84356  1.0000
  H   H372      1.0  0.31176  0.09702  0.68181  1.0000
  H   H373      1.0  0.30797  0.43910  0.68323  1.0000
  H   H374      1.0  0.02208  0.34965  0.82132  1.0000
  H   H375      1.0  0.34313  0.07563  0.70222  1.0000
  H   H376      1.0  0.00105  0.22018  0.77063  1.0000
  H   H377      1.0  0.26276  0.08217  0.67316  1.0000
  C   C217      1.0  0.34865  0.08608  0.68073  1.0000
  H   H378      1.0  0.42043  0.19874  0.67110  1.0000
  C   C218      1.0  0.24094  0.00002  0.82650  1.0000
  H   H379      1.0  0.25578  0.48838  0.70610  1.0000
  H   H380      1.0  0.24789  0.33816  0.66121  1.0000
  H   H381      1.0  0.32361  0.47112  0.65950  1.0000
  C   C219      1.0  0.36201  0.44773  0.65646  1.0000
  Fe  Fe25      1.0  0.11254  0.81802  0.25117  1.0000
  S   S49       1.0  0.14731  0.80089  0.24469  1.0000
  S   S50       1.0  0.06108  0.78567  0.26572  1.0000
  Fe  Fe26      1.0  0.16467  0.88781  0.24678  1.0000
  S   S51       1.0  0.20203  0.87510  0.24067  1.0000
  S   S52       1.0  0.17135  0.93745  0.24410  1.0000
  Fe  Fe27      1.0  0.16923  0.83789  0.21036  1.0000
  S   S53       1.0  0.19699  0.84072  0.16969  1.0000
  Fe  Fe28      1.0  0.17771  0.83920  0.27524  1.0000
  S   S54       1.0  0.24695  0.80564  0.99846  1.0000
  S   S55       1.0  0.13244  0.85241  0.21490  1.0000
  S   S56       1.0  0.14227  0.85448  0.28360  1.0000
  H   H382      1.0  0.26164  0.98091  0.13036  1.0000
  S   S57       1.0  0.25734  0.52096  0.00843  1.0000
  N   N13       1.0  0.29003  0.50712  0.09853  1.0000
  Fe  Fe29      1.0  0.20929  0.76169  0.01981  1.0000
  H   H383      1.0  0.20195  0.94859  0.18653  1.0000
  S   S58       1.0  0.17781  0.75866  0.05772  1.0000
  C   C220      1.0  0.25457  0.92763  0.10392  1.0000
  S   S59       1.0  0.23653  0.73602  0.01665  1.0000
  C   C221      1.0  0.39876  0.87671  0.00872  1.0000
  C   C222      1.0  0.25187  0.93074  0.18561  1.0000
  S   S60       1.0  0.46380  0.75362  0.02268  1.0000
  H   H384      1.0  0.32503  0.61567  0.99589  1.0000
  C   C223      1.0  0.05996  0.86293  0.22539  1.0000
  C   C224      1.0  0.18275  0.74507  0.30489  1.0000
  C   C225      1.0  0.21379  0.74522  0.30959  1.0000
  H   H385      1.0  0.46615  0.77655  0.27605  1.0000
  C   C226      1.0  0.42164  0.87116  0.02563  1.0000
  H   H386      1.0  0.48243  0.80125  0.08613  1.0000
  C   C227      1.0  0.35111  0.78896  0.99221  1.0000
  H   H387      1.0  0.23898  0.90461  0.18765  1.0000
  H   H388      1.0  0.28572  0.93472  0.13776  1.0000
  H   H389      1.0  0.38219  0.60548  0.03402  1.0000
  H   H390      1.0  0.21311  0.50984  0.06201  1.0000
  C   C228      1.0  0.20725  0.61417  0.00994  1.0000
  H   H391      1.0  0.20817  0.65865  0.01133  1.0000
  H   H392      1.0  0.21125  0.61418  0.03228  1.0000
  C   C229      1.0  0.19109  0.81676  0.13923  1.0000
  C   C230      1.0  0.21667  0.82487  0.12053  1.0000
  C   C231      1.0  0.21316  0.80754  0.09556  1.0000
  C   C232      1.0  0.18392  0.78159  0.08896  1.0000
  C   C233      1.0  0.15840  0.77331  0.10782  1.0000
  C   C234      1.0  0.16190  0.79071  0.13275  1.0000
  H   H393      1.0  0.23949  0.84454  0.12552  1.0000
  H   H394      1.0  0.23308  0.81412  0.08149  1.0000
  H   H395      1.0  0.13568  0.75328  0.10303  1.0000
  H   H396      1.0  0.14194  0.78406  0.14679  1.0000
  C   C235      1.0  0.20674  0.97479  0.24462  1.0000
  H   H397      1.0  0.26719  0.95264  0.09720  1.0000
  H   H398      1.0  0.23684  0.95741  0.25745  1.0000
  C   C236      1.0  0.02056  0.77713  0.22169  1.0000
  C   C237      1.0  0.02372  0.77030  0.24960  1.0000
  H   H399      1.0  0.36059  0.77366  0.03134  1.0000
  H   H400      1.0  0.04130  0.79040  0.20853  1.0000
  C   C238      1.0  0.15936  0.91756  0.16526  1.0000
  C   C239      1.0  0.26679  0.91039  0.08531  1.0000
  C   C240      1.0  0.46563  0.80768  0.07744  1.0000
  C   C241      1.0  0.28703  0.93293  0.22499  1.0000
  H   H401      1.0  0.03840  0.87468  0.19054  1.0000
  C   C242      1.0  0.03369  0.94340  0.25873  1.0000
  H   H402      1.0  0.02175  0.90281  0.28396  1.0000
  H   H403      1.0  0.01041  0.93290  0.24857  1.0000
  H   H404      1.0  0.22581  0.49684  0.10868  1.0000
  H   H405      1.0  0.10057  0.91770  0.26501  1.0000
  H   H406      1.0  0.12139  0.67897  0.27197  1.0000
  C   C243      1.0  0.26807  0.51352  0.08158  1.0000
  C   C244      1.0  0.38087  0.60776  0.01150  1.0000
  C   C245      1.0  0.04474  0.85668  0.19591  1.0000
  C   C246      1.0  0.05957  0.87104  0.27608  1.0000
  H   H407      1.0  0.12420  0.72203  0.28782  1.0000
  C   C247      1.0  0.04169  0.89837  0.24278  1.0000
  C   C248      1.0  0.44550  0.86818  0.00585  1.0000
  H   H408      1.0  0.16336  0.69620  0.26728  1.0000
  H   H409      1.0  0.06291  0.92937  0.27939  1.0000
  H   H410      1.0  0.05225  0.95960  0.24359  1.0000
  H   H411      1.0  0.27594  0.94211  0.23998  1.0000
  H   H412      1.0  0.25344  0.88473  0.08977  1.0000
  C   C249      1.0  0.24351  0.51890  0.09801  1.0000
  H   H413      1.0  0.04871  0.87627  0.29444  1.0000
  H   H414      1.0  0.05505  0.85122  0.15222  1.0000
  S   S61       1.0  0.20964  0.83324  0.30612  1.0000
  H   H415      1.0  0.02142  0.89262  0.22900  1.0000
  H   H416      1.0  0.29193  0.98341  0.15140  1.0000
  H   H417      1.0  0.28382  0.58714  0.99614  1.0000
  H   H418      1.0  0.40552  0.76911  0.01191  1.0000
  H   H419      1.0  0.43358  0.89102  0.04055  1.0000
  H   H420      1.0  0.09793  0.77542  0.31791  1.0000
  H   H421      1.0  0.41128  0.90000  0.99806  1.0000
  H   H422      1.0  0.21149  0.72204  0.30494  1.0000
  H   H423      1.0  0.10807  0.88566  0.26382  1.0000
  C   C250      1.0  0.14698  0.68718  0.31177  1.0000
  H   H424      1.0  0.33115  0.55076  0.08561  1.0000
  C   C251      1.0  0.40416  0.63495  0.99757  1.0000
  H   H425      1.0  0.10384  0.88163  0.31655  1.0000
  C   C252      1.0  0.28619  0.94320  0.19485  1.0000
  S   S62       1.0  0.43552  0.66457  0.01717  1.0000
  H   H426      1.0  0.13432  0.91957  0.30400  1.0000
  H   H427      1.0  0.31371  0.50050  0.15177  1.0000
  H   H428      1.0  0.48125  0.83544  0.99547  1.0000
  H   H429      1.0  0.36273  0.60051  0.11461  1.0000
  C   C253      1.0  0.19192  0.92590  0.17532  1.0000
  H   H430      1.0  0.14472  0.91690  0.18366  1.0000
  H   H431      1.0  0.21038  0.93950  0.13266  1.0000
  C   C254      1.0  0.36744  0.77899  0.00937  1.0000
  H   H432      1.0  0.15901  0.64539  0.28072  1.0000
  S   S63       1.0  0.32356  0.79808  0.00777  1.0000
  H   H433      1.0  0.47089  0.75076  0.18506  1.0000
  H   H434      1.0  0.26462  0.50099  0.13827  1.0000
  H   H435      1.0  0.27447  0.90682  0.22652  1.0000
  H   H436      1.0  0.13447  0.64107  0.25140  1.0000
  Fe  Fe30      1.0  0.27314  0.77889  0.99296  1.0000
  H   H437      1.0  0.24200  0.55085  0.06715  1.0000
  C   C255      1.0  0.26627  0.97491  0.15159  1.0000
  N   N14       1.0  0.47268  0.86798  0.01989  1.0000
  H   H438      1.0  0.36112  0.57866  0.14580  1.0000
  H   H439      1.0  0.02323  0.83315  0.19523  1.0000
  H   H440      1.0  0.44052  0.81953  0.03137  1.0000
  H   H441      1.0  0.26363  0.91385  0.06276  1.0000
  C   C256      1.0  0.20555  0.63946  0.99810  1.0000
  H   H442      1.0  0.20220  0.90151  0.14358  1.0000
  H   H443      1.0  0.06321  0.84268  0.23058  1.0000
  H   H444      1.0  0.31178  0.94223  0.23122  1.0000
  H   H445      1.0  0.33736  0.53221  0.11442  1.0000
  H   H446      1.0  0.29815  0.93389  0.18116  1.0000
  H   H447      1.0  0.18874  0.90768  0.19080  1.0000
  C   C257      1.0  0.31621  0.56070  0.12485  1.0000
  C   C258      1.0  0.34835  0.58772  0.13351  1.0000
  H   H448      1.0  0.14766  0.89403  0.15505  1.0000
  N   N15       1.0  0.04264  0.86879  0.24922  1.0000
  C   C259      1.0  0.31977  0.53733  0.10528  1.0000
  H   H449      1.0  0.05724  0.84778  0.28109  1.0000
  C   C260      1.0  0.04017  0.91763  0.26832  1.0000
  H   H450      1.0  0.48486  0.76791  0.22792  1.0000
  H   H451      1.0  0.22923  0.91734  0.09945  1.0000
  H   H452      1.0  0.29985  0.96931  0.19431  1.0000
  H   H453      1.0  0.25976  0.98876  0.19468  1.0000
  C   C261      1.0  0.49173  0.86131  0.99834  1.0000
  H   H454      1.0  0.07411  0.83938  0.17731  1.0000
  C   C262      1.0  0.12615  0.72287  0.31117  1.0000
  H   H455      1.0  0.40740  0.84902  0.03780  1.0000
  C   C263      1.0  0.45895  0.84155  0.04129  1.0000
  H   H456      1.0  0.17883  0.74473  0.28183  1.0000
  H   H457      1.0  0.36230  0.66782  0.99656  1.0000
  H   H458      1.0  0.03354  0.95733  0.27724  1.0000
  H   H459      1.0  0.06290  0.91520  0.23020  1.0000
  H   H460      1.0  0.18746  0.76857  0.31176  1.0000
  C   C264      1.0  0.30192  0.60752  0.03647  1.0000
  C   C265      1.0  0.23563  0.97807  0.25192  1.0000
  H   H461      1.0  0.48031  0.90065  0.05390  1.0000
  H   H462      1.0  0.28182  0.53406  0.06734  1.0000
  C   C266      1.0  0.25997  0.92459  0.13566  1.0000
  H   H463      1.0  0.24906  0.89895  0.14045  1.0000
  C   C267      1.0  0.39309  0.77667  0.99847  1.0000
  C   C268      1.0  0.06704  0.85708  0.17282  1.0000
  H   H464      1.0  0.30636  0.65604  0.01007  1.0000
  N   N16       1.0  0.24775  0.93976  0.15630  1.0000
  C   C269      1.0  0.13797  0.64641  0.27429  1.0000
  H   H465      1.0  0.33550  0.52248  0.05193  1.0000
  Fe  Fe31      1.0  0.46825  0.71470  0.00172  1.0000
  H   H466      1.0  0.38031  0.87607  0.02306  1.0000
  H   H467      1.0  0.14638  0.77434  0.30952  1.0000
  C   C270      1.0  0.22568  0.52841  0.07808  1.0000
  H   H468      1.0  0.30275  0.54924  0.14443  1.0000
  H   H469      1.0  0.20801  0.53170  0.09020  1.0000
  H   H470      1.0  0.44581  0.78626  0.06805  1.0000
  H   H471      1.0  0.33811  0.56264  0.00738  1.0000
  H   H472      1.0  0.32095  0.62969  0.04561  1.0000
  H   H473      1.0  0.27888  0.60239  0.04567  1.0000
  H   H474      1.0  0.30608  0.58803  0.04196  1.0000
  C   C271      1.0  0.00989  0.84046  0.25119  1.0000
  H   H475      1.0  0.29645  0.50387  0.03822  1.0000
  C   C272      1.0  0.35588  0.58347  0.99649  1.0000
  H   H476      1.0  0.34520  0.60461  0.14691  1.0000
  C   C273      1.0  0.21322  0.92660  0.15049  1.0000
  H   H477      1.0  0.24106  0.93880  0.20193  1.0000
  H   H478      1.0  0.01134  0.81889  0.25460  1.0000
  H   H479      1.0  0.30443  0.57141  0.11345  1.0000
  H   H480      1.0  0.35106  0.69695  0.99358  1.0000
  H   H481      1.0  0.09308  0.74967  0.28889  1.0000
  C   C274      1.0  0.09528  0.89550  0.27563  1.0000
  S   S64       1.0  0.20721  0.55825  0.00926  1.0000
  H   H482      1.0  0.23448  0.76332  0.26796  1.0000
  C   C275      1.0  0.10847  0.90335  0.30535  1.0000
  C   C276      1.0  0.14252  0.67913  0.27986  1.0000
  C   C277      1.0  0.48237  0.83348  0.05516  1.0000
  H   H483      1.0  0.09783  0.91514  0.31755  1.0000
  H   H484      1.0  0.44694  0.84679  0.05885  1.0000
  H   H485      1.0  0.16110  0.93554  0.15017  1.0000
  H   H486      1.0  0.29218  0.91954  0.08881  1.0000
  C   C278      1.0  0.30185  0.61033  0.00444  1.0000
  H   H487      1.0  0.25431  0.53726  0.11434  1.0000
  H   H488      1.0  0.08834  0.88077  0.17114  1.0000
  H   H489      1.0  0.08413  0.88352  0.22265  1.0000
  C   C279      1.0  0.49177  0.75764  0.17123  1.0000
  C   C280      1.0  0.48953  0.79800  0.27869  1.0000
  C   C281      1.0  0.48201  0.75821  0.14092  1.0000
  H   H490      1.0  0.99724  0.83672  0.23112  1.0000
  H   H491      1.0  0.26247  0.77015  0.29497  1.0000
  C   C282      1.0  0.20409  0.58905  0.99312  1.0000
  C   C283      1.0  0.24011  0.76951  0.29050  1.0000
  C   C284      1.0  0.99624  0.75201  0.26599  1.0000
  H   H492      1.0  0.47404  0.77556  0.13866  1.0000
  C   C285      1.0  0.09648  0.75279  0.31203  1.0000
  H   H493      1.0  0.46239  0.73457  0.13514  1.0000
  H   H494      1.0  0.11695  0.62816  0.28600  1.0000
  H   H495      1.0  0.99833  0.74622  0.28747  1.0000
  H   H496      1.0  0.24355  0.79339  0.29431  1.0000
  H   H497      1.0  0.23671  0.99327  0.16794  1.0000
  H   H498      1.0  0.48978  0.93144  0.00652  1.0000
  H   H499      1.0  0.45647  0.81605  0.09502  1.0000
  N   N17       1.0  0.15386  0.71979  0.31994  1.0000
  H   H500      1.0  0.48827  0.81905  0.27237  1.0000
  H   H501      1.0  0.16590  0.68286  0.31854  1.0000
  C   C286      1.0  0.31286  0.49997  0.05077  1.0000
  C   C287      1.0  0.29421  0.63588  0.99553  1.0000
  H   H502      1.0  0.26879  0.62632  0.00028  1.0000
  H   H503      1.0  0.99809  0.84655  0.29527  1.0000
  C   C288      1.0  0.25972  0.99541  0.17250  1.0000
  H   H504      1.0  0.30101  0.69521  0.99772  1.0000
  C   C289      1.0  0.12674  0.75362  0.32023  1.0000
  H   H505      1.0  0.10383  0.70262  0.31954  1.0000
  H   H506      1.0  0.45378  0.88715  0.98988  1.0000
  H   H507      1.0  0.38697  0.85805  0.99260  1.0000
  H   H508      1.0  0.43180  0.84600  0.99371  1.0000
  Fe  Fe32      1.0  0.25059  0.53398  0.49261  1.0000
  S   S65       1.0  0.25314  0.57762  0.51215  1.0000
  S   S66       1.0  0.27369  0.53540  0.45084  1.0000
  Fe  Fe33      1.0  0.22448  0.71348  0.47335  1.0000
  S   S67       1.0  0.25202  0.75333  0.44298  1.0000
  S   S68       1.0  0.20403  0.66284  0.45902  1.0000
  Fe  Fe34      1.0  0.28294  0.77662  0.48031  1.0000
  Fe  Fe35      1.0  0.22312  0.77400  0.45945  1.0000
  S   S69       1.0  0.19489  0.79189  0.43585  1.0000
  S   S70       1.0  0.19296  0.73199  0.48701  1.0000
  Fe  Fe36      1.0  0.46501  0.75033  0.49228  1.0000
  S   S71       1.0  0.46661  0.72493  0.45339  1.0000
  S   S72       1.0  0.41927  0.74371  0.51129  1.0000
  C   C290      1.0  0.38942  0.79735  0.47232  1.0000
  C   C291      1.0  0.40830  0.78480  0.48039  1.0000
  C   C292      1.0  0.39641  0.75965  0.49939  1.0000
  H   H509      1.0  0.39887  0.81715  0.45795  1.0000
  H   H510      1.0  0.43212  0.79489  0.47224  1.0000
  C   C293      1.0  0.41377  0.62133  0.48039  1.0000
  C   C294      1.0  0.38461  0.59265  0.47895  1.0000
  H   H511      1.0  0.41465  0.64241  0.48844  1.0000
  H   H512      1.0  0.36305  0.59157  0.48583  1.0000
  C   C295      1.0  0.24020  0.60105  0.49566  1.0000
  C   C296      1.0  0.25258  0.63234  0.50455  1.0000
  C   C297      1.0  0.24229  0.65160  0.49275  1.0000
  C   C298      1.0  0.21860  0.63947  0.47281  1.0000
  H   H513      1.0  0.27032  0.64177  0.52057  1.0000
  H   H514      1.0  0.25280  0.67592  0.49896  1.0000
  C   C299      1.0  0.20517  0.82250  0.34245  1.0000
  C   C300      1.0  0.22771  0.81684  0.35464  1.0000
  C   C301      1.0  0.22485  0.80732  0.38305  1.0000
  C   C302      1.0  0.19947  0.80358  0.39980  1.0000
  C   C303      1.0  0.17696  0.80934  0.38767  1.0000
  C   C304      1.0  0.17971  0.81866  0.35916  1.0000
  H   H515      1.0  0.17634  0.58635  0.56122  1.0000
  H   H516      1.0  0.24246  0.80316  0.39205  1.0000
  H   H517      1.0  0.15727  0.80660  0.40041  1.0000
  H   H518      1.0  0.16223  0.82298  0.35015  1.0000
  Fe  Fe37      1.0  0.29785  0.51485  0.47491  1.0000
  S   S73       1.0  0.27729  0.51607  0.51718  1.0000
  S   S74       1.0  0.34855  0.52812  0.46641  1.0000
  Fe  Fe38      1.0  0.22735  0.75744  0.52154  1.0000
  S   S75       1.0  0.25621  0.80072  0.49483  1.0000
  S   S76       1.0  0.20570  0.75008  0.56619  1.0000
  S   S77       1.0  0.33589  0.80179  0.47309  1.0000
  S   S78       1.0  0.25678  0.73555  0.50968  1.0000
  C   C305      1.0  0.18705  0.66901  0.60087  1.0000
  S   S79       1.0  0.47962  0.65627  0.47452  1.0000
  H   H519      1.0  0.47790  0.65787  0.36673  1.0000
  C   C306      1.0  0.35843  0.78453  0.48278  1.0000
  C   C307      1.0  0.36548  0.74688  0.50990  1.0000
  C   C308      1.0  0.34646  0.75901  0.50140  1.0000
  H   H520      1.0  0.35620  0.72757  0.52476  1.0000
  H   H521      1.0  0.32280  0.74915  0.50974  1.0000
  C   C309      1.0  0.38360  0.56515  0.46894  1.0000
  C   C310      1.0  0.41168  0.56653  0.46059  1.0000
  C   C311      1.0  0.44046  0.59467  0.46234  1.0000
  C   C312      1.0  0.44184  0.62222  0.47221  1.0000
  H   H522      1.0  0.41121  0.54548  0.45301  1.0000
  H   H523      1.0  0.46189  0.59497  0.45625  1.0000
  C   C313      1.0  0.20633  0.60824  0.46370  1.0000
  C   C314      1.0  0.21737  0.58915  0.47484  1.0000
  H   H524      1.0  0.18819  0.59874  0.44802  1.0000
  H   H525      1.0  0.20765  0.56506  0.46784  1.0000
  C   C315      1.0  0.19710  0.81739  0.63000  1.0000
  C   C316      1.0  0.21915  0.82952  0.60750  1.0000
  C   C317      1.0  0.22223  0.80937  0.58792  1.0000
  C   C318      1.0  0.20278  0.77671  0.59019  1.0000
  C   C319      1.0  0.18061  0.76456  0.61259  1.0000
  C   C320      1.0  0.17790  0.78469  0.63247  1.0000
  H   H526      1.0  0.29383  0.63459  0.44161  1.0000
  H   H527      1.0  0.24007  0.81911  0.57143  1.0000
  H   H528      1.0  0.16533  0.73938  0.61459  1.0000
  H   H529      1.0  0.41835  0.74595  0.39868  1.0000
  C   C321      1.0  0.17066  0.70628  0.36765  1.0000
  S   S80       1.0  0.48595  0.72885  0.51997  1.0000
  H   H530      1.0  0.09628  0.78464  0.43881  1.0000
  H   H531      1.0  0.42489  0.74746  0.43604  1.0000
  C   C322      1.0  0.14230  0.64927  0.51733  1.0000
  H   H532      1.0  0.25946  0.65487  0.42475  1.0000
  H   H533      1.0  0.13362  0.71602  0.36196  1.0000
  H   H534      1.0  0.35739  0.59459  0.39003  1.0000
  C   C323      1.0  0.12453  0.81388  0.59865  1.0000
  H   H535      1.0  0.44149  0.75841  0.59614  1.0000
  C   C324      1.0  0.46301  0.76777  0.58257  1.0000
  H   H536      1.0  0.34620  0.58072  0.42573  1.0000
  H   H537      1.0  0.17449  0.61070  0.60425  1.0000
  C   C325      1.0  0.42205  0.79501  0.57808  1.0000
  H   H538      1.0  0.23018  0.70007  0.56442  1.0000
  H   H539      1.0  0.16311  0.65228  0.60950  1.0000
  H   H540      1.0  0.39294  0.75152  0.42302  1.0000
  C   C326      1.0  0.20961  0.68385  0.62586  1.0000
  C   C327      1.0  0.40656  0.73929  0.41974  1.0000
  H   H541      1.0  0.21619  0.61550  0.55305  1.0000
  H   H542      1.0  0.32717  0.70752  0.43589  1.0000
  H   H543      1.0  0.17135  0.74961  0.35699  1.0000
  C   C328      1.0  0.45556  0.80993  0.56477  1.0000
  H   H544      1.0  0.32022  0.65718  0.41428  1.0000
  H   H545      1.0  0.14127  0.83925  0.60252  1.0000
  H   H546      1.0  0.41459  0.83465  0.57135  1.0000
  H   H547      1.0  0.36618  0.69750  0.40562  1.0000
  H   H548      1.0  0.25916  0.68323  0.60015  1.0000
  N   N18       1.0  0.15452  0.80654  0.52298  1.0000
  C   C329      1.0  0.12756  0.80443  0.50653  1.0000
  C   C330      1.0  0.15404  0.81744  0.55289  1.0000
  C   C331      1.0  0.18459  0.83100  0.50852  1.0000
  C   C332      1.0  0.15438  0.77577  0.52294  1.0000
  C   C333      1.0  0.12471  0.74705  0.53570  1.0000
  C   C334      1.0  0.12574  0.79430  0.47517  1.0000
  C   C335      1.0  0.21551  0.84107  0.52432  1.0000
  C   C336      1.0  0.12145  0.80665  0.56707  1.0000
  H   H549      1.0  0.23223  0.70406  0.61831  1.0000
  C   C337      1.0  0.12447  0.71641  0.52945  1.0000
  C   C338      1.0  0.24393  0.86618  0.50768  1.0000
  H   H550      1.0  0.12870  0.82766  0.50694  1.0000
  H   H551      1.0  0.10455  0.78780  0.51645  1.0000
  H   H552      1.0  0.16741  0.81046  0.56692  1.0000
  H   H553      1.0  0.16641  0.84366  0.55384  1.0000
  H   H554      1.0  0.18360  0.85279  0.50442  1.0000
  H   H555      1.0  0.18758  0.82240  0.48755  1.0000
  H   H556      1.0  0.15876  0.76981  0.50126  1.0000
  H   H557      1.0  0.17432  0.77796  0.53524  1.0000
  H   H558      1.0  0.10276  0.74439  0.52717  1.0000
  H   H559      1.0  0.12455  0.74950  0.55899  1.0000
  H   H560      1.0  0.14654  0.81183  0.46279  1.0000
  H   H561      1.0  0.12418  0.77105  0.47329  1.0000
  H   H562      1.0  0.21896  0.82071  0.52711  1.0000
  H   H563      1.0  0.21557  0.85106  0.54538  1.0000
  H   H564      1.0  0.11067  0.81947  0.55750  1.0000
  H   H565      1.0  0.10492  0.78116  0.56460  1.0000
  H   H566      1.0  0.49154  0.58399  0.41323  1.0000
  H   H567      1.0  0.46488  0.83576  0.56375  1.0000
  H   H568      1.0  0.10127  0.80785  0.60796  1.0000
  H   H569      1.0  0.10348  0.69638  0.53962  1.0000
  H   H570      1.0  0.12356  0.71212  0.50637  1.0000
  C   C339      1.0  0.48587  0.81889  0.60808  1.0000
  H   H571      1.0  0.24526  0.85738  0.48632  1.0000
  H   H572      1.0  0.24247  0.88789  0.50556  1.0000
  H   H573      1.0  0.26583  0.87217  0.51891  1.0000
  H   H574      1.0  0.48397  0.62704  0.39820  1.0000
  H   H575      1.0  0.21557  0.63295  0.60729  1.0000
  H   H576      1.0  0.42299  0.79846  0.60127  1.0000
  H   H577      1.0  0.32760  0.67659  0.49204  1.0000
  H   H578      1.0  0.40866  0.76935  0.57349  1.0000
  H   H579      1.0  0.18676  0.68464  0.53368  1.0000
  H   H580      1.0  0.07492  0.77329  0.47197  1.0000
  H   H581      1.0  0.18495  0.70217  0.40970  1.0000
  H   H582      1.0  0.21159  0.56564  0.56912  1.0000
  C   C340      1.0  0.34692  0.62453  0.41658  1.0000
  H   H583      1.0  0.15676  0.71534  0.40921  1.0000
  C   C341      1.0  0.30682  0.68395  0.44097  1.0000
  C   C342      1.0  0.34944  0.63518  0.44776  1.0000
  C   C343      1.0  0.35331  0.65514  0.50709  1.0000
  H   H584      1.0  0.29886  0.68449  0.46284  1.0000
  C   C344      1.0  0.33956  0.65136  0.53694  1.0000
  H   H585      1.0  0.37343  0.64203  0.45499  1.0000
  H   H586      1.0  0.33298  0.61321  0.45958  1.0000
  H   H587      1.0  0.39080  0.69462  0.46397  1.0000
  H   H588      1.0  0.37675  0.67669  0.50680  1.0000
  H   H589      1.0  0.35651  0.63468  0.50303  1.0000
  H   H590      1.0  0.45280  0.80192  0.54239  1.0000
  H   H591      1.0  0.21400  0.66654  0.63658  1.0000
  C   C345      1.0  0.40360  0.80935  0.56572  1.0000
  H   H592      1.0  0.31641  0.62930  0.53868  1.0000
  H   H593      1.0  0.35571  0.65014  0.55221  1.0000
  H   H594      1.0  0.33663  0.67173  0.54255  1.0000
  C   C346      1.0  0.17776  0.71711  0.39827  1.0000
  H   H595      1.0  0.30815  0.63496  0.48761  1.0000
  H   H596      1.0  0.14574  0.71735  0.53794  1.0000
  H   H597      1.0  0.48907  0.76351  0.61762  1.0000
  H   H598      1.0  0.48471  0.69698  0.36233  1.0000
  H   H599      1.0  0.09741  0.81447  0.46193  1.0000
  H   H600      1.0  0.99586  0.79068  0.32858  1.0000
  H   H601      1.0  0.13291  0.79966  0.60957  1.0000
  H   H602      1.0  0.15318  0.67322  0.55683  1.0000
  C   C347      1.0  0.25773  0.67898  0.57717  1.0000
  H   H603      1.0  0.00087  0.80297  0.36496  1.0000
  C   C348      1.0  0.28730  0.70583  0.56329  1.0000
  H   H604      1.0  0.24759  0.81986  0.34203  1.0000
  H   H605      1.0  0.13840  0.66707  0.50685  1.0000
  H   H606      1.0  0.45514  0.75633  0.56161  1.0000
  H   H607      1.0  0.22768  0.67012  0.54215  1.0000
  C   C349      1.0  0.35969  0.60210  0.41241  1.0000
  H   H608      1.0  0.11925  0.62970  0.52492  1.0000
  H   H609      1.0  0.32183  0.61155  0.41040  1.0000
  H   H610      1.0  0.23475  0.59707  0.59315  1.0000
  H   H611      1.0  0.19738  0.74182  0.39914  1.0000
  H   H612      1.0  0.28820  0.72868  0.56657  1.0000
  H   H613      1.0  0.30853  0.70741  0.57266  1.0000
  H   H614      1.0  0.28786  0.70150  0.54033  1.0000
  C   C350      1.0  0.17105  0.64008  0.55656  1.0000
  H   H615      1.0  0.19434  0.56814  0.60229  1.0000
  C   C351      1.0  0.21073  0.58213  0.58483  1.0000
  H   H616      1.0  0.46806  0.80316  0.62405  1.0000
  H   H617      1.0  0.40275  0.80706  0.54238  1.0000
  H   H618      1.0  0.38491  0.61382  0.41800  1.0000
  C   C352      1.0  0.45045  0.66991  0.39435  1.0000
  H   H619      1.0  0.28820  0.68107  0.39903  1.0000
  H   H620      1.0  0.18551  0.68886  0.59160  1.0000
  C   C353      1.0  0.09675  0.79154  0.46124  1.0000
  H   H621      1.0  0.27315  0.69641  0.42593  1.0000
  H   H622      1.0  0.35995  0.64462  0.40201  1.0000
  C   C354      1.0  0.16463  0.66436  0.54195  1.0000
  H   H623      1.0  0.15246  0.64002  0.50141  1.0000
  C   C355      1.0  0.33129  0.65699  0.48516  1.0000
  H   H624      1.0  0.39858  0.69232  0.41516  1.0000
  C   C356      1.0  0.19605  0.69681  0.64794  1.0000
  C   C357      1.0  0.22740  0.67610  0.56470  1.0000
  C   C358      1.0  0.19658  0.62516  0.59174  1.0000
  H   H625      1.0  0.25855  0.65710  0.57343  1.0000
  C   C359      1.0  0.31543  0.65774  0.43712  1.0000
  N   N19       1.0  0.19633  0.65292  0.57859  1.0000
  H   H626      1.0  0.17727  0.62865  0.53919  1.0000
  H   H627      1.0  0.37909  0.79683  0.57420  1.0000
  H   H628      1.0  0.43028  0.65773  0.37996  1.0000
  H   H629      1.0  0.23428  0.85473  0.60544  1.0000
  C   C360      1.0  0.19959  0.60244  0.57058  1.0000
  H   H630      1.0  0.14832  0.62135  0.56584  1.0000
  N   N20       1.0  0.34220  0.66103  0.45467  1.0000
  C   C361      1.0  0.28030  0.67865  0.42142  1.0000
  C   C362      1.0  0.37117  0.69311  0.45158  1.0000
  H   H631      1.0  0.36674  0.71132  0.46103  1.0000
  C   C363      1.0  0.38467  0.70360  0.42133  1.0000
  H   H632      1.0  0.12921  0.75732  0.34333  1.0000
  C   C364      1.0  0.46459  0.71909  0.59725  1.0000
  H   H633      1.0  0.44375  0.71080  0.61154  1.0000
  H   H634      1.0  0.19263  0.70955  0.35771  1.0000
  H   H635      1.0  0.19256  0.71545  0.63858  1.0000
  H   H636      1.0  0.07581  0.73336  0.32312  1.0000
  H   H637      1.0  0.45662  0.70862  0.57608  1.0000
  H   H638      1.0  0.22133  0.75199  0.33168  1.0000
  C   C365      1.0  0.15703  0.72413  0.35167  1.0000
  H   H639      1.0  0.15323  0.68064  0.36797  1.0000
  C   C366      1.0  0.48292  0.75506  0.59568  1.0000
  N   N21       1.0  0.47848  0.80308  0.57947  1.0000
  H   H640      1.0  0.44676  0.65385  0.41223  1.0000
  H   H641      1.0  0.31218  0.50296  0.57041  1.0000
  H   H642      1.0  0.47996  0.71063  0.60561  1.0000
  H   H643      1.0  0.45091  0.69136  0.40235  1.0000
  H   H644      1.0  0.48361  0.84033  0.60788  1.0000
  Fe  Fe39      1.0  0.49039  0.70645  0.48014  1.0000
  H   H645      1.0  0.22088  0.94399  0.65126  1.0000
  H   H646      1.0  0.16071  0.77495  0.64953  1.0000
  C   C367      1.0  0.48104  0.67893  0.37828  1.0000
  S   S81       1.0  0.19390  0.84424  0.65352  1.0000
  H   H647      1.0  0.00494  0.76984  0.35457  1.0000
  H   H648      1.0  0.12533  0.66923  0.32315  1.0000
  Fe  Fe40      1.0  0.10662  0.81223  0.73163  1.0000
  S   S82       1.0  0.14137  0.79522  0.72414  1.0000
  S   S83       1.0  0.05437  0.77337  0.72764  1.0000
  Fe  Fe41      1.0  0.16062  0.88085  0.73977  1.0000
  S   S84       1.0  0.19786  0.86798  0.73244  1.0000
  S   S85       1.0  0.16965  0.93056  0.75022  1.0000
  Fe  Fe42      1.0  0.16850  0.83788  0.69644  1.0000
  C   C368      1.0  0.23201  0.98759  0.67319  1.0000
  Fe  Fe43      1.0  0.16811  0.82623  0.76085  1.0000
  S   S86       1.0  0.19372  0.81145  0.79207  1.0000
  S   S87       1.0  0.13270  0.85353  0.70193  1.0000
  S   S88       1.0  0.13194  0.84046  0.77015  1.0000
  H   H649      1.0  0.48415  0.74938  0.89189  1.0000
  C   C369      1.0  0.19630  0.61425  0.95254  1.0000
  S   S89       1.0  0.23615  0.52540  0.94399  1.0000
  H   H650      1.0  0.46371  0.64800  0.94025  1.0000
  S   S90       1.0  0.25327  0.76080  0.94993  1.0000
  C   C370      1.0  0.19985  0.63954  0.96935  1.0000
  H   H651      1.0  0.41286  0.57785  0.87273  1.0000
  Fe  Fe44      1.0  0.22363  0.78341  0.95710  1.0000
  S   S91       1.0  0.20701  0.80795  0.92614  1.0000
  H   H652      1.0  0.09934  0.73548  0.93787  1.0000
  H   H653      1.0  0.18774  0.95012  0.65652  1.0000
  S   S92       1.0  0.47059  0.73205  0.95771  1.0000
  H   H654      1.0  0.28226  0.71802  0.94555  1.0000
  H   H655      1.0  0.23040  0.91957  0.78910  1.0000
  C   C371      1.0  0.38665  0.79482  0.95330  1.0000
  Fe  Fe45      1.0  0.27479  0.52147  0.96444  1.0000
  H   H656      1.0  0.34829  0.80416  0.95057  1.0000
  H   H657      1.0  0.39450  0.80185  0.93173  1.0000
  C   C372      1.0  0.40239  0.63753  0.96842  1.0000
  C   C373      1.0  0.37753  0.61321  0.95341  1.0000
  H   H658      1.0  0.42038  0.65810  0.95745  1.0000
  H   H659      1.0  0.37616  0.61542  0.93092  1.0000
  H   H660      1.0  0.31047  0.63905  0.90726  1.0000
  H   H661      1.0  0.34118  0.67785  0.93894  1.0000
  H   H662      1.0  0.19289  0.86289  0.92266  1.0000
  H   H663      1.0  0.24924  0.57532  0.90323  1.0000
  H   H664      1.0  0.19602  0.57000  0.95113  1.0000
  H   H665      1.0  0.19184  0.61405  0.93029  1.0000
  C   C374      1.0  0.19658  0.81036  0.82946  1.0000
  C   C375      1.0  0.22031  0.80585  0.84063  1.0000
  C   C376      1.0  0.22360  0.80463  0.87004  1.0000
  C   C377      1.0  0.20287  0.80744  0.88880  1.0000
  C   C378      1.0  0.17903  0.81183  0.87763  1.0000
  C   C379      1.0  0.17587  0.81330  0.84820  1.0000
  H   H666      1.0  0.23655  0.80365  0.82640  1.0000
  H   H667      1.0  0.24262  0.80219  0.87819  1.0000
  H   H668      1.0  0.16279  0.81398  0.89190  1.0000
  H   H669      1.0  0.15725  0.81638  0.84001  1.0000
  C   C380      1.0  0.20373  0.96884  0.74789  1.0000
  H   H670      1.0  0.23729  0.95336  0.74224  1.0000
  S   S93       1.0  0.32380  0.55613  0.94723  1.0000
  C   C381      1.0  0.01038  0.79184  0.74225  1.0000
  C   C382      1.0  0.01599  0.76910  0.72990  1.0000
  H   H671      1.0  0.29519  0.60137  0.95023  1.0000
  H   H672      1.0  0.02991  0.81339  0.75014  1.0000
  H   H673      1.0  0.10538  0.72038  0.80367  1.0000
  N   N22       1.0  0.20526  0.91080  0.84544  1.0000
  C   C383      1.0  0.17561  0.89734  0.82844  1.0000
  C   C384      1.0  0.22781  0.90147  0.83263  1.0000
  C   C385      1.0  0.19594  0.89658  0.87470  1.0000
  C   C386      1.0  0.22084  0.94610  0.84841  1.0000
  H   H674      1.0  0.45843  0.68480  0.91306  1.0000
  C   C387      1.0  0.15029  0.90505  0.83931  1.0000
  C   C388      1.0  0.22319  0.90139  0.89401  1.0000
  C   C389      1.0  0.22894  0.89912  0.80005  1.0000
  H   H675      1.0  0.25570  0.87474  0.80000  1.0000
  H   H676      1.0  0.38216  0.58582  0.88311  1.0000
  C   C390      1.0  0.12101  0.88929  0.82116  1.0000
  C   C391      1.0  0.21085  0.88832  0.92359  1.0000
  H   H677      1.0  0.16457  0.87122  0.82726  1.0000
  H   H678      1.0  0.18069  0.90538  0.80618  1.0000
  H   H679      1.0  0.25211  0.91754  0.84006  1.0000
  H   H680      1.0  0.22164  0.87752  0.83997  1.0000
  H   H681      1.0  0.17949  0.87070  0.87332  1.0000
  H   H682      1.0  0.18286  0.90620  0.88646  1.0000
  H   H683      1.0  0.20565  0.95247  0.86120  1.0000
  H   H684      1.0  0.24283  0.95541  0.86051  1.0000
  C   C392      1.0  0.46854  0.73045  0.87718  1.0000
  H   H685      1.0  0.27940  0.91711  0.79592  1.0000
  H   H686      1.0  0.14252  0.89656  0.86118  1.0000
  H   H687      1.0  0.15950  0.93081  0.83857  1.0000
  H   H688      1.0  0.24103  0.92664  0.89620  1.0000
  H   H689      1.0  0.23507  0.88883  0.88556  1.0000
  H   H690      1.0  0.20719  0.87783  0.79306  1.0000
  C   C393      1.0  0.25693  0.89583  0.79027  1.0000
  H   H691      1.0  0.25659  0.89296  0.76702  1.0000
  H   H692      1.0  0.21030  0.95652  0.80607  1.0000
  Fe  Fe46      1.0  0.46911  0.77244  0.97876  1.0000
  C   C394      1.0  0.20018  0.99545  0.75067  1.0000
  C   C395      1.0  0.28494  0.61678  0.94701  1.0000
  H   H693      1.0  0.48642  0.65460  0.98854  1.0000
  H   H694      1.0  0.10355  0.89565  0.82909  1.0000
  H   H695      1.0  0.12703  0.89728  0.79891  1.0000
  H   H696      1.0  0.11002  0.86327  0.82200  1.0000
  C   C396      1.0  0.33622  0.66270  0.95788  1.0000
  H   H697      1.0  0.23049  0.89081  0.93661  1.0000
  H   H698      1.0  0.20037  0.90128  0.93405  1.0000
  H   H699      1.0  0.17324  0.67776  0.65656  1.0000
  C   C397      1.0  0.27446  0.59175  0.89822  1.0000
  H   H700      1.0  0.27689  0.59678  0.87524  1.0000
  H   H701      1.0  0.42612  0.61195  0.91513  1.0000
  H   H702      1.0  0.07504  0.61378  0.90258  1.0000
  C   C398      1.0  0.47977  0.70681  0.87280  1.0000
  C   C399      1.0  0.23020  0.96543  0.82072  1.0000
  C   C400      1.0  0.48076  0.69215  0.90118  1.0000
  H   H703      1.0  0.46975  0.61909  0.88250  1.0000
  H   H704      1.0  0.27069  0.63185  0.90921  1.0000
  H   H705      1.0  0.10597  0.70538  0.85355  1.0000
  S   S94       1.0  0.18465  0.74071  0.97888  1.0000
  H   H706      1.0  0.26201  0.65331  0.96243  1.0000
  H   H707      1.0  0.25975  0.60237  0.95358  1.0000
  H   H708      1.0  0.24486  0.71588  0.89940  1.0000
  H   H709      1.0  0.26669  0.75104  0.87842  1.0000
  H   H710      1.0  0.11489  0.68303  0.82884  1.0000
  H   H711      1.0  0.14638  0.73236  0.79946  1.0000
  H   H712      1.0  0.29141  0.67344  0.93596  1.0000
  H   H713      1.0  0.09582  0.59815  0.92107  1.0000
  S   S95       1.0  0.43928  0.78951  0.95746  1.0000
  H   H714      1.0  0.40078  0.69352  0.95631  1.0000
  C   C401      1.0  0.09692  0.61248  0.90262  1.0000
  C   C402      1.0  0.36034  0.79601  0.96389  1.0000
  H   H715      1.0  0.21961  0.99492  0.68850  1.0000
  C   C403      1.0  0.40358  0.78583  0.97066  1.0000
  H   H716      1.0  0.14156  0.75688  0.93958  1.0000
  H   H717      1.0  0.28837  0.58033  0.90325  1.0000
  H   H718      1.0  0.01657  0.70645  0.80518  1.0000
  C   C404      1.0  0.28292  0.71443  0.96855  1.0000
  C   C405      1.0  0.19872  0.58927  0.96428  1.0000
  H   H719      1.0  0.02289  0.73821  0.78196  1.0000
  H   H720      1.0  0.25024  0.96484  0.81026  1.0000
  H   H721      1.0  0.03699  0.74660  0.81747  1.0000
  C   C406      1.0  0.01756  0.72949  0.80406  1.0000
  C   C407      1.0  0.23408  0.97351  0.74427  1.0000
  H   H722      1.0  0.29382  0.73760  0.97911  1.0000
  Fe  Fe47      1.0  0.21530  0.71909  0.97406  1.0000
  C   C408      1.0  0.28616  0.62236  0.91470  1.0000
  H   H723      1.0  0.38949  0.72307  0.95468  1.0000
  H   H724      1.0  0.24521  0.71328  0.86130  1.0000
  H   H725      1.0  0.21266  0.70741  0.66560  1.0000
  H   H726      1.0  0.25254  0.98867  0.68348  1.0000
  H   H727      1.0  0.42125  0.64041  0.89534  1.0000
  C   C409      1.0  0.35412  0.58617  0.96733  1.0000
  S   S96       1.0  0.19723  0.67078  0.95360  1.0000
  N   N23       1.0  0.48776  0.66563  0.89986  1.0000
  H   H728      1.0  0.13426  0.75285  0.82386  1.0000
  H   H729      1.0  0.40719  0.60608  0.85313  1.0000
  N   N24       1.0  0.15496  0.69995  0.87967  1.0000
  C   C410      1.0  0.12855  0.66608  0.87908  1.0000
  C   C411      1.0  0.15587  0.71690  0.85280  1.0000
  C   C412      1.0  0.18535  0.69948  0.88125  1.0000
  C   C413      1.0  0.15256  0.71716  0.90524  1.0000
  C   C414      1.0  0.12236  0.71933  0.90820  1.0000
  C   C415      1.0  0.12577  0.64540  0.90481  1.0000
  C   C416      1.0  0.21619  0.73171  0.87840  1.0000
  C   C417      1.0  0.12403  0.70668  0.83848  1.0000
  C   C418      1.0  0.12787  0.72947  0.81495  1.0000
  C   C419      1.0  0.12063  0.73315  0.93671  1.0000
  H   H730      1.0  0.11920  0.71753  0.95416  1.0000
  C   C420      1.0  0.24493  0.72760  0.87943  1.0000
  H   H731      1.0  0.13111  0.65430  0.85984  1.0000
  H   H732      1.0  0.10538  0.66444  0.87722  1.0000
  H   H733      1.0  0.16792  0.74279  0.85647  1.0000
  H   H734      1.0  0.17025  0.71359  0.83613  1.0000
  H   H735      1.0  0.18614  0.68361  0.86472  1.0000
  H   H736      1.0  0.18685  0.68973  0.90177  1.0000
  H   H737      1.0  0.15562  0.70690  0.92490  1.0000
  H   H738      1.0  0.17224  0.74189  0.90524  1.0000
  H   H739      1.0  0.10083  0.69596  0.90659  1.0000
  H   H740      1.0  0.12246  0.73527  0.89172  1.0000
  H   H741      1.0  0.14653  0.64229  0.90599  1.0000
  H   H742      1.0  0.12342  0.65584  0.92488  1.0000
  H   H743      1.0  0.21809  0.74750  0.89599  1.0000
  H   H744      1.0  0.21751  0.74353  0.85820  1.0000
  H   H745      1.0  0.09836  0.60053  0.88314  1.0000
  C   C421      1.0  0.28789  0.66667  0.95857  1.0000
  C   C422      1.0  0.42899  0.62280  0.89406  1.0000
  C   C423      1.0  0.20948  0.95305  0.66603  1.0000
  C   C424      1.0  0.40657  0.59657  0.87444  1.0000
  N   N25       1.0  0.30151  0.64602  0.96506  1.0000
  C   C425      1.0  0.30167  0.69829  0.97457  1.0000
  H   H746      1.0  0.46904  0.74150  0.85670  1.0000
  H   H747      1.0  0.20264  0.93865  0.68563  1.0000
  C   C426      1.0  0.46354  0.63799  0.88316  1.0000
  H   H748      1.0  0.46365  0.68878  0.85779  1.0000
  H   H749      1.0  0.32623  0.71451  0.96730  1.0000
  H   H750      1.0  0.25867  0.70018  0.97713  1.0000
  H   H751      1.0  0.44410  0.71856  0.88586  1.0000
  H   H752      1.0  0.99394  0.72337  0.71023  1.0000
  C   C427      1.0  0.48650  0.65426  0.92966  1.0000
  H   H753      1.0  0.46356  0.64451  0.86085  1.0000
  H   H754      1.0  0.17688  0.99218  0.75373  1.0000
  H   H755      1.0  0.34364  0.64552  0.95148  1.0000
  H   H756      1.0  0.47131  0.86119  0.95749  1.0000
  H   H757      1.0  0.48793  0.63232  0.92933  1.0000
  Fe  Fe48      1.0  0.21728  0.52237  0.98787  1.0000
  C   C428      1.0  0.39130  0.70615  0.96874  1.0000
  H   H758      1.0  0.40774  0.71946  0.98588  1.0000
  C   C429      1.0  0.35916  0.68304  0.98137  1.0000
  Fe  Fe49      1.0  0.88456  0.19701  0.23335  1.0000
  S   S97       1.0  0.84978  0.21255  0.24582  1.0000
  S   S98       1.0  0.93515  0.23925  0.22742  1.0000
  Fe  Fe50      1.0  0.83057  0.12774  0.22820  1.0000
  S   S99       1.0  0.79335  0.13976  0.23950  1.0000
  S   S100      1.0  0.82168  0.07822  0.21703  1.0000
  Fe  Fe51      1.0  0.82009  0.18165  0.21053  1.0000
  S   S101      1.0  0.79604  0.20131  0.18299  1.0000
  Fe  Fe52      1.0  0.82594  0.17001  0.27383  1.0000
  S   S102      1.0  0.85542  0.16789  0.19679  1.0000
  S   S103      1.0  0.86237  0.15595  0.26393  1.0000
  H   H759      1.0  0.77997  0.45078  0.05761  1.0000
  C   C430      1.0  0.93044  0.35174  0.18152  1.0000
  H   H760      1.0  0.85710  0.31942  0.09644  1.0000
  S   S104      1.0  0.72705  0.24977  0.03674  1.0000
  S   S105      1.0  0.75553  0.33691  0.02518  1.0000
  Fe  Fe53      1.0  0.76384  0.23783  0.02303  1.0000
  S   S106      1.0  0.78818  0.21756  0.04985  1.0000
  C   C431      1.0  0.76167  0.11114  0.06656  1.0000
  H   H761      1.0  0.88867  0.31313  0.22642  1.0000
  H   H762      1.0  0.58339  0.17860  0.08712  1.0000
  H   H763      1.0  0.82099  0.25684  0.22875  1.0000
  H   H764      1.0  0.61148  0.30908  0.05702  1.0000
  H   H765      1.0  0.78008  0.12712  0.18086  1.0000
  H   H766      1.0  0.84547  0.46546  0.08582  1.0000
  H   H767      1.0  0.72614  0.47414  0.08901  1.0000
  C   C432      1.0  0.75305  0.39051  0.01593  1.0000
  H   H768      1.0  0.75061  0.43260  0.00929  1.0000
  H   H769      1.0  0.74061  0.38518  0.03601  1.0000
  H   H770      1.0  0.60225  0.40191  0.02475  1.0000
  H   H771      1.0  0.78083  0.10960  0.05524  1.0000
  H   H772      1.0  0.97099  0.23156  0.12893  1.0000
  H   H773      1.0  0.50346  0.24062  0.10157  1.0000
  C   C433      1.0  0.51368  0.22532  0.10595  1.0000
  C   C434      1.0  0.90313  0.22455  0.14333  1.0000
  H   H774      1.0  0.92736  0.30872  0.19786  1.0000
  C   C435      1.0  0.79331  0.20446  0.14584  1.0000
  C   C436      1.0  0.80832  0.19469  0.12629  1.0000
  C   C437      1.0  0.80623  0.19865  0.09708  1.0000
  C   C438      1.0  0.78905  0.21228  0.08695  1.0000
  C   C439      1.0  0.77385  0.22180  0.10653  1.0000
  C   C440      1.0  0.77599  0.21790  0.13572  1.0000
  H   H775      1.0  0.82172  0.18436  0.13367  1.0000
  H   H776      1.0  0.81820  0.19132  0.08216  1.0000
  H   H777      1.0  0.76060  0.23236  0.09915  1.0000
  H   H778      1.0  0.76425  0.22555  0.15059  1.0000
  C   C441      1.0  0.78797  0.03980  0.22067  1.0000
  C   C442      1.0  0.75792  0.03493  0.22687  1.0000
  C   C443      1.0  0.60570  0.40013  0.00236  1.0000
  C   C444      1.0  0.92316  0.31734  0.17765  1.0000
  C   C445      1.0  0.79139  0.01331  0.21609  1.0000
  H   H779      1.0  0.75482  0.05497  0.23054  1.0000
  H   H780      1.0  0.81446  0.01671  0.21114  1.0000
  C   C446      1.0  0.82627  0.43966  0.04726  1.0000
  C   C447      1.0  0.78432  0.05697  0.30546  1.0000
  H   H781      1.0  0.93374  0.27428  0.14620  1.0000
  H   H782      1.0  0.96067  0.19644  0.22013  1.0000
  Fe  Fe54      1.0  0.70109  0.22470  0.99776  1.0000
  H   H783      1.0  0.66621  0.36423  0.05140  1.0000
  H   H784      1.0  0.80524  0.42204  0.05941  1.0000
  H   H785      1.0  0.57803  0.30164  0.03670  1.0000
  C   C448      1.0  0.53709  0.24042  0.05896  1.0000
  H   H786      1.0  0.90778  0.31036  0.12414  1.0000
  H   H787      1.0  0.59567  0.27714  0.03207  1.0000
  H   H788      1.0  0.72973  0.44767  0.06481  1.0000
  C   C449      1.0  0.67009  0.37710  0.03125  1.0000
  C   C450      1.0  0.96078  0.37123  0.19776  1.0000
  H   H789      1.0  0.87787  0.20704  0.14067  1.0000
  H   H790      1.0  0.58110  0.25988  0.08311  1.0000
  H   H791      1.0  0.69359  0.39876  0.03168  1.0000
  H   H792      1.0  0.52088  0.17099  0.09040  1.0000
  H   H793      1.0  0.94169  0.31882  0.16294  1.0000
  C   C451      1.0  0.76303  0.37022  0.00510  1.0000
  H   H794      1.0  0.81832  0.44272  0.02647  1.0000
  H   H795      1.0  0.91662  0.22139  0.12586  1.0000
  H   H796      1.0  0.73358  0.22061  0.30704  1.0000
  H   H797      1.0  0.95836  0.36153  0.21934  1.0000
  C   C452      1.0  0.88743  0.30539  0.13823  1.0000
  C   C453      1.0  0.73920  0.46158  0.08439  1.0000
  H   H798      1.0  0.87556  0.29908  0.08021  1.0000
  H   H799      1.0  0.54900  0.19056  0.03972  1.0000
  H   H800      1.0  0.93365  0.36310  0.16062  1.0000
  C   C454      1.0  0.85666  0.28290  0.12270  1.0000
  H   H801      1.0  0.54274  0.23312  0.03851  1.0000
  N   N26       1.0  0.89093  0.29442  0.16681  1.0000
  H   H802      1.0  0.80587  0.25884  0.30707  1.0000
  H   H803      1.0  0.87759  0.27278  0.22224  1.0000
  H   H804      1.0  0.73828  0.13875  0.19297  1.0000
  H   H805      1.0  0.76255  0.13120  0.15001  1.0000
  H   H806      1.0  0.56180  0.28252  0.08536  1.0000
  S   S107      1.0  0.52808  0.26926  0.99549  1.0000
  H   H807      1.0  0.78299  0.04812  0.16225  1.0000
  H   H808      1.0  0.78221  0.22763  0.28299  1.0000
  H   H809      1.0  0.98088  0.37133  0.18658  1.0000
  H   H810      1.0  0.72131  0.01768  0.12849  1.0000
  C   C455      1.0  0.77037  0.04765  0.14282  1.0000
  N   N27       1.0  0.77262  0.07920  0.13837  1.0000
  C   C456      1.0  0.80621  0.10440  0.14358  1.0000
  C   C457      1.0  0.75083  0.08206  0.15960  1.0000
  H   H811      1.0  0.78236  0.04246  0.12521  1.0000
  C   C458      1.0  0.76296  0.07999  0.10851  1.0000
  C   C459      1.0  0.76551  0.11109  0.09845  1.0000
  C   C460      1.0  0.83158  0.10358  0.12425  1.0000
  H   H812      1.0  0.96591  0.39591  0.19964  1.0000
  C   C461      1.0  0.75845  0.11570  0.16819  1.0000
  C   C462      1.0  0.88763  0.26217  0.16524  1.0000
  H   H813      1.0  0.72753  0.10006  0.20544  1.0000
  C   C463      1.0  0.86447  0.13003  0.13173  1.0000
  C   C464      1.0  0.76742  0.99919  0.29875  1.0000
  H   H814      1.0  0.81220  0.10289  0.16583  1.0000
  H   H815      1.0  0.80952  0.12833  0.14163  1.0000
  H   H816      1.0  0.72615  0.06886  0.15218  1.0000
  H   H817      1.0  0.75097  0.07089  0.17994  1.0000
  C   C465      1.0  0.53749  0.19598  0.08453  1.0000
  H   H818      1.0  0.73521  0.44532  0.10214  1.0000
  H   H819      1.0  0.77659  0.07381  0.09339  1.0000
  H   H820      1.0  0.73807  0.06150  0.10541  1.0000
  H   H821      1.0  0.78853  0.13182  0.10338  1.0000
  H   H822      1.0  0.74636  0.11377  0.10829  1.0000
  H   H823      1.0  0.83152  0.08113  0.12666  1.0000
  H   H824      1.0  0.82770  0.10663  0.10182  1.0000
  H   H825      1.0  0.65183  0.38394  0.02955  1.0000
  C   C466      1.0  0.66815  0.35606  0.00652  1.0000
  H   H826      1.0  0.70865  0.00065  0.23284  1.0000
  C   C467      1.0  0.75596  0.23167  0.31855  1.0000
  S   S108      1.0  0.65717  0.45950  0.00698  1.0000
  N   N28       1.0  0.51946  0.21274  0.07863  1.0000
  C   C468      1.0  0.73175  0.00405  0.22816  1.0000
  H   H827      1.0  0.49828  0.19506  0.02118  1.0000
  H   H828      1.0  0.52180  0.25014  0.05339  1.0000
  H   H829      1.0  0.86632  0.15333  0.12913  1.0000
  H   H830      1.0  0.86987  0.12741  0.15385  1.0000
  H   H831      1.0  0.88220  0.12905  0.11759  1.0000
  H   H832      1.0  0.55250  0.20624  0.10334  1.0000
  H   H833      1.0  0.73857  0.09114  0.06021  1.0000
  N   N29       1.0  0.82698  0.49046  0.06318  1.0000
  C   C469      1.0  0.55994  0.19636  0.06066  1.0000
  H   H834      1.0  0.58120  0.22004  0.05876  1.0000
  H   H835      1.0  0.83420  0.40273  0.03141  1.0000
  H   H836      1.0  0.58778  0.17475  0.04972  1.0000
  C   C470      1.0  0.98006  0.22004  0.22344  1.0000
  H   H837      1.0  0.80560  0.48473  0.02215  1.0000
  C   C471      1.0  0.87014  0.29013  0.21821  1.0000
  H   H838      1.0  0.78025  0.26332  0.28312  1.0000
  C   C472      1.0  0.98745  0.24853  0.14450  1.0000
  C   C473      1.0  0.84315  0.47128  0.06366  1.0000
  C   C474      1.0  0.73181  0.11456  0.18624  1.0000
  H   H839      1.0  0.85399  0.48906  0.00580  1.0000
  C   C475      1.0  0.57109  0.17311  0.06669  1.0000
  C   C476      1.0  0.97401  0.24469  0.22810  1.0000
  C   C477      1.0  0.78274  0.24639  0.29663  1.0000
  H   H840      1.0  0.55088  0.14861  0.06715  1.0000
  C   C478      1.0  0.86535  0.29249  0.18629  1.0000
  Fe  Fe55      1.0  0.75259  0.29203  0.00789  1.0000
  H   H841      1.0  0.91117  0.22019  0.16364  1.0000
  H   H842      1.0  0.86276  0.24374  0.16154  1.0000
  H   H843      1.0  0.53626  0.24065  0.11672  1.0000
  H   H844      1.0  0.76287  0.13345  0.06020  1.0000
  C   C479      1.0  0.90843  0.25792  0.14260  1.0000
  H   H845      1.0  0.88796  0.32823  0.14015  1.0000
  C   C480      1.0  0.58946  0.29026  0.04763  1.0000
  H   H846      1.0  0.90287  0.26198  0.12106  1.0000
  C   C481      1.0  0.84756  0.42574  0.04237  1.0000
  H   H847      1.0  0.83580  0.27937  0.13513  1.0000
  C   C482      1.0  0.85581  0.29631  0.09399  1.0000
  C   C483      1.0  0.83998  0.28053  0.23531  1.0000
  H   H848      1.0  0.70988  0.10468  0.17398  1.0000
  C   C484      1.0  0.75945  0.02301  0.31282  1.0000
  H   H849      1.0  0.86198  0.31304  0.18337  1.0000
  H   H850      1.0  0.89327  0.25572  0.18588  1.0000
  H   H851      1.0  0.85448  0.25963  0.11898  1.0000
  H   H852      1.0  0.84435  0.27943  0.25804  1.0000
  H   H853      1.0  0.91134  0.35302  0.19308  1.0000
  H   H854      1.0  0.84227  0.27168  0.18079  1.0000
  H   H855      1.0  0.83346  0.27998  0.08342  1.0000
  H   H856      1.0  0.83213  0.29789  0.23243  1.0000
  H   H857      1.0  0.85572  0.42177  0.06277  1.0000
  H   H858      1.0  0.86819  0.44165  0.02890  1.0000
  C   C485      1.0  0.56778  0.26830  0.07090  1.0000
  C   C486      1.0  0.75884  0.41752  0.00089  1.0000
  C   C487      1.0  0.77424  0.48556  0.08079  1.0000
  H   H859      1.0  0.73664  0.01920  0.30510  1.0000
  H   H860      1.0  0.80756  0.06285  0.31384  1.0000
  H   H861      1.0  0.68565  0.34859  0.00998  1.0000
  H   H862      1.0  0.76498  0.00057  0.27565  1.0000
  C   C488      1.0  0.73664  0.01861  0.14567  1.0000
  C   C489      1.0  0.79349  0.46925  0.07357  1.0000
  S   S109      1.0  0.80247  0.16361  0.31764  1.0000
  H   H863      1.0  0.78658  0.06058  0.28225  1.0000
  H   H864      1.0  0.79307  0.45635  0.09295  1.0000
  H   H865      1.0  0.86765  0.48488  0.05545  1.0000
  S   S110      1.0  0.74523  0.48858  0.01293  1.0000
  H   H866      1.0  0.49912  0.16228  0.03757  1.0000
  H   H867      1.0  0.77749  0.07348  0.31490  1.0000
  H   H868      1.0  0.64436  0.33487  0.00729  1.0000
  Fe  Fe56      1.0  0.70701  0.49173  0.99106  1.0000
  C   C490      1.0  0.61574  0.22029  0.99053  1.0000
  S   S111      1.0  0.79143  0.28196  0.99646  1.0000
  H   H869      1.0  0.56460  0.35370  0.99866  1.0000
  H   H870      1.0  0.79293  0.00849  0.30204  1.0000
  H   H871      1.0  0.51575  0.22719  0.16527  1.0000
  S   S112      1.0  0.64926  0.18801  0.99542  1.0000
  H   H872      1.0  0.72552  0.01925  0.16608  1.0000
  H   H873      1.0  0.63665  0.24150  0.99707  1.0000
  H   H874      1.0  0.97609  0.26050  0.15526  1.0000
  H   H875      1.0  0.49856  0.18244  0.13133  1.0000
  H   H876      1.0  0.99223  0.23512  0.16047  1.0000
  C   C491      1.0  0.88418  0.22610  0.62490  1.0000
  Fe  Fe57      1.0  0.51696  0.23822  0.49160  1.0000
  S   S113      1.0  0.54730  0.22182  0.51355  1.0000
  Fe  Fe58      1.0  0.52149  0.29758  0.46760  1.0000
  S   S114      1.0  0.55615  0.34471  0.44722  1.0000
  S   S115      1.0  0.51787  0.25433  0.44700  1.0000
  Fe  Fe59      1.0  0.77880  0.25173  0.45566  1.0000
  S   S116      1.0  0.80563  0.25784  0.41371  1.0000
  S   S117      1.0  0.74934  0.27495  0.45869  1.0000
  S   S118      1.0  0.66445  0.46245  0.51197  1.0000
  C   C492      1.0  0.78079  0.39406  0.45557  1.0000
  H   H877      1.0  0.78188  0.35073  0.45928  1.0000
  H   H878      1.0  0.78080  0.39367  0.43277  1.0000
  C   C493      1.0  0.58697  0.37618  0.46585  1.0000
  C   C494      1.0  0.61239  0.40027  0.45061  1.0000
  C   C495      1.0  0.63657  0.42646  0.46453  1.0000
  C   C496      1.0  0.63536  0.42901  0.49386  1.0000
  C   C497      1.0  0.60999  0.40488  0.50911  1.0000
  C   C498      1.0  0.58611  0.37838  0.49524  1.0000
  H   H879      1.0  0.61318  0.39873  0.42789  1.0000
  H   H880      1.0  0.65568  0.44512  0.45257  1.0000
  C   C499      1.0  0.58139  0.22244  0.49950  1.0000
  C   C500      1.0  0.58412  0.21649  0.47100  1.0000
  C   C501      1.0  0.60973  0.21342  0.46130  1.0000
  H   H881      1.0  0.56580  0.21290  0.45666  1.0000
  H   H882      1.0  0.61093  0.20758  0.43944  1.0000
  C   C502      1.0  0.80492  0.19031  0.34459  1.0000
  C   C503      1.0  0.78650  0.17818  0.36941  1.0000
  C   C504      1.0  0.78706  0.19832  0.39112  1.0000
  C   C505      1.0  0.80580  0.23101  0.38817  1.0000
  C   C506      1.0  0.82446  0.24312  0.36350  1.0000
  C   C507      1.0  0.82412  0.22296  0.34189  1.0000
  H   H883      1.0  0.77171  0.15297  0.37185  1.0000
  H   H884      1.0  0.77280  0.18858  0.41002  1.0000
  H   H885      1.0  0.83925  0.26832  0.36102  1.0000
  H   H886      1.0  0.82470  0.08384  0.63855  1.0000
  S   S119      1.0  0.52294  0.28250  0.51164  1.0000
  S   S120      1.0  0.74164  0.20714  0.47636  1.0000
  Fe  Fe60      1.0  0.77040  0.29258  0.50102  1.0000
  S   S121      1.0  0.73308  0.25038  0.52495  1.0000
  S   S122      1.0  0.78235  0.34002  0.51971  1.0000
  Fe  Fe61      1.0  0.76429  0.22974  0.51777  1.0000
  S   S123      1.0  0.77427  0.20055  0.54906  1.0000
  Fe  Fe62      1.0  0.71365  0.23179  0.48212  1.0000
  S   S124      1.0  0.66315  0.20945  0.46709  1.0000
  S   S125      1.0  0.80324  0.27326  0.49666  1.0000
  S   S126      1.0  0.77860  0.44856  0.45031  1.0000
  C   C508      1.0  0.78169  0.37015  0.50000  1.0000
  C   C509      1.0  0.78132  0.36966  0.47051  1.0000
  C   C510      1.0  0.78026  0.41893  0.46994  1.0000
  C   C511      1.0  0.78048  0.41933  0.49943  1.0000
  C   C512      1.0  0.78139  0.39515  0.51435  1.0000
  H   H887      1.0  0.78038  0.43848  0.51073  1.0000
  H   H888      1.0  0.78190  0.39582  0.53714  1.0000
  H   H889      1.0  0.60875  0.40666  0.53178  1.0000
  H   H890      1.0  0.56657  0.36011  0.50720  1.0000
  C   C513      1.0  0.63335  0.21708  0.47975  1.0000
  C   C514      1.0  0.63126  0.22426  0.50805  1.0000
  C   C515      1.0  0.60522  0.22652  0.51791  1.0000
  H   H891      1.0  0.64908  0.22694  0.52254  1.0000
  H   H892      1.0  0.60326  0.23093  0.54002  1.0000
  H   H893      1.0  0.68231  0.28326  0.47905  1.0000
  C   C516      1.0  0.77026  0.21731  0.63351  1.0000
  C   C517      1.0  0.76895  0.21900  0.60388  1.0000
  C   C518      1.0  0.77715  0.20101  0.58649  1.0000
  C   C519      1.0  0.78714  0.18179  0.59915  1.0000
  H   H894      1.0  0.58472  0.28882  0.49872  1.0000
  H   H895      1.0  0.59863  0.39864  0.37423  1.0000
  H   H896      1.0  0.76142  0.23406  0.59456  1.0000
  H   H897      1.0  0.79348  0.16771  0.58594  1.0000
  C   C520      1.0  0.69093  0.37842  0.52214  1.0000
  N   N30       1.0  0.87507  0.27110  0.64179  1.0000
  Fe  Fe63      1.0  0.76949  0.48532  0.47075  1.0000
  H   H898      1.0  0.86666  0.21607  0.60782  1.0000
  H   H899      1.0  0.69793  0.28027  0.51213  1.0000
  H   H900      1.0  0.58329  0.04225  0.58254  1.0000
  H   H901      1.0  0.71562  0.15489  0.61448  1.0000
  H   H902      1.0  0.54162  0.21723  0.57855  1.0000
  H   H903      1.0  0.71614  0.11184  0.63879  1.0000
  C   C521      1.0  0.67812  0.39965  0.53313  1.0000
  C   C522      1.0  0.51358  0.27295  0.60560  1.0000
  H   H904      1.0  0.68923  0.42204  0.52115  1.0000
  H   H905      1.0  0.50728  0.18512  0.62327  1.0000
  C   C523      1.0  0.67785  0.37863  0.44175  1.0000
  C   C524      1.0  0.76669  0.47931  0.37523  1.0000
  H   H906      1.0  0.58562  0.31218  0.46906  1.0000
  H   H907      1.0  0.69439  0.08448  0.61111  1.0000
  N   N31       1.0  0.67913  0.36312  0.49378  1.0000
  H   H908      1.0  0.63523  0.12924  0.59502  1.0000
  H   H909      1.0  0.89793  0.19088  0.61869  1.0000
  H   H910      1.0  0.67580  0.42297  0.57120  1.0000
  C   C525      1.0  0.67276  0.23487  0.36075  1.0000
  H   H911      1.0  0.67572  0.15640  0.39480  1.0000
  C   C526      1.0  0.71507  0.47789  0.36688  1.0000
  H   H912      1.0  0.67128  0.48056  0.57186  1.0000
  H   H913      1.0  0.71419  0.40527  0.47234  1.0000
  H   H914      1.0  0.68479  0.36020  0.53865  1.0000
  C   C527      1.0  0.69200  0.40674  0.42166  1.0000
  C   C528      1.0  0.69604  0.34558  0.48632  1.0000
  H   H915      1.0  0.75799  0.02055  0.33612  1.0000
  H   H916      1.0  0.68470  0.17398  0.60100  1.0000
  C   C529      1.0  0.64437  0.44129  0.37348  1.0000
  H   H917      1.0  0.90679  0.24457  0.61553  1.0000
  C   C530      1.0  0.53089  0.30127  0.58591  1.0000
  H   H918      1.0  0.77052  0.31428  0.35879  1.0000
  H   H919      1.0  0.86595  0.17984  0.64359  1.0000
  C   C531      1.0  0.90884  0.29767  0.63977  1.0000
  H   H920      1.0  0.52141  0.22210  0.63963  1.0000
  H   H921      1.0  0.79639  0.16537  0.63809  1.0000
  H   H922      1.0  0.69631  0.22538  0.32718  1.0000
  C   C532      1.0  0.71157  0.10951  0.61580  1.0000
  H   H923      1.0  0.57441  0.22347  0.63468  1.0000
  H   H924      1.0  0.65227  0.38788  0.53106  1.0000
  N   N32       1.0  0.67386  0.14287  0.56503  1.0000
  C   C533      1.0  0.69469  0.13060  0.57490  1.0000
  C   C534      1.0  0.67739  0.14689  0.53337  1.0000
  C   C535      1.0  0.68596  0.17526  0.57759  1.0000
  C   C536      1.0  0.63979  0.12207  0.57389  1.0000
  C   C537      1.0  0.62726  0.08613  0.57626  1.0000
  H   H925      1.0  0.97226  0.20039  0.63681  1.0000
  C   C538      1.0  0.66595  0.11659  0.51567  1.0000
  C   C539      1.0  0.67411  0.12441  0.48443  1.0000
  H   H926      1.0  0.50021  0.17387  0.56639  1.0000
  H   H927      1.0  0.71873  0.14477  0.56551  1.0000
  H   H928      1.0  0.68650  0.10643  0.56710  1.0000
  H   H929      1.0  0.66391  0.15772  0.52543  1.0000
  H   H930      1.0  0.70251  0.16353  0.52750  1.0000
  H   H931      1.0  0.71130  0.19080  0.57187  1.0000
  S   S127      1.0  0.75089  0.48275  0.51468  1.0000
  H   H932      1.0  0.63329  0.07659  0.55750  1.0000
  C   C540      1.0  0.61153  0.44867  0.58671  1.0000
  H   H933      1.0  0.67681  0.10272  0.52230  1.0000
  H   H934      1.0  0.63997  0.10190  0.51741  1.0000
  H   H935      1.0  0.66392  0.10234  0.47194  1.0000
  H   H936      1.0  0.66440  0.13901  0.47669  1.0000
  H   H937      1.0  0.70000  0.13726  0.48099  1.0000
  H   H938      1.0  0.71712  0.39296  0.52169  1.0000
  C   C541      1.0  0.64384  0.34183  0.49556  1.0000
  H   H939      1.0  0.68367  0.39860  0.39997  1.0000
  H   H940      1.0  0.54148  0.32334  0.59842  1.0000
  H   H941      1.0  0.67516  0.38659  0.57743  1.0000
  H   H942      1.0  0.71261  0.46491  0.34682  1.0000
  H   H943      1.0  0.63564  0.29499  0.48272  1.0000
  H   H944      1.0  0.63740  0.08103  0.59478  1.0000
  C   C542      1.0  0.75005  0.30473  0.37360  1.0000
  H   H945      1.0  0.67330  0.20031  0.54687  1.0000
  H   H946      1.0  0.72362  0.30849  0.48607  1.0000
  H   H947      1.0  0.66745  0.23543  0.57951  1.0000
  H   H948      1.0  0.73406  0.11649  0.60436  1.0000
  H   H949      1.0  0.90586  0.20832  0.65334  1.0000
  H   H950      1.0  0.49512  0.27557  0.61711  1.0000
  C   C543      1.0  0.66838  0.19277  0.56923  1.0000
  H   H951      1.0  0.66970  0.30908  0.51905  1.0000
  H   H952      1.0  0.59076  0.22687  0.59963  1.0000
  H   H953      1.0  0.64934  0.48223  0.35285  1.0000
  H   H954      1.0  0.58002  0.07079  0.56151  1.0000
  H   H955      1.0  0.68537  0.36218  0.43378  1.0000
  H   H956      1.0  0.71058  0.26585  0.33199  1.0000
  H   H957      1.0  0.58374  0.27506  0.46318  1.0000
  H   H958      1.0  0.73986  0.31934  0.41423  1.0000
  H   H959      1.0  0.61478  0.41204  0.33929  1.0000
  H   H960      1.0  0.51466  0.24333  0.57190  1.0000
  C   C544      1.0  0.63580  0.47934  0.60062  1.0000
  H   H961      1.0  0.74968  0.47486  0.61457  1.0000
  H   H962      1.0  0.64257  0.17769  0.57220  1.0000
  C   C545      1.0  0.88877  0.19965  0.63593  1.0000
  H   H963      1.0  0.71551  0.47703  0.57833  1.0000
  C   C546      1.0  0.69865  0.13069  0.60732  1.0000
  C   C547      1.0  0.68822  0.38908  0.47245  1.0000
  H   H964      1.0  0.71161  0.42154  0.56697  1.0000
  Fe  Fe64      1.0  0.71463  0.49087  0.49469  1.0000
  C   C548      1.0  0.68574  0.40814  0.56413  1.0000
  H   H965      1.0  0.76853  0.48314  0.58019  1.0000
  H   H966      1.0  0.79231  0.49512  0.37830  1.0000
  C   C549      1.0  0.85964  0.26778  0.61370  1.0000
  H   H967      1.0  0.73025  0.30514  0.36328  1.0000
  C   C550      1.0  0.66974  0.48606  0.59449  1.0000
  C   C551      1.0  0.85544  0.29565  0.60451  1.0000
  H   H968      1.0  0.64018  0.44760  0.39499  1.0000
  C   C552      1.0  0.84599  0.29261  0.57362  1.0000
  H   H969      1.0  0.62435  0.12551  0.55924  1.0000
  H   H970      1.0  0.83595  0.24628  0.61364  1.0000
  H   H971      1.0  0.87329  0.26435  0.59644  1.0000
  H   H972      1.0  0.91836  0.29989  0.61786  1.0000
  H   H973      1.0  0.61439  0.45076  0.56338  1.0000
  H   H974      1.0  0.76365  0.23116  0.64674  1.0000
  H   H975      1.0  0.65190  0.36738  0.44050  1.0000
  H   H976      1.0  0.87748  0.31851  0.60715  1.0000
  H   H977      1.0  0.83634  0.29588  0.61721  1.0000
  H   H978      1.0  0.67612  0.12289  0.61889  1.0000
  C   C553      1.0  0.54564  0.22464  0.60085  1.0000
  H   H979      1.0  0.67781  0.40382  0.47833  1.0000
  H   H980      1.0  0.82381  0.27007  0.57006  1.0000
  H   H981      1.0  0.84211  0.31225  0.56786  1.0000
  H   H982      1.0  0.86474  0.29358  0.55951  1.0000
  H   H983      1.0  0.55854  0.18960  0.61143  1.0000
  C   C554      1.0  0.74032  0.27089  0.38321  1.0000
  C   C555      1.0  0.72235  0.21482  0.37265  1.0000
  H   H984      1.0  0.66135  0.20994  0.36767  1.0000
  C   C556      1.0  0.66405  0.47122  0.35513  1.0000
  H   H985      1.0  0.59859  0.43225  0.35948  1.0000
  H   H986      1.0  0.83863  0.23268  0.32312  1.0000
  H   H987      1.0  0.91007  0.32059  0.64400  1.0000
  C   C557      1.0  0.70685  0.20651  0.40253  1.0000
  C   C558      1.0  0.69438  0.17191  0.40964  1.0000
  C   C559      1.0  0.75965  0.32716  0.39875  1.0000
  H   H988      1.0  0.76051  0.27229  0.39464  1.0000
  H   H989      1.0  0.72161  0.26425  0.39953  1.0000
  C   C560      1.0  0.69328  0.32143  0.50869  1.0000
  H   H990      1.0  0.74408  0.21355  0.37499  1.0000
  H   H991      1.0  0.67243  0.21619  0.60953  1.0000
  C   C561      1.0  0.62928  0.31257  0.47591  1.0000
  H   H992      1.0  0.71095  0.33380  0.52535  1.0000
  H   H993      1.0  0.94985  0.07548  0.64138  1.0000
  H   H994      1.0  0.67725  0.25021  0.37938  1.0000
  H   H995      1.0  0.58744  0.44366  0.59240  1.0000
  H   H996      1.0  0.55747  0.25073  0.60110  1.0000
  C   C562      1.0  0.87221  0.23977  0.64852  1.0000
  C   C563      1.0  0.59361  0.29623  0.47683  1.0000
  C   C564      1.0  0.69965  0.29681  0.49556  1.0000
  H   H997      1.0  0.72469  0.22084  0.41844  1.0000
  H   H998      1.0  0.68720  0.21116  0.40508  1.0000
  H   H999      1.0  0.71369  0.16644  0.40869  1.0000
  H   H1000     1.0  0.68414  0.16701  0.43132  1.0000
  C   C565      1.0  0.70327  0.24367  0.34377  1.0000
  H   H1001     1.0  0.78013  0.32832  0.40937  1.0000
  N   N33       1.0  0.73037  0.24635  0.36028  1.0000
  H   H1002     1.0  0.68834  0.33332  0.46583  1.0000
  H   H1003     1.0  0.50827  0.34363  0.38375  1.0000
  H   H1004     1.0  0.53044  0.27378  0.62121  1.0000
  H   H1005     1.0  0.63615  0.33242  0.51736  1.0000
  C   C566      1.0  0.78881  0.18039  0.62875  1.0000
  H   H1006     1.0  0.63098  0.47693  0.62374  1.0000
  H   H1007     1.0  0.63707  0.31856  0.45369  1.0000
  C   C567      1.0  0.67899  0.22244  0.58699  1.0000
  H   H1008     1.0  0.63199  0.35562  0.49145  1.0000
  H   H1009     1.0  0.76213  0.27752  0.32767  1.0000
  H   H1010     1.0  0.68483  0.42398  0.42813  1.0000
  H   H1011     1.0  0.65621  0.42726  0.37514  1.0000
  H   H1012     1.0  0.70590  0.45994  0.38396  1.0000
  H   H1013     1.0  0.58432  0.07577  0.59938  1.0000
  H   H1014     1.0  0.93802  0.11819  0.64812  1.0000
  C   C568      1.0  0.56867  0.21551  0.61249  1.0000
  H   H1015     1.0  0.71803  0.41845  0.42142  1.0000
  H   H1016     1.0  0.72149  0.36242  0.48295  1.0000
  C   C569      1.0  0.59153  0.06773  0.58017  1.0000
  H   H1017     1.0  0.76649  0.35121  0.39142  1.0000
  H   H1018     1.0  0.70742  0.19541  0.35794  1.0000
  C   C570      1.0  0.61217  0.41984  0.36072  1.0000
  C   C571      1.0  0.51465  0.21013  0.61878  1.0000
  H   H1019     1.0  0.54996  0.30019  0.57394  1.0000
  C   C572      1.0  0.78022  0.19805  0.64617  1.0000
  H   H1020     1.0  0.66629  0.46346  0.33347  1.0000
  H   H1021     1.0  0.51422  0.30197  0.57090  1.0000
  H   H1022     1.0  0.84722  0.22181  0.65313  1.0000
  C   C573      1.0  0.75991  0.49256  0.59735  1.0000
  C   C574      1.0  0.64913  0.23790  0.34257  1.0000
  H   H1023     1.0  0.87997  0.10387  0.64732  1.0000
  H   H1024     1.0  0.76337  0.46479  0.35615  1.0000
  H   H1025     1.0  0.61413  0.42864  0.59384  1.0000
  H   H1026     1.0  0.68557  0.48548  0.41042  1.0000
  H   H1027     1.0  0.67151  0.46769  0.60661  1.0000
  H   H1028     1.0  0.70487  0.23824  0.58509  1.0000
  C   C575      1.0  0.49818  0.24141  0.58910  1.0000
  S   S128      1.0  0.73116  0.49015  0.45054  1.0000
  H   H1029     1.0  0.62720  0.23068  0.35506  1.0000
  H   H1030     1.0  0.75779  0.21271  0.32936  1.0000
  H   H1031     1.0  0.75700  0.46377  0.39401  1.0000
  H   H1032     1.0  0.78009  0.26451  0.35215  1.0000
  H   H1033     1.0  0.93734  0.27656  0.65161  1.0000
  H   H1034     1.0  0.97438  0.33211  0.63682  1.0000
  C   C576      1.0  0.75811  0.25670  0.34013  1.0000
  H   H1035     1.0  0.65881  0.26268  0.33566  1.0000
  H   H1036     1.0  0.64316  0.22245  0.32375  1.0000
  N   N34       1.0  0.69628  0.49455  0.36584  1.0000
  H   H1037     1.0  0.49292  0.33916  0.41926  1.0000
  H   H1038     1.0  0.49624  0.30762  0.40276  1.0000
  Fe  Fe65      1.0  0.87046  0.19484  0.73307  1.0000
  S   S129      1.0  0.83836  0.21365  0.74505  1.0000
  S   S130      1.0  0.92081  0.22988  0.71706  1.0000
  Fe  Fe66      1.0  0.81483  0.12562  0.73565  1.0000
  S   S131      1.0  0.77951  0.14050  0.74680  1.0000
  S   S132      1.0  0.80833  0.07582  0.73319  1.0000
  Fe  Fe67      1.0  0.80477  0.17859  0.71365  1.0000
  S   S133      1.0  0.78152  0.19712  0.68369  1.0000
  Fe  Fe68      1.0  0.81573  0.17459  0.77719  1.0000
  S   S134      1.0  0.80256  0.17413  0.82425  1.0000
  S   S135      1.0  0.83758  0.16143  0.70045  1.0000
  S   S136      1.0  0.85027  0.15804  0.76728  1.0000
  H   H1039     1.0  0.98135  0.27613  0.69476  1.0000
  H   H1040     1.0  0.69891  0.19787  0.80889  1.0000
  Fe  Fe69      1.0  0.52214  0.29291  0.95793  1.0000
  S   S137      1.0  0.56184  0.33792  0.93864  1.0000
  H   H1041     1.0  0.84168  0.30436  0.70938  1.0000
  Fe  Fe70      1.0  0.76075  0.25335  0.96021  1.0000
  S   S138      1.0  0.77523  0.25739  0.91320  1.0000
  S   S139      1.0  0.72414  0.26712  0.96999  1.0000
  H   H1042     1.0  0.60066  0.26191  0.93637  1.0000
  C   C577      1.0  0.78577  0.40491  0.96450  1.0000
  H   H1043     1.0  0.64910  0.13397  0.88085  1.0000
  H   H1044     1.0  0.79866  0.41051  0.94463  1.0000
  H   H1045     1.0  0.69232  0.12350  0.96851  1.0000
  C   C578      1.0  0.61366  0.39601  0.94448  1.0000
  C   C579      1.0  0.73222  0.33170  0.92375  1.0000
  H   H1046     1.0  0.96465  0.22312  0.66274  1.0000
  H   H1047     1.0  0.65953  0.12700  0.93098  1.0000
  H   H1048     1.0  0.57131  0.11027  0.91351  1.0000
  H   H1049     1.0  0.61642  0.39468  0.92192  1.0000
  H   H1050     1.0  0.65546  0.44164  0.94831  1.0000
  H   H1051     1.0  0.64069  0.30809  0.90940  1.0000
  H   H1052     1.0  0.67846  0.16182  0.95285  1.0000
  C   C580      1.0  0.70691  0.42560  0.89768  1.0000
  C   C581      1.0  0.63566  0.42269  0.95932  1.0000
  H   H1053     1.0  0.86968  0.08842  0.70174  1.0000
  C   C582      1.0  0.95977  0.24785  0.82138  1.0000
  C   C583      1.0  0.79623  0.19841  0.84871  1.0000
  C   C584      1.0  0.78901  0.18875  0.87712  1.0000
  C   C585      1.0  0.78319  0.20669  0.89726  1.0000
  C   C586      1.0  0.78425  0.23456  0.88925  1.0000
  C   C587      1.0  0.79164  0.24431  0.86089  1.0000
  C   C588      1.0  0.79765  0.22647  0.84077  1.0000
  H   H1054     1.0  0.78800  0.16722  0.88361  1.0000
  H   H1055     1.0  0.77787  0.19891  0.91896  1.0000
  H   H1056     1.0  0.79261  0.26582  0.85437  1.0000
  H   H1057     1.0  0.80316  0.23431  0.81910  1.0000
  C   C589      1.0  0.77442  0.03731  0.73150  1.0000
  C   C590      1.0  0.74394  0.03233  0.72926  1.0000
  C   C591      1.0  0.70055  0.33036  0.92512  1.0000
  H   H1058     1.0  0.98316  0.28233  0.78895  1.0000
  H   H1059     1.0  0.98135  0.32375  0.67201  1.0000
  H   H1060     1.0  0.74041  0.05232  0.72850  1.0000
  H   H1061     1.0  0.82728  0.06248  0.66811  1.0000
  C   C592      1.0  0.96572  0.22504  0.74859  1.0000
  C   C593      1.0  0.95975  0.24031  0.72688  1.0000
  H   H1062     1.0  0.71141  0.42272  0.94198  1.0000
  H   H1063     1.0  0.94634  0.20719  0.76094  1.0000
  H   H1064     1.0  0.72995  0.44779  0.89587  1.0000
  H   H1065     1.0  0.78779  0.36240  0.97102  1.0000
  C   C594      1.0  0.71793  0.00137  0.72794  1.0000
  H   H1066     1.0  0.68676  0.15644  0.84413  1.0000
  H   H1067     1.0  0.72664  0.40262  0.92076  1.0000
  H   H1068     1.0  0.59588  0.09581  0.89926  1.0000
  H   H1069     1.0  0.61752  0.32687  0.91313  1.0000
  H   H1070     1.0  0.82138  0.26205  0.71415  1.0000
  H   H1071     1.0  0.75141  0.35608  0.91909  1.0000
  H   H1072     1.0  0.57606  0.45728  0.93115  1.0000
  H   H1073     1.0  0.70344  0.41168  0.87814  1.0000
  H   H1074     1.0  0.72077  0.36909  0.95498  1.0000
  C   C595      1.0  0.98554  0.26404  0.71155  1.0000
  S   S140      1.0  0.78277  0.45847  0.95540  1.0000
  H   H1075     1.0  0.93638  0.24286  0.81412  1.0000
  H   H1076     1.0  0.68810  0.43173  0.89979  1.0000
  C   C596      1.0  0.87912  0.11272  0.69333  1.0000
  H   H1077     1.0  0.68499  0.24612  0.89043  1.0000
  H   H1078     1.0  0.62794  0.21519  0.93129  1.0000
  H   H1079     1.0  0.85745  0.30051  0.65886  1.0000
  H   H1080     1.0  0.97214  0.19270  0.70099  1.0000
  H   H1081     1.0  0.64788  0.21140  0.88428  1.0000
  N   N35       1.0  0.67190  0.35542  0.95167  1.0000
  H   H1082     1.0  0.96473  0.22996  0.81206  1.0000
  H   H1083     1.0  0.72692  0.15555  0.95224  1.0000
  H   H1084     1.0  0.72667  0.18420  0.80557  1.0000
  H   H1085     1.0  0.91778  0.17509  0.68248  1.0000
  H   H1086     1.0  0.66553  0.24898  0.93971  1.0000
  H   H1087     1.0  0.56981  0.46350  0.89479  1.0000
  H   H1088     1.0  0.89081  0.30417  0.69658  1.0000
  H   H1089     1.0  0.69868  0.39482  0.97975  1.0000
  H   H1090     1.0  0.69862  0.34071  0.90519  1.0000
  C   C597      1.0  0.96498  0.18219  0.67979  1.0000
  H   H1091     1.0  0.81791  0.09332  0.67370  1.0000
  H   H1092     1.0  0.53228  0.40975  0.91021  1.0000
  C   C598      1.0  0.83215  0.08595  0.66078  1.0000
  C   C599      1.0  0.59479  0.27926  0.92789  1.0000
  C   C600      1.0  0.86800  0.28196  0.69447  1.0000
  H   H1093     1.0  0.58389  0.11761  0.87702  1.0000
  C   C601      1.0  0.90227  0.11992  0.75136  1.0000
  C   C602      1.0  0.84463  0.28407  0.71481  1.0000
  C   C603      1.0  0.63976  0.32590  0.95239  1.0000
  H   H1094     1.0  0.83150  0.25940  0.66338  1.0000
  H   H1095     1.0  0.62570  0.14348  0.92906  1.0000
  H   H1096     1.0  0.73709  0.32416  0.94406  1.0000
  C   C604      1.0  0.58785  0.22086  0.98462  1.0000
  H   H1097     1.0  0.87060  0.26198  0.70137  1.0000
  H   H1098     1.0  0.73220  0.31592  0.90683  1.0000
  H   H1099     1.0  0.70888  0.49288  0.83891  1.0000
  C   C605      1.0  0.98490  0.28100  0.81216  1.0000
  C   C606      1.0  0.59108  0.11559  0.89859  1.0000
  H   H1100     1.0  0.90792  0.10079  0.75040  1.0000
  H   H1101     1.0  0.91197  0.16253  0.72992  1.0000
  H   H1102     1.0  0.58305  0.27041  0.90737  1.0000
  H   H1103     1.0  0.70227  0.22240  0.92212  1.0000
  H   H1104     1.0  0.64107  0.16192  0.86609  1.0000
  H   H1105     1.0  0.68662  0.20888  0.85722  1.0000
  H   H1106     1.0  0.66464  0.19397  0.93389  1.0000
  H   H1107     1.0  0.57799  0.28122  0.94259  1.0000
  H   H1108     1.0  0.95880  0.24576  0.84473  1.0000
  H   H1109     1.0  0.72163  0.18779  0.91546  1.0000
  C   C607      1.0  0.57855  0.45181  0.90888  1.0000
  C   C608      1.0  0.91185  0.13512  0.78045  1.0000
  H   H1110     1.0  0.64216  0.25123  0.91197  1.0000
  H   H1111     1.0  0.72674  0.17736  0.85596  1.0000
  H   H1112     1.0  0.94320  0.06595  0.67841  1.0000
  H   H1113     1.0  0.70202  0.15277  0.89508  1.0000
  H   H1114     1.0  0.88442  0.24081  0.66823  1.0000
  H   H1115     1.0  0.89836  0.11727  0.79704  1.0000
  Fe  Fe71      1.0  0.50798  0.22630  0.96851  1.0000
  H   H1116     1.0  0.97891  0.29779  0.82221  1.0000
  H   H1117     1.0  0.73827  0.22142  0.82225  1.0000
  H   H1118     1.0  0.62223  0.33068  0.96325  1.0000
  H   H1119     1.0  0.61343  0.16477  0.90766  1.0000
  H   H1120     1.0  0.72177  0.22022  0.87544  1.0000
  H   H1121     1.0  0.56358  0.40309  0.91979  1.0000
  H   H1122     1.0  0.70433  0.11913  0.93336  1.0000
  C   C609      1.0  0.71841  0.19703  0.81943  1.0000
  H   H1123     1.0  0.95416  0.12544  0.70185  1.0000
  C   C610      1.0  0.58817  0.37090  0.95855  1.0000
  C   C611      1.0  0.64936  0.23577  0.92235  1.0000
  N   N36       1.0  0.68011  0.18160  0.89506  1.0000
  C   C612      1.0  0.67838  0.20527  0.91436  1.0000
  C   C613      1.0  0.69794  0.16829  0.90954  1.0000
  C   C614      1.0  0.69914  0.19928  0.86919  1.0000
  C   C615      1.0  0.64808  0.15559  0.88608  1.0000
  C   C616      1.0  0.62011  0.14633  0.90719  1.0000
  C   C617      1.0  0.66529  0.22491  0.90073  1.0000
  C   C618      1.0  0.70729  0.18016  0.84785  1.0000
  C   C619      1.0  0.68228  0.14808  0.93620  1.0000
  C   C620      1.0  0.67471  0.37400  0.97812  1.0000
  H   H1124     1.0  0.64034  0.30723  0.96511  1.0000
  H   H1125     1.0  0.85339  0.28725  0.73668  1.0000
  H   H1126     1.0  0.61251  0.45667  0.87781  1.0000
  H   H1127     1.0  0.90674  0.15459  0.78285  1.0000
  H   H1128     1.0  0.87640  0.10919  0.74996  1.0000
  C   C621      1.0  0.92881  0.16040  0.67823  1.0000
  H   H1129     1.0  0.65839  0.38345  0.97732  1.0000
  H   H1130     1.0  0.86678  0.12268  0.70584  1.0000
  H   H1131     1.0  0.69486  0.33204  0.96977  1.0000
  C   C622      1.0  0.62454  0.31131  0.92373  1.0000
  Fe  Fe72      1.0  0.76485  0.49101  0.96961  1.0000
  H   H1132     1.0  0.96167  0.34584  0.66716  1.0000
  H   H1133     1.0  0.74557  0.01666  0.82326  1.0000
  H   H1134     1.0  0.92465  0.29012  0.68121  1.0000
  C   C623      1.0  0.55698  0.41630  0.90522  1.0000
  H   H1135     1.0  0.55821  0.40906  0.88319  1.0000
  C   C624      1.0  0.92953  0.11233  0.69434  1.0000
  C   C625      1.0  0.70685  0.40718  0.92350  1.0000
  H   H1136     1.0  0.68185  0.30525  0.92607  1.0000
  N   N37       1.0  0.91425  0.13220  0.69770  1.0000
  H   H1137     1.0  0.93733  0.14451  0.78367  1.0000
  S   S141      1.0  0.50517  0.25049  0.92968  1.0000
  H   H1138     1.0  0.97734  0.16909  0.67465  1.0000
  H   H1139     1.0  0.65617  0.38186  0.92804  1.0000
  H   H1140     1.0  0.67120  0.36326  0.90658  1.0000
  C   C626      1.0  0.91949  0.14465  0.72757  1.0000
  H   H1141     1.0  0.91753  0.09116  0.70809  1.0000
  C   C627      1.0  0.69774  0.34747  0.95159  1.0000
  H   H1142     1.0  0.94492  0.15701  0.73258  1.0000
  C   C628      1.0  0.73392  0.01266  0.80262  1.0000
  C   C629      1.0  0.67505  0.37591  0.92683  1.0000
  S   S142      1.0  0.73567  0.20905  0.98588  1.0000
  H   H1143     1.0  0.67492  0.48509  0.91294  1.0000
  S   S143      1.0  0.72469  0.49057  0.94745  1.0000
  C   C630      1.0  0.77838  0.01084  0.73238  1.0000
  H   H1144     1.0  0.61899  0.44570  0.91148  1.0000
  C   C631      1.0  0.61296  0.46192  0.90070  1.0000
  C   C632      1.0  0.85676  0.27810  0.66373  1.0000
  C   C633      1.0  0.70277  0.13589  0.94825  1.0000
  C   C634      1.0  0.86712  0.11029  0.66283  1.0000
  H   H1145     1.0  0.73796  0.03562  0.79462  1.0000
  H   H1146     1.0  0.80178  0.01431  0.73407  1.0000
  H   H1147     1.0  0.74490  0.00359  0.78743  1.0000
  C   C635      1.0  0.77528  0.42489  0.97510  1.0000
  H   H1148     1.0  0.65996  0.46370  0.86600  1.0000
  S   S144      1.0  0.52478  0.19093  0.96744  1.0000
  H   H1149     1.0  0.69453  0.99791  0.72612  1.0000
  C   C636      1.0  0.67270  0.48976  0.86799  1.0000
  H   H1150     1.0  0.97570  0.10357  0.66680  1.0000
  C   C637      1.0  0.56077  0.19321  0.97597  1.0000
  H   H1151     1.0  0.63851  0.48247  0.95001  1.0000
  H   H1152     1.0  0.92392  0.15332  0.65585  1.0000
  H   H1153     1.0  0.68929  0.99936  0.82177  1.0000
  C   C638      1.0  0.93291  0.29549  0.65903  1.0000
  C   C639      1.0  0.56169  0.16531  0.97378  1.0000
  C   C640      1.0  0.97664  0.20938  0.65878  1.0000
  H   H1154     1.0  0.87010  0.13330  0.65633  1.0000
  C   C641      1.0  0.92959  0.09956  0.66444  1.0000
  H   H1155     1.0  0.58731  0.24251  0.98660  1.0000
  C   C642      1.0  0.77951  0.37756  0.97933  1.0000
  H   H1156     1.0  0.54098  0.14386  0.96728  1.0000
  H   H1157     1.0  0.90553  0.08044  0.65937  1.0000
  C   C643      1.0  0.95092  0.08530  0.66278  1.0000
  C   C644      1.0  0.58898  0.16464  0.97995  1.0000
  C   C645      1.0  0.58434  0.37285  0.98764  1.0000
  H   H1158     1.0  0.58897  0.14267  0.97821  1.0000
  C   C646      1.0  0.63149  0.42509  0.98826  1.0000
  C   C647      1.0  0.96447  0.32624  0.65863  1.0000
  H   H1159     1.0  0.71815  0.49360  0.87563  1.0000
  N   N38       1.0  0.63772  0.49560  0.90667  1.0000
  C   C648      1.0  0.61623  0.19195  0.98813  1.0000
  Fe  Fe73      1.0  0.87474  0.70628  0.22721  1.0000
  S   S145      1.0  0.85285  0.65365  0.22259  1.0000
  S   S146      1.0  0.92602  0.74126  0.21405  1.0000
  Fe  Fe74      1.0  0.81126  0.70113  0.24391  1.0000
  S   S147      1.0  0.78619  0.64819  0.24098  1.0000
  S   S148      1.0  0.77905  0.72021  0.25834  1.0000
  Fe  Fe75      1.0  0.82699  0.65092  0.26355  1.0000
  H   H1160     1.0  0.56076  0.78108  0.25614  1.0000
  Fe  Fe76      1.0  0.81344  0.65495  0.20032  1.0000
  S   S149      1.0  0.78245  0.62754  0.16282  1.0000
  S   S150      1.0  0.85104  0.70363  0.26920  1.0000
  S   S151      1.0  0.83660  0.70781  0.20242  1.0000
  Fe  Fe77      1.0  0.64444  0.82335  0.20179  1.0000
  S   S152      1.0  0.69481  0.85903  0.19130  1.0000
  S   S153      1.0  0.60774  0.79204  0.16905  1.0000
  Fe  Fe78      1.0  0.65613  0.83015  0.26625  1.0000
  S   S154      1.0  0.70751  0.86629  0.25937  1.0000
  H   H1161     1.0  0.52576  0.92994  0.00305  1.0000
  Fe  Fe79      1.0  0.69136  0.88807  0.22690  1.0000
  S   S155      1.0  0.70120  0.93918  0.22617  1.0000
  Fe  Fe80      1.0  0.70727  0.83441  0.22462  1.0000
  S   S156      1.0  0.74788  0.82495  0.21496  1.0000
  S   S157      1.0  0.63986  0.85345  0.23572  1.0000
  S   S158      1.0  0.65706  0.79720  0.23324  1.0000
  Fe  Fe81      1.0  0.77205  0.54158  0.01230  1.0000
  C   C649      1.0  0.73735  0.98788  0.14491  1.0000
  S   S159      1.0  0.80464  0.56907  0.04887  1.0000
  C   C650      1.0  0.71336  0.56509  0.31589  1.0000
  H   H1162     1.0  0.57863  0.81029  0.30508  1.0000
  Fe  Fe82      1.0  0.51687  0.77998  0.02391  1.0000
  H   H1163     1.0  0.85784  0.55272  0.99610  1.0000
  S   S160      1.0  0.54410  0.81288  0.06066  1.0000
  C   C651      1.0  0.59203  0.79906  0.13811  1.0000
  C   C652      1.0  0.57293  0.77341  0.12058  1.0000
  C   C653      1.0  0.55871  0.77729  0.09653  1.0000
  C   C654      1.0  0.56283  0.80685  0.08994  1.0000
  C   C655      1.0  0.58165  0.83246  0.10767  1.0000
  C   C656      1.0  0.59638  0.82871  0.13143  1.0000
  H   H1164     1.0  0.56920  0.75033  0.12555  1.0000
  H   H1165     1.0  0.54426  0.75731  0.08327  1.0000
  H   H1166     1.0  0.58504  0.85545  0.10286  1.0000
  H   H1167     1.0  0.61082  0.84867  0.14470  1.0000
  C   C657      1.0  0.73520  0.97754  0.22369  1.0000
  H   H1168     1.0  0.57968  0.82473  0.19632  1.0000
  H   H1169     1.0  0.82343  0.52330  0.03554  1.0000
  C   C658      1.0  0.96305  0.74986  0.22758  1.0000
  H   H1170     1.0  0.69527  0.90362  0.30277  1.0000
  C   C659      1.0  0.96612  0.74156  0.25493  1.0000
  S   S161      1.0  0.82335  0.61527  0.29672  1.0000
  H   H1171     1.0  0.94520  0.72775  0.26762  1.0000
  C   C660      1.0  0.79782  0.58507  0.08044  1.0000
  C   C661      1.0  0.76843  0.58142  0.08754  1.0000
  C   C662      1.0  0.76427  0.59449  0.11281  1.0000
  C   C663      1.0  0.78931  0.61135  0.13139  1.0000
  C   C664      1.0  0.81867  0.61490  0.12434  1.0000
  C   C665      1.0  0.82284  0.60184  0.09906  1.0000
  H   H1172     1.0  0.74891  0.56856  0.07357  1.0000
  H   H1173     1.0  0.74141  0.59140  0.11806  1.0000
  H   H1174     1.0  0.83821  0.62784  0.13827  1.0000
  H   H1175     1.0  0.84572  0.60501  0.09379  1.0000
  C   C666      1.0  0.77071  0.74927  0.24545  1.0000
  C   C667      1.0  0.74398  0.74970  0.25605  1.0000
  C   C668      1.0  0.73647  0.77239  0.24687  1.0000
  C   C669      1.0  0.75580  0.79528  0.22704  1.0000
  C   C670      1.0  0.78244  0.79473  0.21629  1.0000
  C   C671      1.0  0.78989  0.77196  0.22541  1.0000
  H   H1176     1.0  0.72899  0.73240  0.27162  1.0000
  H   H1177     1.0  0.71592  0.77239  0.25538  1.0000
  H   H1178     1.0  0.79763  0.81231  0.20100  1.0000
  H   H1179     1.0  0.81075  0.77231  0.21730  1.0000
  H   H1180     1.0  0.70744  0.96943  0.31963  1.0000
  S   S162      1.0  0.73214  0.54470  0.99356  1.0000
  C   C672      1.0  0.79158  0.95733  0.28478  1.0000
  H   H1181     1.0  0.49931  0.80850  0.22352  1.0000
  C   C673      1.0  0.52454  0.95784  0.03719  1.0000
  N   N39       1.0  0.74279  0.70256  0.16114  1.0000
  C   C674      1.0  0.74322  0.68191  0.18431  1.0000
  C   C675      1.0  0.77620  0.72756  0.15397  1.0000
  C   C676      1.0  0.72597  0.71900  0.17283  1.0000
  C   C677      1.0  0.72594  0.68416  0.13517  1.0000
  C   C678      1.0  0.72794  0.65419  0.12814  1.0000
  C   C679      1.0  0.71062  0.65883  0.19787  1.0000
  C   C680      1.0  0.72705  0.74538  0.15426  1.0000
  C   C681      1.0  0.79759  0.71615  0.14048  1.0000
  C   C682      1.0  0.83148  0.74329  0.13737  1.0000
  C   C683      1.0  0.71547  0.64176  0.09876  1.0000
  C   C684      1.0  0.71175  0.63390  0.21592  1.0000
  C   C685      1.0  0.70250  0.75391  0.16414  1.0000
  H   H1182     1.0  0.75854  0.69670  0.20171  1.0000
  H   H1183     1.0  0.75422  0.66814  0.17699  1.0000
  H   H1184     1.0  0.77675  0.74469  0.13854  1.0000
  H   H1185     1.0  0.78782  0.74137  0.17322  1.0000
  H   H1186     1.0  0.73554  0.72967  0.19373  1.0000
  H   H1187     1.0  0.70067  0.70166  0.17683  1.0000
  H   H1188     1.0  0.70035  0.67599  0.13680  1.0000
  H   H1189     1.0  0.73452  0.69986  0.11633  1.0000
  H   H1190     1.0  0.71362  0.63508  0.14344  1.0000
  H   H1191     1.0  0.75215  0.65836  0.12889  1.0000
  H   H1192     1.0  0.70293  0.67196  0.21198  1.0000
  H   H1193     1.0  0.69252  0.64680  0.18161  1.0000
  H   H1194     1.0  0.72269  0.73818  0.13183  1.0000
  H   H1195     1.0  0.75044  0.76711  0.15584  1.0000
  H   H1196     1.0  0.79783  0.69751  0.15321  1.0000
  H   H1197     1.0  0.78952  0.70702  0.11895  1.0000
  H   H1198     1.0  0.84645  0.73429  0.12833  1.0000
  H   H1199     1.0  0.83278  0.76170  0.12307  1.0000
  H   H1200     1.0  0.84098  0.75401  0.15820  1.0000
  H   H1201     1.0  0.69069  0.63610  0.09711  1.0000
  H   H1202     1.0  0.71642  0.61996  0.09464  1.0000
  H   H1203     1.0  0.72107  0.62098  0.20351  1.0000
  H   H1204     1.0  0.72677  0.64522  0.23444  1.0000
  H   H1205     1.0  0.68773  0.61672  0.22376  1.0000
  H   H1206     1.0  0.67836  0.73384  0.16096  1.0000
  H   H1207     1.0  0.70541  0.76044  0.18681  1.0000
  H   H1208     1.0  0.70538  0.77440  0.15190  1.0000
  H   H1209     1.0  0.74616  0.94401  0.26819  1.0000
  H   H1210     1.0  0.64916  0.92720  0.31478  1.0000
  H   H1211     1.0  0.50162  0.85414  0.06581  1.0000
  H   H1212     1.0  0.75337  0.98803  0.16111  1.0000
  C   C686      1.0  0.56484  0.74209  0.24072  1.0000
  C   C687      1.0  0.90646  0.64025  0.29353  1.0000
  H   H1213     1.0  0.94060  0.81073  0.29178  1.0000
  C   C688      1.0  0.92229  0.66968  0.31195  1.0000
  H   H1214     1.0  0.87742  0.57801  0.10520  1.0000
  C   C689      1.0  0.95708  0.80927  0.27635  1.0000
  C   C690      1.0  0.89982  0.68253  0.31877  1.0000
  C   C691      1.0  0.65673  0.91176  0.30427  1.0000
  H   H1215     1.0  0.51179  0.80759  0.17599  1.0000
  H   H1216     1.0  0.98076  0.85882  0.26846  1.0000
  H   H1217     1.0  0.56872  0.73282  0.22051  1.0000
  H   H1218     1.0  0.80418  0.96386  0.30504  1.0000
  C   C692      1.0  0.56381  0.77218  0.23556  1.0000
  H   H1219     1.0  0.96213  0.79090  0.28360  1.0000
  H   H1220     1.0  0.57210  0.82808  0.23232  1.0000
  C   C693      1.0  0.76530  0.98240  0.21781  1.0000
  H   H1221     1.0  0.53536  0.97962  0.02418  1.0000
  C   C694      1.0  0.51468  0.79562  0.26121  1.0000
  C   C695      1.0  0.82648  0.50238  0.03397  1.0000
  H   H1222     1.0  0.91581  0.58367  0.09706  1.0000
  C   C696      1.0  0.59129  0.88424  0.20898  1.0000
  H   H1223     1.0  0.51582  0.74477  0.22072  1.0000
  H   H1224     1.0  0.76844  0.96237  0.21424  1.0000
  C   C697      1.0  0.85531  0.51084  0.01420  1.0000
  H   H1225     1.0  0.92365  0.63280  0.28751  1.0000
  H   H1226     1.0  0.65607  0.91392  0.28102  1.0000
  H   H1227     1.0  0.73016  0.65941  0.08241  1.0000
  H   H1228     1.0  0.53740  0.81724  0.26528  1.0000
  H   H1229     1.0  0.70963  0.95972  0.28385  1.0000
  S   S163      1.0  0.52103  0.73975  0.00584  1.0000
  H   H1230     1.0  0.94336  0.68765  0.30011  1.0000
  H   H1231     1.0  0.53906  0.79617  0.16405  1.0000
  C   C698      1.0  0.51966  0.79032  0.17966  1.0000
  H   H1232     1.0  0.74469  0.92090  0.29674  1.0000
  H   H1233     1.0  0.98835  0.77347  0.18956  1.0000
  H   H1234     1.0  0.89230  0.53110  0.07530  1.0000
  H   H1235     1.0  0.69861  0.57109  0.30286  1.0000
  C   C699      1.0  0.84262  0.51748  0.08373  1.0000
  H   H1236     1.0  0.49554  0.80031  0.30138  1.0000
  C   C700      1.0  0.50778  0.92904  0.01808  1.0000
  H   H1237     1.0  0.78454  0.92544  0.24978  1.0000
  H   H1238     1.0  0.51587  0.86965  0.00614  1.0000
  H   H1239     1.0  0.54209  0.85568  0.21872  1.0000
  C   C701      1.0  0.87755  0.54211  0.07785  1.0000
  H   H1240     1.0  0.58473  0.74742  0.25471  1.0000
  H   H1241     1.0  0.89751  0.64507  0.27398  1.0000
  H   H1242     1.0  0.58721  0.78975  0.22692  1.0000
  H   H1243     1.0  0.89039  0.55365  0.12196  1.0000
  H   H1244     1.0  0.55323  0.85436  0.18239  1.0000
  H   H1245     1.0  0.52812  0.67998  0.99253  1.0000
  N   N40       1.0  0.74833  0.96540  0.30876  1.0000
  H   H1246     1.0  0.58942  0.90519  0.20363  1.0000
  H   H1247     1.0  0.63988  0.88693  0.31028  1.0000
  H   H1248     1.0  0.60974  0.88419  0.19510  1.0000
  H   H1249     1.0  0.60254  0.73083  0.30333  1.0000
  H   H1250     1.0  0.65561  0.52239  0.99302  1.0000
  H   H1251     1.0  0.78213  0.49862  0.10100  1.0000
  H   H1252     1.0  0.78728  0.91087  0.28390  1.0000
  H   H1253     1.0  0.80243  0.97838  0.27080  1.0000
  H   H1254     1.0  0.89768  0.69330  0.29899  1.0000
  C   C702      1.0  0.68976  0.92047  0.31329  1.0000
  C   C703      1.0  0.55962  0.85427  0.20467  1.0000
  C   C704      1.0  0.98746  0.84115  0.27414  1.0000
  H   H1255     1.0  0.87797  0.52421  0.02500  1.0000
  H   H1256     1.0  0.59854  0.88635  0.23129  1.0000
  C   C705      1.0  0.56174  0.82453  0.21117  1.0000
  H   H1257     1.0  0.87962  0.55585  0.05866  1.0000
  H   H1258     1.0  0.54575  0.76037  0.19417  1.0000
  H   H1259     1.0  0.94464  0.74111  0.31481  1.0000
  H   H1260     1.0  0.54346  0.95716  0.04898  1.0000
  H   H1261     1.0  0.88655  0.62062  0.30522  1.0000
  C   C706      1.0  0.71399  0.95518  0.30581  1.0000
  H   H1262     1.0  0.74537  0.98440  0.12383  1.0000
  C   C707      1.0  0.57905  0.72415  0.31251  1.0000
  N   N41       1.0  0.53159  0.79325  0.20932  1.0000
  H   H1263     1.0  0.67906  0.51589  0.31366  1.0000
  C   C708      1.0  0.53789  0.76651  0.21424  1.0000
  H   H1264     1.0  0.73156  0.56460  0.30196  1.0000
  H   H1265     1.0  0.51357  0.89771  0.04467  1.0000
  C   C709      1.0  0.75610  0.94560  0.28940  1.0000
  S   S164      1.0  0.64047  0.81533  0.31244  1.0000
  H   H1266     1.0  0.84042  0.50814  0.10551  1.0000
  H   H1267     1.0  0.94538  0.80215  0.25560  1.0000
  H   H1268     1.0  0.71341  0.96768  0.14937  1.0000
  C   C710      1.0  0.89100  0.56572  0.10207  1.0000
  C   C711      1.0  0.79658  0.93219  0.27039  1.0000
  H   H1269     1.0  0.50760  0.95885  0.05240  1.0000
  H   H1270     1.0  0.56083  0.70411  0.30030  1.0000
  C   C712      1.0  0.99045  0.76736  0.21094  1.0000
  H   H1271     1.0  0.83058  0.53155  0.08417  1.0000
  H   H1272     1.0  0.54264  0.72391  0.25098  1.0000
  H   H1273     1.0  0.49305  0.82483  0.03922  1.0000
  H   H1274     1.0  0.77730  0.50255  0.06417  1.0000
  C   C713      1.0  0.49326  0.89823  0.03546  1.0000
  H   H1275     1.0  0.50196  0.76443  0.12598  1.0000
  H   H1276     1.0  0.82208  0.94152  0.26652  1.0000
  C   C714      1.0  0.50658  0.79129  0.22951  1.0000
  H   H1277     1.0  0.51537  0.77482  0.26918  1.0000
  H   H1278     1.0  0.49819  0.73904  0.17238  1.0000
  H   H1279     1.0  0.57554  0.74468  0.31053  1.0000
  H   H1280     1.0  0.51302  0.63990  0.42452  1.0000
  H   H1281     1.0  0.84368  0.67921  0.33141  1.0000
  Fe  Fe83      1.0  0.76361  0.54254  0.45497  1.0000
  S   S165      1.0  0.76695  0.57885  0.42266  1.0000
  S   S166      1.0  0.74377  0.54367  0.49825  1.0000
  Fe  Fe84      1.0  0.51519  0.76638  0.44490  1.0000
  S   S167      1.0  0.52527  0.78214  0.39836  1.0000
  H   H1282     1.0  0.68788  0.54567  0.38944  1.0000
  C   C715      1.0  0.75268  0.93243  0.34962  1.0000
  C   C716      1.0  0.61065  0.80144  0.36457  1.0000
  C   C717      1.0  0.58580  0.79429  0.38402  1.0000
  C   C718      1.0  0.55803  0.79243  0.37503  1.0000
  C   C719      1.0  0.55577  0.79832  0.34637  1.0000
  C   C720      1.0  0.50924  0.60222  0.39874  1.0000
  H   H1283     1.0  0.63190  0.80260  0.37183  1.0000
  H   H1284     1.0  0.58821  0.79038  0.40600  1.0000
  H   H1285     1.0  0.53448  0.79709  0.33916  1.0000
  C   C721      1.0  0.85316  0.69808  0.34746  1.0000
  C   C722      1.0  0.51915  0.82992  0.61987  1.0000
  C   C723      1.0  0.81387  0.58586  0.34813  1.0000
  C   C724      1.0  0.80219  0.57782  0.37609  1.0000
  C   C725      1.0  0.78414  0.58972  0.38816  1.0000
  C   C726      1.0  0.77878  0.61050  0.37213  1.0000
  C   C727      1.0  0.79070  0.61877  0.34425  1.0000
  H   H1286     1.0  0.54202  0.69200  0.44649  1.0000
  H   H1287     1.0  0.80714  0.56236  0.38827  1.0000
  H   H1288     1.0  0.76498  0.62000  0.38124  1.0000
  H   H1289     1.0  0.85932  0.65060  0.36848  1.0000
  Fe  Fe85      1.0  0.78142  0.53573  0.51532  1.0000
  S   S168      1.0  0.80328  0.53778  0.47230  1.0000
  S   S169      1.0  0.81083  0.55833  0.55463  1.0000
  H   H1290     1.0  0.80956  0.69900  0.34814  1.0000
  C   C728      1.0  0.68866  0.53168  0.62725  1.0000
  Fe  Fe86      1.0  0.53263  0.77048  0.50800  1.0000
  S   S170      1.0  0.53929  0.74635  0.46988  1.0000
  S   S171      1.0  0.57157  0.80111  0.53919  1.0000
  C   C729      1.0  0.60842  0.80731  0.33593  1.0000
  C   C730      1.0  0.56953  0.76531  0.61771  1.0000
  C   C731      1.0  0.56266  0.76770  0.58936  1.0000
  C   C732      1.0  0.57871  0.79660  0.57519  1.0000
  C   C733      1.0  0.60179  0.82295  0.58984  1.0000
  C   C734      1.0  0.60868  0.82057  0.61821  1.0000
  H   H1291     1.0  0.90235  0.65012  0.41426  1.0000
  H   H1292     1.0  0.54526  0.74705  0.57836  1.0000
  H   H1293     1.0  0.61458  0.84540  0.57912  1.0000
  H   H1294     1.0  0.62659  0.84105  0.62904  1.0000
  C   C735      1.0  0.80649  0.58201  0.58100  1.0000
  C   C736      1.0  0.82058  0.58566  0.60738  1.0000
  C   C737      1.0  0.81726  0.60381  0.62900  1.0000
  C   C738      1.0  0.79991  0.61876  0.62442  1.0000
  C   C739      1.0  0.78617  0.61540  0.59791  1.0000
  C   C740      1.0  0.78951  0.59728  0.57633  1.0000
  H   H1295     1.0  0.83408  0.57424  0.61116  1.0000
  C   C741      1.0  0.72480  0.51551  0.60855  1.0000
  H   H1296     1.0  0.77294  0.62707  0.59401  1.0000
  H   H1297     1.0  0.77913  0.59529  0.55599  1.0000
  H   H1298     1.0  0.76281  0.51532  0.35398  1.0000
  H   H1299     1.0  0.72510  0.58382  0.33195  1.0000
  H   H1300     1.0  0.71411  0.59571  0.55238  1.0000
  H   H1301     1.0  0.63201  0.49832  0.59294  1.0000
  H   H1302     1.0  0.72994  0.91174  0.34396  1.0000
  H   H1303     1.0  0.71846  0.52240  0.40267  1.0000
  H   H1304     1.0  0.59486  0.74128  0.45419  1.0000
  H   H1305     1.0  0.53279  0.60608  0.40407  1.0000
  H   H1306     1.0  0.52268  0.65004  0.35993  1.0000
  H   H1307     1.0  0.74580  0.51533  0.56740  1.0000
  H   H1308     1.0  0.55705  0.74277  0.62831  1.0000
  H   H1309     1.0  0.94501  0.77452  0.35370  1.0000
  H   H1310     1.0  0.75552  0.51322  0.39137  1.0000
  H   H1311     1.0  0.50219  0.67998  0.41853  1.0000
  H   H1312     1.0  0.71220  0.81649  0.61223  1.0000
  H   H1313     1.0  0.70238  0.56605  0.52514  1.0000
  H   H1314     1.0  0.87155  0.65979  0.41945  1.0000
  H   H1315     1.0  0.53718  0.85110  0.60832  1.0000
  C   C742      1.0  0.71443  0.56486  0.63710  1.0000
  C   C743      1.0  0.80816  0.60631  0.33197  1.0000
  H   H1316     1.0  0.56531  0.88778  0.53287  1.0000
  C   C744      1.0  0.56327  0.69578  0.43473  1.0000
  H   H1317     1.0  0.61365  0.71958  0.44251  1.0000
  H   H1318     1.0  0.65802  0.72859  0.61431  1.0000
  H   H1319     1.0  0.73627  0.93421  0.39230  1.0000
  H   H1320     1.0  0.52574  0.81190  0.57040  1.0000
  C   C745      1.0  0.66964  0.75440  0.61808  1.0000
  C   C746      1.0  0.69461  0.50543  0.39530  1.0000
  H   H1321     1.0  0.67576  0.57895  0.53705  1.0000
  C   C747      1.0  0.88275  0.65592  0.37539  1.0000
  H   H1322     1.0  0.71107  0.52983  0.55771  1.0000
  H   H1323     1.0  0.93112  0.69241  0.37521  1.0000
  H   H1324     1.0  0.90541  0.70500  0.38831  1.0000
  H   H1325     1.0  0.72520  0.51678  0.32848  1.0000
  C   C748      1.0  0.55563  0.86295  0.53957  1.0000
  C   C749      1.0  0.58078  0.80582  0.32696  1.0000
  H   H1326     1.0  0.68877  0.91702  0.33646  1.0000
  N   N42       1.0  0.53811  0.69173  0.38599  1.0000
  H   H1327     1.0  0.75393  0.90996  0.38836  1.0000
  C   C750      1.0  0.75603  0.96390  0.33921  1.0000
  H   H1328     1.0  0.55458  0.65853  0.38173  1.0000
  H   H1329     1.0  0.65816  0.76909  0.56431  1.0000
  H   H1330     1.0  0.65885  0.54020  0.43384  1.0000
  C   C751      1.0  0.90831  0.69113  0.37102  1.0000
  C   C752      1.0  0.71309  0.52227  0.34584  1.0000
  H   H1331     1.0  0.89569  0.73795  0.36051  1.0000
  H   H1332     1.0  0.75052  0.86999  0.62792  1.0000
  H   H1333     1.0  0.66729  0.53328  0.62412  1.0000
  H   H1334     1.0  0.55624  0.84926  0.52107  1.0000
  H   H1335     1.0  0.50451  0.76216  0.58290  1.0000
  H   H1336     1.0  0.69003  0.76494  0.60305  1.0000
  C   C753      1.0  0.59196  0.71744  0.45229  1.0000
  N   N43       1.0  0.69664  0.51858  0.60147  1.0000
  C   C754      1.0  0.59260  0.79167  0.63237  1.0000
  C   C755      1.0  0.54633  0.70880  0.35797  1.0000
  H   H1337     1.0  0.59786  0.73506  0.35390  1.0000
  C   C756      1.0  0.53200  0.65861  0.38139  1.0000
  C   C757      1.0  0.68041  0.54791  0.56636  1.0000
  H   H1338     1.0  0.77858  0.95224  0.38836  1.0000
  H   H1339     1.0  0.95918  0.72232  0.33682  1.0000
  H   H1340     1.0  0.57082  0.86230  0.55625  1.0000
  H   H1341     1.0  0.65558  0.79024  0.61162  1.0000
  H   H1342     1.0  0.86182  0.62082  0.40859  1.0000
  H   H1343     1.0  0.52208  0.86492  0.56796  1.0000
  H   H1344     1.0  0.67137  0.55634  0.58389  1.0000
  H   H1345     1.0  0.72736  0.56257  0.58038  1.0000
  C   C758      1.0  0.69412  0.57375  0.54388  1.0000
  H   H1346     1.0  0.68280  0.51519  0.64535  1.0000
  H   H1347     1.0  0.54769  0.73203  0.36032  1.0000
  H   H1348     1.0  0.72071  0.58261  0.62022  1.0000
  H   H1349     1.0  0.95338  0.75263  0.37907  1.0000
  H   H1350     1.0  0.62013  0.76429  0.57246  1.0000
  H   H1351     1.0  0.65139  0.50819  0.39129  1.0000
  C   C759      1.0  0.56560  0.71000  0.40522  1.0000
  H   H1352     1.0  0.52736  0.69541  0.34259  1.0000
  C   C760      1.0  0.72014  0.81974  0.63434  1.0000
  N   N44       1.0  0.90948  0.70578  0.34274  1.0000
  H   H1353     1.0  0.69569  0.54220  0.44052  1.0000
  H   H1354     1.0  0.74100  0.81680  0.63527  1.0000
  H   H1355     1.0  0.51607  0.71706  0.40319  1.0000
  C   C761      1.0  0.50982  0.69242  0.39802  1.0000
  H   H1356     1.0  0.72550  0.76662  0.63654  1.0000
  C   C762      1.0  0.63701  0.75662  0.57825  1.0000
  H   H1357     1.0  0.58893  0.70747  0.47382  1.0000
  H   H1358     1.0  0.56289  0.67309  0.43280  1.0000
  H   H1359     1.0  0.51529  0.85772  0.65420  1.0000
  C   C763      1.0  0.69279  0.53324  0.33028  1.0000
  H   H1360     1.0  0.74592  0.53902  0.61203  1.0000
  C   C764      1.0  0.75558  0.93235  0.38164  1.0000
  C   C765      1.0  0.69624  0.71874  0.64955  1.0000
  H   H1361     1.0  0.52624  0.81192  0.61781  1.0000
  H   H1362     1.0  0.56989  0.73436  0.40807  1.0000
  C   C766      1.0  0.64582  0.76454  0.60915  1.0000
  H   H1363     1.0  0.74438  0.72774  0.64521  1.0000
  H   H1364     1.0  0.58753  0.71247  0.39571  1.0000
  C   C767      1.0  0.88894  0.72053  0.34314  1.0000
  H   H1365     1.0  0.62567  0.73084  0.57469  1.0000
  H   H1366     1.0  0.62382  0.75212  0.62198  1.0000
  C   C768      1.0  0.70544  0.54014  0.57633  1.0000
  C   C769      1.0  0.73526  0.49953  0.58586  1.0000
  H   H1367     1.0  0.78598  0.63445  0.33214  1.0000
  H   H1368     1.0  0.65931  0.50481  0.44262  1.0000
  H   H1369     1.0  0.58028  0.69403  0.34443  1.0000
  H   H1370     1.0  0.78077  0.98227  0.34363  1.0000
  C   C770      1.0  0.95656  0.76035  0.35673  1.0000
  H   H1371     1.0  0.77156  0.92903  0.34012  1.0000
  C   C771      1.0  0.57752  0.71505  0.34347  1.0000
  H   H1372     1.0  0.82755  0.57624  0.33898  1.0000
  H   H1373     1.0  0.67600  0.53549  0.34454  1.0000
  H   H1374     1.0  0.74139  0.96976  0.35340  1.0000
  N   N45       1.0  0.68052  0.76180  0.64812  1.0000
  C   C772      1.0  0.83514  0.71579  0.34522  1.0000
  H   H1375     1.0  0.84807  0.68763  0.36889  1.0000
  S   S172      1.0  0.51149  0.79366  0.48214  1.0000
  H   H1376     1.0  0.84262  0.73420  0.36175  1.0000
  C   C773      1.0  0.50839  0.63271  0.40218  1.0000
  C   C774      1.0  0.87959  0.64624  0.40634  1.0000
  H   H1377     1.0  0.73212  0.54291  0.35702  1.0000
  H   H1378     1.0  0.66067  0.52675  0.55662  1.0000
  C   C775      1.0  0.52194  0.84958  0.55062  1.0000
  H   H1379     1.0  0.72031  0.50228  0.62871  1.0000
  H   H1380     1.0  0.50794  0.85100  0.53318  1.0000
  H   H1381     1.0  0.69054  0.71095  0.62733  1.0000
  C   C776      1.0  0.94280  0.73172  0.33649  1.0000
  C   C777      1.0  0.67214  0.52759  0.43110  1.0000
  C   C778      1.0  0.50719  0.81482  0.56048  1.0000
  C   C779      1.0  0.67541  0.52216  0.39970  1.0000
  H   H1382     1.0  0.82802  0.60616  0.64920  1.0000
  H   H1383     1.0  0.78036  0.51440  0.60546  1.0000
  H   H1384     1.0  0.88896  0.64043  0.36311  1.0000
  C   C780      1.0  0.73101  0.85382  0.64229  1.0000
  C   C781      1.0  0.70616  0.75402  0.65232  1.0000
  S   S173      1.0  0.79336  0.64077  0.65107  1.0000
  H   H1385     1.0  0.73599  0.56491  0.64352  1.0000
  C   C782      1.0  0.99169  0.78222  0.35078  1.0000
  C   C783      1.0  0.52096  0.83870  0.65103  1.0000
  H   H1386     1.0  0.50359  0.59335  0.37678  1.0000
  H   H1387     1.0  0.93041  0.66385  0.33141  1.0000
  H   H1388     1.0  0.71143  0.85872  0.64024  1.0000
  H   H1389     1.0  0.50129  0.80004  0.54118  1.0000
  C   C784      1.0  0.75091  0.49904  0.37196  1.0000
  C   C785      1.0  0.69355  0.79625  0.65459  1.0000
  H   H1390     1.0  0.67447  0.80218  0.65529  1.0000
  H   H1391     1.0  0.87609  0.66215  0.32265  1.0000
  H   H1392     1.0  0.71565  0.68809  0.65546  1.0000
  H   H1393     1.0  0.89251  0.73381  0.32314  1.0000
  H   H1394     1.0  0.83893  0.72696  0.32415  1.0000
  Fe  Fe87      1.0  0.86471  0.71155  0.73160  1.0000
  S   S174      1.0  0.85025  0.66104  0.72250  1.0000
  S   S175      1.0  0.91474  0.75315  0.73902  1.0000
  Fe  Fe88      1.0  0.79520  0.69583  0.73874  1.0000
  S   S176      1.0  0.77714  0.64418  0.73108  1.0000
  S   S177      1.0  0.75701  0.70803  0.75094  1.0000
  Fe  Fe89      1.0  0.81579  0.64932  0.75916  1.0000
  S   S178      1.0  0.81406  0.61466  0.79241  1.0000
  Fe  Fe90      1.0  0.81260  0.66006  0.69514  1.0000
  H   H1395     1.0  0.60453  0.91080  0.74644  1.0000
  S   S179      1.0  0.83167  0.69976  0.76917  1.0000
  S   S180      1.0  0.82926  0.71177  0.70193  1.0000
  Fe  Fe91      1.0  0.63319  0.81941  0.70259  1.0000
  S   S181      1.0  0.68458  0.85524  0.69813  1.0000
  H   H1396     1.0  0.89418  0.75738  0.80197  1.0000
  Fe  Fe92      1.0  0.63439  0.82773  0.76817  1.0000
  S   S182      1.0  0.68651  0.86327  0.76737  1.0000
  S   S183      1.0  0.59967  0.81945  0.80501  1.0000
  Fe  Fe93      1.0  0.67672  0.88500  0.73014  1.0000
  S   S184      1.0  0.68780  0.93644  0.72778  1.0000
  Fe  Fe94      1.0  0.69080  0.83074  0.73553  1.0000
  S   S185      1.0  0.73285  0.82272  0.72980  1.0000
  S   S186      1.0  0.62449  0.85052  0.73181  1.0000
  S   S187      1.0  0.63945  0.79384  0.73907  1.0000
  C   C786      1.0  0.77224  0.83489  0.80693  1.0000
  C   C787      1.0  0.88539  0.64885  0.83917  1.0000
  Fe  Fe95      1.0  0.75267  0.54348  0.95061  1.0000
  S   S188      1.0  0.75113  0.57544  0.91624  1.0000
  H   H1397     1.0  0.86891  0.65779  0.83737  1.0000
  Fe  Fe96      1.0  0.52304  0.76045  0.96277  1.0000
  S   S189      1.0  0.55838  0.76124  0.92970  1.0000
  H   H1398     1.0  0.79101  0.76597  0.71680  1.0000
  C   C788      1.0  0.58865  0.80291  0.83961  1.0000
  C   C789      1.0  0.56555  0.80609  0.85490  1.0000
  C   C790      1.0  0.55615  0.79378  0.88248  1.0000
  C   C791      1.0  0.56968  0.77797  0.89519  1.0000
  C   C792      1.0  0.59285  0.77487  0.87995  1.0000
  C   C793      1.0  0.60228  0.78720  0.85237  1.0000
  H   H1399     1.0  0.55486  0.81824  0.84534  1.0000
  H   H1400     1.0  0.53850  0.79661  0.89390  1.0000
  H   H1401     1.0  0.60363  0.76284  0.88956  1.0000
  H   H1402     1.0  0.62014  0.78463  0.84103  1.0000
  C   C794      1.0  0.72185  0.97489  0.72901  1.0000
  H   H1403     1.0  0.61278  0.72902  0.71372  1.0000
  H   H1404     1.0  0.75584  0.95987  0.73205  1.0000
  C   C795      1.0  0.95347  0.75869  0.73456  1.0000
  H   H1405     1.0  0.84506  0.76843  0.79774  1.0000
  C   C796      1.0  0.95909  0.73609  0.72194  1.0000
  C   C797      1.0  0.92432  0.72285  0.81174  1.0000
  H   H1406     1.0  0.93961  0.71469  0.71378  1.0000
  C   C798      1.0  0.79653  0.60440  0.82688  1.0000
  C   C799      1.0  0.80000  0.58234  0.84285  1.0000
  C   C800      1.0  0.78677  0.57356  0.87031  1.0000
  C   C801      1.0  0.76957  0.58656  0.88214  1.0000
  C   C802      1.0  0.76599  0.60854  0.86612  1.0000
  C   C803      1.0  0.77945  0.61751  0.83874  1.0000
  H   H1407     1.0  0.81308  0.57196  0.83393  1.0000
  H   H1408     1.0  0.78966  0.55654  0.88221  1.0000
  H   H1409     1.0  0.75266  0.61870  0.87494  1.0000
  H   H1410     1.0  0.77643  0.63436  0.82672  1.0000
  C   C804      1.0  0.74977  0.73919  0.74290  1.0000
  C   C805      1.0  0.72297  0.73847  0.75483  1.0000
  C   C806      1.0  0.71698  0.76337  0.75053  1.0000
  C   C807      1.0  0.73786  0.78950  0.73429  1.0000
  C   C808      1.0  0.76453  0.79011  0.72213  1.0000
  C   C809      1.0  0.77036  0.76506  0.72622  1.0000
  H   H1411     1.0  0.70686  0.71862  0.76780  1.0000
  H   H1412     1.0  0.69652  0.76259  0.76022  1.0000
  H   H1413     1.0  0.78094  0.81024  0.70960  1.0000
  H   H1414     1.0  0.59076  0.53294  0.86323  1.0000
  N   N46       1.0  0.92618  0.69357  0.80586  1.0000
  H   H1415     1.0  0.57175  0.68274  0.85696  1.0000
  H   H1416     1.0  0.61968  0.69636  0.70938  1.0000
  H   H1417     1.0  0.72213  0.59945  0.66933  1.0000
  H   H1418     1.0  0.88003  0.62598  0.76949  1.0000
  C   C810      1.0  0.72287  0.71329  0.65829  1.0000
  C   C811      1.0  0.88196  0.63592  0.86903  1.0000
  H   H1419     1.0  0.86073  0.84511  0.87614  1.0000
  H   H1420     1.0  0.62414  0.54703  0.92008  1.0000
  H   H1421     1.0  0.85718  0.61737  0.87318  1.0000
  H   H1422     1.0  0.56940  0.87816  0.76140  1.0000
  H   H1423     1.0  0.58932  0.51142  0.91109  1.0000
  H   H1424     1.0  0.93027  0.73726  0.79216  1.0000
  H   H1425     1.0  0.89847  0.86509  0.85830  1.0000
  C   C812      1.0  0.70715  0.50173  0.86010  1.0000
  H   H1426     1.0  0.73970  0.85866  0.66425  1.0000
  C   C813      1.0  0.61184  0.53061  0.90249  1.0000
  C   C814      1.0  0.63794  0.50157  0.93797  1.0000
  C   C815      1.0  0.70311  0.57581  0.66269  1.0000
  H   H1427     1.0  0.65327  0.93607  0.77587  1.0000
  H   H1428     1.0  0.92917  0.69037  0.85101  1.0000
  H   H1429     1.0  0.50907  0.69841  0.95390  1.0000
  C   C816      1.0  0.63279  0.51835  0.88924  1.0000
  H   H1430     1.0  0.70174  0.94793  0.79681  1.0000
  H   H1431     1.0  0.49901  0.71205  0.91341  1.0000
  C   C817      1.0  0.83142  0.79625  0.83676  1.0000
  H   H1432     1.0  0.85572  0.84644  0.82422  1.0000
  H   H1433     1.0  0.97550  0.80437  0.75430  1.0000
  H   H1434     1.0  0.87750  0.62874  0.82439  1.0000
  H   H1435     1.0  0.69726  0.55931  0.68066  1.0000
  H   H1436     1.0  0.72043  0.52786  0.85939  1.0000
  C   C818      1.0  0.51213  0.67789  0.94986  1.0000
  H   H1437     1.0  0.70337  0.80168  0.67613  1.0000
  H   H1438     1.0  0.58605  0.91235  0.89667  1.0000
  C   C819      1.0  0.60440  0.54867  0.88082  1.0000
  H   H1439     1.0  0.94204  0.73807  0.82739  1.0000
  H   H1440     1.0  0.88759  0.79306  0.76158  1.0000
  H   H1441     1.0  0.86951  0.74461  0.83327  1.0000
  H   H1442     1.0  0.70314  0.91272  0.84065  1.0000
  H   H1443     1.0  0.79384  0.85719  0.80092  1.0000
  C   C820      1.0  0.63026  0.72126  0.71623  1.0000
  H   H1444     1.0  0.55986  0.68811  0.82269  1.0000
  H   H1445     1.0  0.68738  0.53109  0.94892  1.0000
  H   H1446     1.0  0.54517  0.84719  0.65856  1.0000
  H   H1447     1.0  0.67141  0.76627  0.70794  1.0000
  H   H1448     1.0  0.93353  0.66177  0.83194  1.0000
  H   H1449     1.0  0.51138  0.68370  0.84332  1.0000
  H   H1450     1.0  0.50444  0.81782  0.66385  1.0000
  H   H1451     1.0  0.98207  0.71776  0.83637  1.0000
  N   N47       1.0  0.81148  0.78257  0.81105  1.0000
  H   H1452     1.0  0.67112  0.55291  0.93389  1.0000
  C   C821      1.0  0.82919  0.77571  0.78821  1.0000
  C   C822      1.0  0.78276  0.75180  0.81965  1.0000
  H   H1453     1.0  0.63603  0.72271  0.73891  1.0000
  H   H1454     1.0  0.65574  0.53985  0.88405  1.0000
  C   C823      1.0  0.78050  0.81191  0.82044  1.0000
  C   C824      1.0  0.78868  0.72490  0.82866  1.0000
  S   S190      1.0  0.60084  0.78667  0.66788  1.0000
  H   H1455     1.0  0.67624  0.73286  0.70204  1.0000
  H   H1456     1.0  0.88971  0.70979  0.84622  1.0000
  C   C825      1.0  0.66925  0.49924  0.89857  1.0000
  C   C826      1.0  0.75766  0.69433  0.83404  1.0000
  H   H1457     1.0  0.78538  0.79248  0.78090  1.0000
  H   H1458     1.0  0.50161  0.89948  0.96778  1.0000
  H   H1459     1.0  0.50975  0.84469  0.94684  1.0000
  H   H1460     1.0  0.81259  0.75524  0.77528  1.0000
  H   H1461     1.0  0.76565  0.74272  0.80216  1.0000
  H   H1462     1.0  0.77019  0.75525  0.83781  1.0000
  H   H1463     1.0  0.81706  0.79723  0.85474  1.0000
  H   H1464     1.0  0.83995  0.78048  0.84409  1.0000
  C   C827      1.0  0.84862  0.80204  0.76621  1.0000
  H   H1465     1.0  0.62287  0.50767  0.86844  1.0000
  H   H1466     1.0  0.75795  0.79060  0.82633  1.0000
  C   C828      1.0  0.55820  0.69164  0.84568  1.0000
  H   H1467     1.0  0.80215  0.73103  0.84843  1.0000
  H   H1468     1.0  0.80180  0.71989  0.81219  1.0000
  H   H1469     1.0  0.87866  0.82718  0.81940  1.0000
  H   H1470     1.0  0.86365  0.82524  0.77602  1.0000
  H   H1471     1.0  0.79377  0.82316  0.83981  1.0000
  H   H1472     1.0  0.51372  0.64903  0.84953  1.0000
  C   C829      1.0  0.86983  0.79410  0.74828  1.0000
  H   H1473     1.0  0.52016  0.88058  0.92859  1.0000
  C   C830      1.0  0.60960  0.92986  0.88802  1.0000
  C   C831      1.0  0.86117  0.82903  0.83317  1.0000
  C   C832      1.0  0.92115  0.65038  0.74308  1.0000
  H   H1474     1.0  0.91171  0.76701  0.83648  1.0000
  H   H1475     1.0  0.92066  0.62835  0.73670  1.0000
  H   H1476     1.0  0.74345  0.69769  0.85071  1.0000
  H   H1477     1.0  0.74391  0.68620  0.81436  1.0000
  H   H1478     1.0  0.76249  0.67570  0.84107  1.0000
  N   N48       1.0  0.65832  0.93192  0.82071  1.0000
  C   C833      1.0  0.65689  0.90079  0.82463  1.0000
  C   C834      1.0  0.63895  0.93044  0.79570  1.0000
  H   H1479     1.0  0.85573  0.77111  0.73756  1.0000
  C   C835      1.0  0.64793  0.94198  0.84702  1.0000
  C   C836      1.0  0.52376  0.67419  0.85538  1.0000
  C   C837      1.0  0.67814  0.89972  0.84780  1.0000
  C   C838      1.0  0.61558  0.91782  0.86009  1.0000
  C   C839      1.0  0.60908  0.89841  0.78940  1.0000
  H   H1480     1.0  0.53624  0.68663  0.94124  1.0000
  C   C840      1.0  0.66970  0.86590  0.85413  1.0000
  C   C841      1.0  0.90395  0.67533  0.78244  1.0000
  H   H1481     1.0  0.66356  0.89373  0.80448  1.0000
  H   H1482     1.0  0.63254  0.88162  0.82918  1.0000
  H   H1483     1.0  0.68773  0.98862  0.78525  1.0000
  H   H1484     1.0  0.88241  0.81248  0.73190  1.0000
  C   C842      1.0  0.66596  0.53312  0.94825  1.0000
  C   C843      1.0  0.51801  0.87010  0.94974  1.0000
  H   H1485     1.0  0.63213  0.94884  0.79741  1.0000
  H   H1486     1.0  0.61395  0.89496  0.86465  1.0000
  H   H1487     1.0  0.61017  0.95252  0.88488  1.0000
  H   H1488     1.0  0.62645  0.56891  0.87224  1.0000
  H   H1489     1.0  0.67577  0.91016  0.86783  1.0000
  H   H1490     1.0  0.68833  0.52413  0.90125  1.0000
  C   C844      1.0  0.90467  0.64559  0.77186  1.0000
  H   H1491     1.0  0.61605  0.88133  0.78188  1.0000
  H   H1492     1.0  0.59354  0.88804  0.80811  1.0000
  H   H1493     1.0  0.75822  0.84045  0.82207  1.0000
  H   H1494     1.0  0.64655  0.96345  0.84279  1.0000
  S   S191      1.0  0.52197  0.80227  0.98107  1.0000
  H   H1495     1.0  0.67014  0.85360  0.83451  1.0000
  H   H1496     1.0  0.68679  0.86589  0.86903  1.0000
  H   H1497     1.0  0.64590  0.85281  0.86408  1.0000
  H   H1498     1.0  0.56885  0.71727  0.84958  1.0000
  C   C845      1.0  0.75232  0.97986  0.73126  1.0000
  H   H1499     1.0  0.94601  0.66960  0.74361  1.0000
  S   S192      1.0  0.79453  0.54405  0.96953  1.0000
  H   H1500     1.0  0.53660  0.70209  0.89385  1.0000
  C   C846      1.0  0.92006  0.67442  0.83246  1.0000
  C   C847      1.0  0.95907  0.70407  0.79494  1.0000
  C   C848      1.0  0.69224  0.95632  0.81431  1.0000
  H   H1501     1.0  0.53084  0.66361  0.89708  1.0000
  H   H1502     1.0  0.59014  0.55788  0.89101  1.0000
  H   H1503     1.0  0.91553  0.63719  0.78720  1.0000
  C   C849      1.0  0.89213  0.74873  0.82393  1.0000
  H   H1504     1.0  0.96190  0.68335  0.79070  1.0000
  H   H1505     1.0  0.70714  0.95981  0.83285  1.0000
  C   C850      1.0  0.52050  0.67706  0.88778  1.0000
  H   H1506     1.0  0.87241  0.70059  0.81190  1.0000
  H   H1507     1.0  0.58133  0.91773  0.77267  1.0000
  C   C851      1.0  0.89278  0.71795  0.82401  1.0000
  H   H1508     1.0  0.87749  0.53643  0.97558  1.0000
  H   H1509     1.0  0.88834  0.65487  0.88486  1.0000
  H   H1510     1.0  0.90799  0.69113  0.76414  1.0000
  C   C852      1.0  0.58996  0.90164  0.76605  1.0000
  C   C853      1.0  0.66019  0.74221  0.69903  1.0000
  C   C854      1.0  0.87681  0.84187  0.86152  1.0000
  H   H1511     1.0  0.87925  0.66713  0.78876  1.0000
  C   C855      1.0  0.80007  0.80365  0.79972  1.0000
  C   C856      1.0  0.69863  0.98951  0.80575  1.0000
  H   H1512     1.0  0.88345  0.82561  0.87127  1.0000
  C   C857      1.0  0.97939  0.78659  0.74462  1.0000
  H   H1513     1.0  0.96333  0.71640  0.77438  1.0000
  H   H1514     1.0  0.66584  0.94917  0.86370  1.0000
  H   H1515     1.0  0.83250  0.80446  0.75173  1.0000
  H   H1516     1.0  0.89710  0.62535  0.87157  1.0000
  H   H1517     1.0  0.90881  0.65600  0.72683  1.0000
  H   H1518     1.0  0.50380  0.72000  0.86333  1.0000
  H   H1519     1.0  0.62751  0.93318  0.90366  1.0000
  H   H1520     1.0  0.59651  0.91411  0.84581  1.0000
  H   H1521     1.0  0.75796  0.82429  0.78786  1.0000
  C   C858      1.0  0.49442  0.87427  0.96797  1.0000
  H   H1522     1.0  0.81984  0.82634  0.79195  1.0000
  H   H1523     1.0  0.71743  0.76288  0.67313  1.0000
  H   H1524     1.0  0.54155  0.88186  0.95948  1.0000
  C   C859      1.0  0.65265  0.74269  0.66753  1.0000
  H   H1525     1.0  0.72843  0.71938  0.68087  1.0000
  C   C860      1.0  0.98647  0.72640  0.81429  1.0000
  H   H1526     1.0  0.63599  0.75174  0.66694  1.0000
  C   C861      1.0  0.99004  0.74117  0.71987  1.0000
  C   C862      1.0  0.65978  0.54136  0.97793  1.0000
  H   H1527     1.0  0.63909  0.54469  0.97825  1.0000
  H   H1528     1.0  0.67545  0.70337  0.66296  1.0000
  H   H1529     1.0  0.98967  0.75044  0.81388  1.0000
  H   H1530     1.0  0.68058  0.56361  0.98488  1.0000
  H   H1531     1.0  0.63880  0.71788  0.66016  1.0000
  H   H1532     1.0  0.51346  0.64216  0.97589  1.0000
  H   H1533     1.0  0.61595  0.50058  0.94526  1.0000
  H   H1534     1.0  0.66324  0.49950  0.85250  1.0000
  H   H1535     1.0  0.83532  0.51692  0.97599  1.0000
  C   C863      1.0  0.50979  0.66257  0.97839  1.0000
  H   H1536     1.0  0.68220  0.57762  0.65745  1.0000
  C   C864      1.0  0.85646  0.53047  0.98899  1.0000
