data_image0
_chemical_formula_structural       SHSFeS2FeS2FeSFeS3FeS2FeS2FeSFeS3C2HC3H2CHC6H4C2H2CH2C3H2C2H3C6H4C6H7FeH5CH3C2HCH3C3H2CH2CNC6HC5H13CH2C2H8C2H5CH4NC3H2CH9CHNC5H6CH2C2HCH3CH2CNC6HC4H20CH11C2H6CH3NH3CHFeCH2CNCH8CHCH2CH4C2H4SHCHCH6C2H4CHCHCH2FeCSCHSFeSHFeS2FeS2FeSFeS3FeS2FeS2FeSFeS3C6H7C3H2C3H2C6H4C6H4CNC3H2CSC2H2CH4C2H4CH2CH3CH4C2HCHCH3C3H6NCHC3HCHCH2CH7CH7CNC4H2C3HC2H10CH13CH2C3H2CNH4CH6CSHCHC2H2CH3CH4CH2CHCH14S2HSHFeS2FeS2FeSFeS3CHC2H6C2HC3H4C3H2C6H6C3HC2H2C2H6SH3NH2NHC3HCH3CH3CH14CH2CHC3SC3H2CHCH4CH2CHNH4FeH8CHSH8CHCHC2H2SH5C2H2CH2NC6H2C3HCHC2H4C2H3CH2CH4CHCHC2FeCSFeCSHFeS3NSC2H4FeS2FeS2FeSFeS3C2HCHC3H2CH2CH2C3H6C3H6C7H4NC7H3CSH4C2H9CH4CH10CHCH3FeCH5NH2CHFeH4CHCHCHSH2CHCH2CH8C2H3FeHC2H3NC11H9CH2CSCH9CH3CHCH2FeHCHSCH3FeS2FeS2FeSFeS3C2HCHC3H2CHCH2C2H4C7H5CH5C2H2CH6SCH2CH2CHCHCH6C2NHCNHCH3CH4CHCH2CSH4CHC2H9CNHCH4C2HNCH2C3HC2H12CSH2CHNHCH3FeC2H2C2H6C3H12C2H3CHCH2C3H2C2HCSHCH3CHCFeCHCH6CHCSHFeSH2SCH2FeC2H2SFeS2FeS2FeSFeS3C4H3C6H2NH3C2H4C3H5CH3C7H5CHFeH12CH3Fe2SCH9C2SC4HCH2FeC2HC2H3CSH6CHCH6CH5C2H4CNCNC6H3C3H2CHNH7CHCH5CH5CSHSH2CHCH2CH2SH2C4HSH2CH5C2SCNSFeS2FeS2FeSFeS3FeS2FeS2FeSFeS3C2HC2H3C2H2CH3C7H4C2H3C6H4C6H4CH6CHCHCH4C5H3NC9HC2H26CH5CH5CHC2H5CH2CH3CH3CH2CH7CHCNHCH2C5H3CH3CHNC4H4CH3CHCHCH4CH2CFeHCH6CHC2H6CH5CH2CHCH2CH2CFeH2CH2C2H2CFeHS2FeSHFeS2FeS2FeSFeS3FeS2FeS2FeSFeS3H2C3H3C2H2C7H4CH4C6H4C6H4CHCHNC6H9CH8NC3HC8H9CH11CH3CH2NC11H11NH8CH3C2H4CH2CH4NH2CH4SC4H2C2HCHCHCH4CH6CH2CH8CH2SH5CHCH3SHCH2CH3CHC2
_chemical_formula_sum              "S144 H1152 Fe72 C648 N36"
_cell_length_a       51.0208
_cell_length_b       50.6028
_cell_length_c       35.3994
_cell_angle_alpha    91.4572
_cell_angle_beta     87.1076
_cell_angle_gamma    119.794

_space_group_name_H-M_alt    "P 1"
_space_group_IT_number       1

loop_
  _space_group_symop_operation_xyz
  'x, y, z'

loop_
  _atom_site_type_symbol
  _atom_site_label
  _atom_site_symmetry_multiplicity
  _atom_site_fract_x
  _atom_site_fract_y
  _atom_site_fract_z
  _atom_site_occupancy
  S   S1        1.0  0.43337  0.19460  0.07106  1.0000
  H   H1        1.0  0.31372  0.20179  0.14840  1.0000
  S   S2        1.0  0.20644  0.42150  0.05002  1.0000
  Fe  Fe1       1.0  0.15048  0.33345  0.25350  1.0000
  S   S3        1.0  0.14558  0.29209  0.22281  1.0000
  S   S4        1.0  0.16273  0.37782  0.22215  1.0000
  Fe  Fe2       1.0  0.12923  0.29865  0.33082  1.0000
  S   S5        1.0  0.12291  0.25534  0.30346  1.0000
  S   S6        1.0  0.11091  0.29037  0.39228  1.0000
  Fe  Fe3       1.0  0.16729  0.28508  0.27276  1.0000
  S   S7        1.0  0.20844  0.27853  0.26778  1.0000
  Fe  Fe4       1.0  0.10158  0.26660  0.25690  1.0000
  S   S8        1.0  0.05858  0.23110  0.22950  1.0000
  S   S9        1.0  0.17491  0.32830  0.30210  1.0000
  S   S10       1.0  0.10528  0.30805  0.28575  1.0000
  Fe  Fe5       1.0  0.32003  0.16892  0.25828  1.0000
  S   S11       1.0  0.27213  0.13980  0.24041  1.0000
  S   S12       1.0  0.35810  0.20358  0.21802  1.0000
  Fe  Fe6       1.0  0.30234  0.14498  0.34130  1.0000
  S   S13       1.0  0.25378  0.11406  0.32814  1.0000
  S   S14       1.0  0.32017  0.14169  0.39820  1.0000
  Fe  Fe7       1.0  0.27151  0.10263  0.27485  1.0000
  S   S15       1.0  0.25566  0.05528  0.25087  1.0000
  Fe  Fe8       1.0  0.25818  0.15390  0.29538  1.0000
  S   S16       1.0  0.21710  0.16039  0.30411  1.0000
  S   S17       1.0  0.32024  0.13090  0.28950  1.0000
  S   S18       1.0  0.30600  0.18576  0.31162  1.0000
  C   C1        1.0  0.31258  0.15164  0.44446  1.0000
  C   C2        1.0  0.08342  0.34188  0.46068  1.0000
  H   H2        1.0  0.13745  0.39339  0.05219  1.0000
  C   C3        1.0  0.20242  0.29440  0.38953  1.0000
  C   C4        1.0  0.37951  0.24632  0.03172  1.0000
  C   C5        1.0  0.29509  0.16568  0.45094  1.0000
  H   H3        1.0  0.33885  0.13513  0.47088  1.0000
  H   H4        1.0  0.40432  0.18886  0.30601  1.0000
  C   C6        1.0  0.29301  0.46873  0.04994  1.0000
  H   H5        1.0  0.28515  0.17021  0.42743  1.0000
  C   C7        1.0  0.21504  0.19328  0.29314  1.0000
  C   C8        1.0  0.24022  0.21978  0.27912  1.0000
  C   C9        1.0  0.23768  0.24556  0.27126  1.0000
  C   C10       1.0  0.20997  0.24508  0.27710  1.0000
  C   C11       1.0  0.18470  0.21848  0.29085  1.0000
  C   C12       1.0  0.18728  0.19274  0.29891  1.0000
  H   H6        1.0  0.26169  0.22049  0.27451  1.0000
  H   H7        1.0  0.25734  0.26605  0.26065  1.0000
  H   H8        1.0  0.16325  0.21781  0.29540  1.0000
  H   H9        1.0  0.16767  0.17230  0.30971  1.0000
  C   C13       1.0  0.13059  0.30403  0.43465  1.0000
  C   C14       1.0  0.11884  0.28596  0.46737  1.0000
  H   H10       1.0  0.99881  0.18538  0.21035  1.0000
  H   H11       1.0  0.16168  0.22879  0.47641  1.0000
  C   C15       1.0  0.15565  0.33321  0.43746  1.0000
  H   H12       1.0  0.09969  0.26325  0.46535  1.0000
  H   H13       1.0  0.16474  0.34751  0.41260  1.0000
  C   C16       1.0  0.20388  0.02166  0.29613  1.0000
  C   C17       1.0  0.22437  0.02132  0.26864  1.0000
  C   C18       1.0  0.25782  0.03806  0.37293  1.0000
  H   H14       1.0  0.20807  0.04296  0.30884  1.0000
  H   H15       1.0  0.02085  0.24483  0.34866  1.0000
  C   C19       1.0  0.02053  0.25293  0.25486  1.0000
  C   C20       1.0  0.02313  0.22927  0.23715  1.0000
  H   H16       1.0  0.39847  0.24901  0.04890  1.0000
  H   H17       1.0  0.04040  0.27260  0.26510  1.0000
  H   H18       1.0  0.25389  0.47381  0.08879  1.0000
  C   C21       1.0  0.19462  0.41019  0.09819  1.0000
  C   C22       1.0  0.19285  0.38318  0.11105  1.0000
  C   C23       1.0  0.18346  0.37306  0.14878  1.0000
  C   C24       1.0  0.17555  0.38979  0.17432  1.0000
  C   C25       1.0  0.17744  0.41687  0.16149  1.0000
  C   C26       1.0  0.18682  0.42697  0.12375  1.0000
  H   H19       1.0  0.19881  0.36994  0.09164  1.0000
  H   H20       1.0  0.18242  0.35236  0.15810  1.0000
  H   H21       1.0  0.17138  0.43005  0.18085  1.0000
  H   H22       1.0  0.18759  0.44749  0.11428  1.0000
  C   C27       1.0  0.41280  0.19793  0.11181  1.0000
  C   C28       1.0  0.39249  0.17142  0.13227  1.0000
  C   C29       1.0  0.37563  0.17263  0.16463  1.0000
  C   C30       1.0  0.37886  0.20050  0.17729  1.0000
  C   C31       1.0  0.39913  0.22703  0.15680  1.0000
  C   C32       1.0  0.41583  0.22578  0.12424  1.0000
  H   H23       1.0  0.38986  0.14971  0.12309  1.0000
  H   H24       1.0  0.36024  0.15197  0.17986  1.0000
  H   H25       1.0  0.40188  0.24875  0.16608  1.0000
  H   H26       1.0  0.43131  0.24642  0.10905  1.0000
  H   H27       1.0  0.21786  0.06442  0.45618  1.0000
  H   H28       1.0  0.09736  0.37291  0.04548  1.0000
  H   H29       1.0  0.99433  0.21686  0.40772  1.0000
  Fe  Fe9       1.0  0.21955  0.46159  0.00903  1.0000
  H   H30       1.0  0.17450  0.28217  0.45620  1.0000
  H   H31       1.0  0.36052  0.18910  0.07283  1.0000
  H   H32       1.0  0.08284  0.32592  0.43818  1.0000
  H   H33       1.0  0.21286  0.07584  0.21390  1.0000
  H   H34       1.0  0.00011  0.26518  0.35059  1.0000
  C   C33       1.0  0.17225  0.23938  0.40038  1.0000
  H   H35       1.0  0.11907  0.35332  0.04175  1.0000
  H   H36       1.0  0.99053  0.27005  0.27185  1.0000
  H   H37       1.0  0.27473  0.42882  0.18119  1.0000
  C   C34       1.0  0.36133  0.16574  0.99774  1.0000
  C   C35       1.0  0.33636  0.24475  0.41278  1.0000
  H   H38       1.0  0.07999  0.35960  0.44762  1.0000
  C   C36       1.0  0.03314  0.27802  0.39255  1.0000
  H   H39       1.0  0.36841  0.14218  0.34229  1.0000
  H   H40       1.0  0.18548  0.99792  0.17112  1.0000
  H   H41       1.0  0.32402  0.17346  0.05456  1.0000
  C   C37       1.0  0.99873  0.24788  0.13418  1.0000
  C   C38       1.0  0.99698  0.20375  0.22421  1.0000
  C   C39       1.0  0.27700  0.41635  0.15610  1.0000
  H   H42       1.0  0.25521  0.43180  0.11925  1.0000
  H   H43       1.0  0.22114  0.24072  0.35918  1.0000
  C   C40       1.0  0.27692  0.43184  0.11968  1.0000
  H   H44       1.0  0.25190  0.32459  0.39229  1.0000
  H   H45       1.0  0.24958  0.04632  0.39760  1.0000
  C   C41       1.0  0.23306  0.34975  0.36918  1.0000
  N   N1        1.0  0.07709  0.32144  0.14698  1.0000
  C   C42       1.0  0.08351  0.34638  0.17570  1.0000
  C   C43       1.0  0.08039  0.33493  0.10825  1.0000
  C   C44       1.0  0.04464  0.29679  0.15398  1.0000
  C   C45       1.0  0.09858  0.30939  0.15204  1.0000
  C   C46       1.0  0.10731  0.29648  0.11625  1.0000
  C   C47       1.0  0.07866  0.33693  0.21807  1.0000
  H   H46       1.0  0.32130  0.23153  0.43714  1.0000
  C   C48       1.0  0.11083  0.36448  0.09946  1.0000
  C   C49       1.0  0.11633  0.37129  0.05709  1.0000
  C   C50       1.0  0.12511  0.28089  0.12626  1.0000
  C   C51       1.0  0.05021  0.33524  0.23695  1.0000
  C   C52       1.0  0.42839  0.24962  0.40751  1.0000
  H   H47       1.0  0.07038  0.35798  0.17007  1.0000
  H   H48       1.0  0.10762  0.36468  0.17266  1.0000
  H   H49       1.0  0.07716  0.31823  0.08555  1.0000
  H   H50       1.0  0.06216  0.34060  0.10459  1.0000
  H   H51       1.0  0.29357  0.17376  0.11269  1.0000
  H   H52       1.0  0.04093  0.28758  0.18312  1.0000
  H   H53       1.0  0.12032  0.32747  0.16324  1.0000
  H   H54       1.0  0.08922  0.29127  0.17412  1.0000
  H   H55       1.0  0.12184  0.31505  0.09608  1.0000
  H   H56       1.0  0.08727  0.27966  0.10121  1.0000
  H   H57       1.0  0.07819  0.31512  0.22213  1.0000
  H   H58       1.0  0.09813  0.35432  0.23387  1.0000
  H   H59       1.0  0.05986  0.28327  0.48613  1.0000
  C   C53       1.0  0.03293  0.26832  0.12828  1.0000
  H   H60       1.0  0.11075  0.38426  0.11374  1.0000
  H   H61       1.0  0.13006  0.36283  0.10981  1.0000
  C   C54       1.0  0.31628  0.18921  0.12361  1.0000
  C   C55       1.0  0.31394  0.22151  0.00944  1.0000
  H   H62       1.0  0.28165  0.04414  0.37677  1.0000
  H   H63       1.0  0.14676  0.29755  0.13878  1.0000
  H   H64       1.0  0.11171  0.26192  0.14652  1.0000
  H   H65       1.0  0.13042  0.27138  0.10026  1.0000
  H   H66       1.0  0.02952  0.31734  0.22396  1.0000
  H   H67       1.0  0.04889  0.32962  0.26737  1.0000
  H   H68       1.0  0.27488  0.25782  0.34577  1.0000
  H   H69       1.0  0.05109  0.35754  0.23494  1.0000
  C   C56       1.0  0.23800  0.26202  0.37277  1.0000
  C   C57       1.0  0.33688  0.21176  0.09300  1.0000
  H   H70       1.0  0.07892  0.07672  0.21616  1.0000
  H   H71       1.0  0.19340  0.03058  0.14310  1.0000
  H   H72       1.0  0.40041  0.28623  0.30656  1.0000
  H   H73       1.0  0.35173  0.15272  0.02444  1.0000
  H   H74       1.0  0.98426  0.20579  0.32172  1.0000
  C   C58       1.0  0.41421  0.30036  0.00824  1.0000
  H   H75       1.0  0.22985  0.33396  0.42560  1.0000
  H   H76       1.0  0.25352  0.37194  0.37470  1.0000
  H   H77       1.0  0.32218  0.24590  0.39078  1.0000
  H   H78       1.0  0.36806  0.25631  0.04932  1.0000
  N   N2        1.0  0.19824  0.26865  0.41438  1.0000
  C   C59       1.0  0.22615  0.26544  0.41285  1.0000
  C   C60       1.0  0.19220  0.27538  0.45469  1.0000
  C   C61       1.0  0.41321  0.27908  0.25035  1.0000
  H   H79       1.0  0.44495  0.25254  0.34909  1.0000
  H   H80       1.0  0.20272  0.28845  0.35901  1.0000
  C   C62       1.0  0.39184  0.15711  0.35135  1.0000
  H   H81       1.0  0.22182  0.24493  0.42888  1.0000
  H   H82       1.0  0.24493  0.28490  0.42740  1.0000
  H   H83       1.0  0.43772  0.29076  0.30109  1.0000
  H   H84       1.0  0.42429  0.30342  0.24206  1.0000
  H   H85       1.0  0.17070  0.21939  0.41497  1.0000
  H   H86       1.0  0.14067  0.25469  0.38572  1.0000
  H   H87       1.0  0.28177  0.42153  0.99971  1.0000
  H   H88       1.0  0.40143  0.30936  0.02519  1.0000
  H   H89       1.0  0.47551  0.26039  0.40525  1.0000
  C   C63       1.0  0.42725  0.25552  0.36509  1.0000
  H   H90       1.0  0.42767  0.20317  0.34648  1.0000
  N   N3        1.0  0.39705  0.23696  0.34742  1.0000
  C   C64       1.0  0.38424  0.20318  0.35305  1.0000
  C   C65       1.0  0.37486  0.24681  0.36266  1.0000
  C   C66       1.0  0.40156  0.24290  0.30531  1.0000
  C   C67       1.0  0.41386  0.27649  0.29317  1.0000
  C   C68       1.0  0.35375  0.22918  0.39713  1.0000
  H   H91       1.0  0.21867  0.03399  0.17947  1.0000
  H   H92       1.0  0.36207  0.19032  0.33953  1.0000
  H   H93       1.0  0.37910  0.19697  0.38341  1.0000
  H   H94       1.0  0.38698  0.27147  0.37003  1.0000
  H   H95       1.0  0.35913  0.24458  0.34043  1.0000
  H   H96       1.0  0.37983  0.22842  0.29123  1.0000
  C   C69       1.0  0.46071  0.26767  0.42086  1.0000
  H   H97       1.0  0.33681  0.20590  0.38822  1.0000
  H   H98       1.0  0.36616  0.22697  0.42046  1.0000
  C   C70       1.0  0.32513  0.14581  0.47555  1.0000
  C   C71       1.0  0.19463  0.02295  0.17176  1.0000
  H   H99       1.0  0.29816  0.41528  0.15733  1.0000
  C   C72       1.0  0.40412  0.18968  0.33741  1.0000
  H   H100      1.0  0.41779  0.23628  0.29242  1.0000
  H   H101      1.0  0.41464  0.25723  0.42482  1.0000
  H   H102      1.0  0.12112  0.20236  0.35996  1.0000
  C   C73       1.0  0.00911  0.25373  0.36782  1.0000
  H   H103      1.0  0.17711  0.02084  0.22807  1.0000
  H   H104      1.0  0.18652  0.36769  0.47520  1.0000
  C   C74       1.0  0.23903  0.08273  0.46807  1.0000
  N   N4        1.0  0.17121  0.07611  0.22891  1.0000
  C   C75       1.0  0.18831  0.11047  0.22944  1.0000
  C   C76       1.0  0.16993  0.06481  0.26841  1.0000
  C   C77       1.0  0.18932  0.06564  0.20402  1.0000
  C   C78       1.0  0.13994  0.06302  0.21388  1.0000
  C   C79       1.0  0.12315  0.08129  0.22184  1.0000
  C   C80       1.0  0.19740  0.12644  0.19032  1.0000
  H   H105      1.0  0.29031  0.48337  0.02932  1.0000
  C   C81       1.0  0.15299  0.07318  0.29969  1.0000
  C   C82       1.0  0.15777  0.06441  0.33874  1.0000
  C   C83       1.0  0.09014  0.06285  0.21112  1.0000
  C   C84       1.0  0.20746  0.16030  0.19420  1.0000
  H   H106      1.0  0.03761  0.27431  0.09788  1.0000
  H   H107      1.0  0.20954  0.11875  0.24459  1.0000
  H   H108      1.0  0.17565  0.11969  0.24606  1.0000
  H   H109      1.0  0.15854  0.03956  0.26911  1.0000
  H   H110      1.0  0.19340  0.07330  0.27756  1.0000
  H   H111      1.0  0.35802  0.22883  0.10631  1.0000
  H   H112      1.0  0.19147  0.07372  0.17452  1.0000
  H   H113      1.0  0.14075  0.06053  0.18253  1.0000
  H   H114      1.0  0.12516  0.03945  0.22488  1.0000
  H   H115      1.0  0.13387  0.10253  0.20484  1.0000
  H   H116      1.0  0.12346  0.08796  0.25185  1.0000
  H   H117      1.0  0.21683  0.12487  0.17718  1.0000
  H   H118      1.0  0.17845  0.11578  0.17086  1.0000
  H   H119      1.0  0.29812  0.20778  0.03296  1.0000
  H   H120      1.0  0.08863  0.05644  0.18073  1.0000
  H   H121      1.0  0.16085  0.09787  0.30051  1.0000
  H   H122      1.0  0.12834  0.06032  0.29529  1.0000
  H   H123      1.0  0.18208  0.07742  0.34525  1.0000
  H   H124      1.0  0.14485  0.06994  0.36062  1.0000
  H   H125      1.0  0.14980  0.03963  0.34006  1.0000
  C   C85       1.0  0.34477  0.19547  0.06032  1.0000
  H   H126      1.0  0.21437  0.17135  0.16597  1.0000
  H   H127      1.0  0.18875  0.16349  0.20653  1.0000
  H   H128      1.0  0.22707  0.17177  0.21270  1.0000
  H   H129      1.0  0.39185  0.15653  0.38271  1.0000
  H   H130      1.0  0.99116  0.22649  0.11776  1.0000
  H   H131      1.0  0.32548  0.22391  0.08334  1.0000
  H   H132      1.0  0.07787  0.04189  0.22863  1.0000
  H   H133      1.0  0.28509  0.28141  0.38751  1.0000
  H   H134      1.0  0.25747  0.39276  0.15705  1.0000
  H   H135      1.0  0.09410  0.20560  0.39165  1.0000
  H   H136      1.0  0.35220  0.26810  0.42281  1.0000
  C   C86       1.0  0.23082  0.32575  0.39648  1.0000
  C   C87       1.0  0.26699  0.26032  0.37478  1.0000
  H   H137      1.0  0.26279  0.24029  0.39172  1.0000
  H   H138      1.0  0.17621  0.23605  0.36987  1.0000
  H   H139      1.0  0.24305  0.28142  0.35413  1.0000
  H   H140      1.0  0.04306  0.26779  0.41046  1.0000
  H   H141      1.0  0.38949  0.26767  0.24135  1.0000
  H   H142      1.0  0.13449  0.24019  0.43316  1.0000
  C   C88       1.0  0.14080  0.23715  0.40362  1.0000
  H   H143      1.0  0.21295  0.35274  0.37311  1.0000
  H   H144      1.0  0.18271  0.29812  0.39352  1.0000
  H   H145      1.0  0.11447  0.18764  0.40777  1.0000
  N   N5        1.0  0.35858  0.21294  0.02379  1.0000
  H   H146      1.0  0.02938  0.30653  0.15198  1.0000
  H   H147      1.0  0.23485  0.34302  0.33943  1.0000
  H   H148      1.0  0.04358  0.25469  0.13569  1.0000
  C   C89       1.0  0.11619  0.20621  0.38990  1.0000
  H   H149      1.0  0.32602  0.17534  0.13328  1.0000
  Fe  Fe10      1.0  0.46582  0.22604  0.02326  1.0000
  C   C90       1.0  0.23781  0.00364  0.36802  1.0000
  H   H150      1.0  0.25731  0.04995  0.34724  1.0000
  H   H151      1.0  0.39760  0.20658  0.02195  1.0000
  C   C91       1.0  0.17627  0.03064  0.20089  1.0000
  N   N6        1.0  0.30099  0.48449  0.08795  1.0000
  C   C92       1.0  0.16784  0.34466  0.47303  1.0000
  H   H152      1.0  0.32718  0.24557  0.01855  1.0000
  H   H153      1.0  0.99249  0.24184  0.16450  1.0000
  H   H154      1.0  0.42025  0.22527  0.41327  1.0000
  H   H155      1.0  0.43507  0.28025  0.36279  1.0000
  H   H156      1.0  0.32480  0.46277  0.10907  1.0000
  H   H157      1.0  0.25820  0.07907  0.45921  1.0000
  H   H158      1.0  0.43279  0.30209  0.02511  1.0000
  H   H159      1.0  0.02330  0.28931  0.41090  1.0000
  C   C93       1.0  0.99219  0.25136  0.25875  1.0000
  H   H160      1.0  0.42533  0.26850  0.23525  1.0000
  C   C94       1.0  0.37761  0.20066  0.00493  1.0000
  H   H161      1.0  0.05167  0.29562  0.37429  1.0000
  H   H162      1.0  0.30877  0.47537  0.14454  1.0000
  C   C95       1.0  0.30430  0.46465  0.11615  1.0000
  H   H163      1.0  0.27752  0.41772  0.09546  1.0000
  H   H164      1.0  0.24607  0.99724  0.34174  1.0000
  H   H165      1.0  0.27050  0.44770  0.05177  1.0000
  H   H166      1.0  0.24369  0.10482  0.45618  1.0000
  C   C96       1.0  0.31585  0.46001  0.03120  1.0000
  C   C97       1.0  0.33441  0.20803  0.99712  1.0000
  H   H167      1.0  0.31997  0.44540  0.05001  1.0000
  H   H168      1.0  0.15248  0.01895  0.19229  1.0000
  H   H169      1.0  0.25718  0.47054  0.15550  1.0000
  H   H170      1.0  0.40620  0.14790  0.33933  1.0000
  S   S19       1.0  0.46259  0.26480  0.99921  1.0000
  H   H171      1.0  0.33773  0.48067  0.02385  1.0000
  C   C98       1.0  0.21912  0.99330  0.25330  1.0000
  H   H172      1.0  0.46084  0.26350  0.45150  1.0000
  C   C99       1.0  0.29077  0.17433  0.48795  1.0000
  H   H173      1.0  0.10612  0.35320  0.47293  1.0000
  H   H174      1.0  0.20093  0.24316  0.48514  1.0000
  H   H175      1.0  0.21451  0.99908  0.36431  1.0000
  H   H176      1.0  0.40123  0.16076  0.99979  1.0000
  H   H177      1.0  0.98865  0.31514  0.19125  1.0000
  H   H178      1.0  0.31877  0.18332  0.99288  1.0000
  C   C100      1.0  0.18304  0.24942  0.48377  1.0000
  C   C101      1.0  0.39323  0.26737  0.99653  1.0000
  H   H179      1.0  0.21264  0.29550  0.46556  1.0000
  H   H180      1.0  0.46999  0.29248  0.41660  1.0000
  H   H181      1.0  0.03658  0.31516  0.47813  1.0000
  H   H182      1.0  0.98674  0.25953  0.12437  1.0000
  C   C102      1.0  0.30402  0.44239  0.99446  1.0000
  H   H183      1.0  0.16145  0.99484  0.32730  1.0000
  C   C103      1.0  0.27601  0.49140  0.09968  1.0000
  H   H184      1.0  0.23490  0.99286  0.23204  1.0000
  C   C104      1.0  0.17761  0.99434  0.30673  1.0000
  H   H185      1.0  0.26258  0.99337  0.40773  1.0000
  H   H186      1.0  0.23094  0.99516  0.42743  1.0000
  Fe  Fe11      1.0  0.46134  0.24361  0.94152  1.0000
  C   C105      1.0  0.17822  0.25917  0.52359  1.0000
  S   S20       1.0  0.41952  0.23155  0.90655  1.0000
  C   C106      1.0  0.98553  0.24653  0.56119  1.0000
  H   H187      1.0  0.99258  0.25024  0.73560  1.0000
  S   S21       1.0  0.24518  0.45893  0.95648  1.0000
  Fe  Fe12      1.0  0.21755  0.47302  0.92383  1.0000
  S   S22       1.0  0.19208  0.44960  0.86982  1.0000
  H   H188      1.0  0.08248  0.22861  0.54942  1.0000
  Fe  Fe13      1.0  0.16289  0.32620  0.69546  1.0000
  S   S23       1.0  0.12885  0.27630  0.70498  1.0000
  S   S24       1.0  0.19313  0.35571  0.74357  1.0000
  Fe  Fe14      1.0  0.15358  0.31944  0.60801  1.0000
  S   S25       1.0  0.11916  0.27008  0.61299  1.0000
  S   S26       1.0  0.16956  0.34338  0.55061  1.0000
  Fe  Fe15      1.0  0.10051  0.28373  0.66386  1.0000
  S   S27       1.0  0.05175  0.27401  0.67095  1.0000
  Fe  Fe16      1.0  0.15085  0.26727  0.65293  1.0000
  S   S28       1.0  0.16599  0.23286  0.63605  1.0000
  S   S29       1.0  0.13360  0.33404  0.65697  1.0000
  S   S30       1.0  0.18621  0.31639  0.64548  1.0000
  Fe  Fe17      1.0  0.33386  0.18457  0.70382  1.0000
  S   S31       1.0  0.29145  0.14953  0.73387  1.0000
  S   S32       1.0  0.37930  0.20831  0.73361  1.0000
  Fe  Fe18      1.0  0.30181  0.17058  0.62617  1.0000
  S   S33       1.0  0.25799  0.13415  0.65270  1.0000
  S   S34       1.0  0.29852  0.18174  0.56466  1.0000
  Fe  Fe19      1.0  0.26747  0.16782  0.70000  1.0000
  S   S35       1.0  0.23212  0.17766  0.72820  1.0000
  Fe  Fe20      1.0  0.28618  0.11954  0.68361  1.0000
  S   S36       1.0  0.28328  0.07319  0.68713  1.0000
  S   S37       1.0  0.31032  0.20508  0.67290  1.0000
  S   S38       1.0  0.32956  0.15395  0.65392  1.0000
  C   C107      1.0  0.18448  0.21810  0.66254  1.0000
  C   C108      1.0  0.17874  0.21275  0.70146  1.0000
  C   C109      1.0  0.19356  0.20047  0.72124  1.0000
  C   C110      1.0  0.21421  0.19338  0.70234  1.0000
  C   C111      1.0  0.21983  0.19859  0.66339  1.0000
  C   C112      1.0  0.20474  0.21052  0.64358  1.0000
  H   H189      1.0  0.16226  0.21728  0.71606  1.0000
  H   H190      1.0  0.18873  0.19609  0.75125  1.0000
  H   H191      1.0  0.23551  0.19306  0.64842  1.0000
  H   H192      1.0  0.20894  0.21404  0.61337  1.0000
  H   H193      1.0  0.03129  0.29271  0.59983  1.0000
  H   H194      1.0  0.24076  0.04320  0.51518  1.0000
  H   H195      1.0  0.01935  0.21775  0.53281  1.0000
  C   C113      1.0  0.22322  0.03696  0.71010  1.0000
  C   C114      1.0  0.24912  0.03829  0.69299  1.0000
  C   C115      1.0  0.24836  0.01110  0.68157  1.0000
  H   H196      1.0  0.22364  0.05771  0.71938  1.0000
  H   H197      1.0  0.39034  0.13184  0.88976  1.0000
  C   C116      1.0  0.01760  0.21213  0.65569  1.0000
  C   C117      1.0  0.01831  0.23997  0.66050  1.0000
  C   C118      1.0  0.07598  0.34891  0.61779  1.0000
  H   H198      1.0  0.03813  0.21105  0.65789  1.0000
  H   H199      1.0  0.33115  0.15046  0.53596  1.0000
  C   C119      1.0  0.19242  0.42280  0.83573  1.0000
  C   C120      1.0  0.21392  0.41322  0.83504  1.0000
  C   C121      1.0  0.21362  0.39268  0.80685  1.0000
  C   C122      1.0  0.19174  0.38110  0.77901  1.0000
  C   C123      1.0  0.17004  0.39042  0.77995  1.0000
  C   C124      1.0  0.17051  0.41116  0.80793  1.0000
  H   H200      1.0  0.23098  0.42190  0.85599  1.0000
  H   H201      1.0  0.23059  0.38581  0.80655  1.0000
  H   H202      1.0  0.15310  0.38194  0.75885  1.0000
  H   H203      1.0  0.15378  0.41835  0.80796  1.0000
  C   C125      1.0  0.40895  0.22476  0.85819  1.0000
  C   C126      1.0  0.37841  0.21359  0.85002  1.0000
  C   C127      1.0  0.36884  0.20817  0.81235  1.0000
  C   C128      1.0  0.38976  0.21414  0.78203  1.0000
  C   C129      1.0  0.42025  0.22518  0.79021  1.0000
  C   C130      1.0  0.42977  0.23030  0.82791  1.0000
  H   H204      1.0  0.36203  0.20928  0.87303  1.0000
  H   H205      1.0  0.34537  0.19988  0.80673  1.0000
  H   H206      1.0  0.43674  0.23001  0.76716  1.0000
  H   H207      1.0  0.45332  0.23896  0.83347  1.0000
  C   C131      1.0  0.40329  0.15856  0.68169  1.0000
  N   N7        1.0  0.22726  0.05154  0.57117  1.0000
  C   C132      1.0  0.22654  0.05214  0.52869  1.0000
  C   C133      1.0  0.21885  0.01982  0.58346  1.0000
  C   C134      1.0  0.20542  0.06096  0.58826  1.0000
  H   H208      1.0  0.41987  0.17073  0.88299  1.0000
  H   H209      1.0  0.18898  0.09313  0.64065  1.0000
  C   C135      1.0  0.19863  0.05587  0.63150  1.0000
  S   S39       1.0  0.46356  0.20418  0.96596  1.0000
  C   C136      1.0  0.00978  0.26630  0.53037  1.0000
  C   C137      1.0  0.17819  0.06830  0.64625  1.0000
  H   H210      1.0  0.34290  0.15882  0.97787  1.0000
  H   H211      1.0  0.00291  0.28257  0.52049  1.0000
  C   C138      1.0  0.13137  0.29720  0.50276  1.0000
  H   H212      1.0  0.22182  0.01933  0.61435  1.0000
  H   H213      1.0  0.18349  0.04918  0.57406  1.0000
  H   H214      1.0  0.36024  0.14409  0.71027  1.0000
  H   H215      1.0  0.42060  0.15140  0.67777  1.0000
  C   C139      1.0  0.31480  0.09173  0.58286  1.0000
  C   C140      1.0  0.05741  0.21505  0.55044  1.0000
  H   H216      1.0  0.31402  0.25982  0.73179  1.0000
  H   H217      1.0  0.18694  0.03129  0.63869  1.0000
  H   H218      1.0  0.01250  0.22660  0.80120  1.0000
  H   H219      1.0  0.30562  0.02354  0.75255  1.0000
  C   C141      1.0  0.32060  0.15424  0.51260  1.0000
  H   H220      1.0  0.04095  0.25373  0.58709  1.0000
  H   H221      1.0  0.99194  0.26255  0.66098  1.0000
  C   C142      1.0  0.25846  0.07343  0.58458  1.0000
  H   H222      1.0  0.17416  0.06470  0.67731  1.0000
  H   H223      1.0  0.42612  0.14033  0.86626  1.0000
  H   H224      1.0  0.15605  0.05632  0.63269  1.0000
  C   C143      1.0  0.37741  0.13679  0.70848  1.0000
  H   H225      1.0  0.17715  0.00774  0.73029  1.0000
  H   H226      1.0  0.00790  0.25173  0.50539  1.0000
  H   H227      1.0  0.34094  0.02398  0.74232  1.0000
  H   H228      1.0  0.02361  0.26606  0.79237  1.0000
  C   C144      1.0  0.32610  0.02566  0.76520  1.0000
  C   C145      1.0  0.05874  0.32500  0.49144  1.0000
  H   H229      1.0  0.39437  0.15847  0.65368  1.0000
  C   C146      1.0  0.19692  0.00862  0.71626  1.0000
  H   H230      1.0  0.28047  0.19661  0.96714  1.0000
  C   C147      1.0  0.29475  0.22041  0.97700  1.0000
  H   H231      1.0  0.40032  0.11165  0.80560  1.0000
  H   H232      1.0  0.37090  0.13131  0.97390  1.0000
  H   H233      1.0  0.27906  0.27089  0.70026  1.0000
  C   C148      1.0  0.38876  0.13750  0.74853  1.0000
  C   C149      1.0  0.28672  0.28159  0.72833  1.0000
  C   C150      1.0  0.23597  0.08363  0.51119  1.0000
  H   H234      1.0  0.12192  0.28320  0.52774  1.0000
  H   H235      1.0  0.15016  0.25424  0.78568  1.0000
  H   H236      1.0  0.22972  0.29528  0.62050  1.0000
  H   H237      1.0  0.15931  0.26410  0.52461  1.0000
  H   H238      1.0  0.37089  0.08237  0.73974  1.0000
  H   H239      1.0  0.32754  0.11776  0.75755  1.0000
  N   N8        1.0  0.36572  0.11473  0.77652  1.0000
  C   C151      1.0  0.38201  0.11725  0.81208  1.0000
  H   H240      1.0  0.26839  0.01196  0.66849  1.0000
  C   C152      1.0  0.35342  0.08329  0.75912  1.0000
  C   C153      1.0  0.34076  0.12238  0.78338  1.0000
  C   C154      1.0  0.31747  0.10517  0.81611  1.0000
  H   H241      1.0  0.26339  0.09746  0.58305  1.0000
  C   C155      1.0  0.34302  0.05592  0.78629  1.0000
  H   H242      1.0  0.06546  0.36212  0.60838  1.0000
  C   C156      1.0  0.29491  0.11658  0.82223  1.0000
  H   H243      1.0  0.36677  0.10027  0.83350  1.0000
  H   H244      1.0  0.17251  0.24056  0.54403  1.0000
  C   C157      1.0  0.38320  0.15610  0.97999  1.0000
  H   H245      1.0  0.35041  0.14725  0.78833  1.0000
  H   H246      1.0  0.09945  0.36520  0.62576  1.0000
  H   H247      1.0  0.32859  0.10826  0.84323  1.0000
  H   H248      1.0  0.30409  0.08065  0.80927  1.0000
  H   H249      1.0  0.38002  0.15666  0.83742  1.0000
  H   H250      1.0  0.29896  0.33624  0.78915  1.0000
  H   H251      1.0  0.27044  0.01910  0.80876  1.0000
  C   C158      1.0  0.06267  0.29959  0.50930  1.0000
  H   H252      1.0  0.32807  0.05588  0.80997  1.0000
  H   H253      1.0  0.30989  0.39827  0.76151  1.0000
  H   H254      1.0  0.24291  0.02888  0.82763  1.0000
  H   H255      1.0  0.23454  0.01280  0.56988  1.0000
  H   H256      1.0  0.30681  0.14167  0.82645  1.0000
  H   H257      1.0  0.28031  0.11050  0.79763  1.0000
  H   H258      1.0  0.28010  0.10560  0.84771  1.0000
  C   C159      1.0  0.29633  0.26187  0.74909  1.0000
  N   N9        1.0  0.25194  0.30552  0.73613  1.0000
  C   C160      1.0  0.27772  0.33796  0.73715  1.0000
  C   C161      1.0  0.24055  0.29731  0.69649  1.0000
  C   C162      1.0  0.22666  0.30383  0.76209  1.0000
  C   C163      1.0  0.26056  0.28313  0.75039  1.0000
  H   H259      1.0  0.30160  0.45691  0.97349  1.0000
  H   H260      1.0  0.33429  0.07823  0.74080  1.0000
  C   C164      1.0  0.19549  0.27432  0.75999  1.0000
  C   C165      1.0  0.26415  0.31148  0.66291  1.0000
  C   C166      1.0  0.25115  0.29557  0.62560  1.0000
  H   H261      1.0  0.25964  0.06965  0.61506  1.0000
  C   C167      1.0  0.31724  0.38296  0.77332  1.0000
  C   C168      1.0  0.17229  0.27542  0.78808  1.0000
  H   H262      1.0  0.27027  0.35345  0.72581  1.0000
  H   H263      1.0  0.29708  0.34118  0.71830  1.0000
  H   H264      1.0  0.22812  0.27217  0.69289  1.0000
  H   H265      1.0  0.22382  0.30479  0.69181  1.0000
  H   H266      1.0  0.22293  0.32321  0.75633  1.0000
  H   H267      1.0  0.23283  0.30617  0.79217  1.0000
  H   H268      1.0  0.27339  0.35116  0.79612  1.0000
  H   H269      1.0  0.33376  0.09180  0.56593  1.0000
  H   H270      1.0  0.28137  0.04836  0.56256  1.0000
  H   H271      1.0  0.36307  0.05679  0.79857  1.0000
  C   C169      1.0  0.39662  0.14879  0.83199  1.0000
  H   H272      1.0  0.24103  0.25957  0.74948  1.0000
  H   H273      1.0  0.30697  0.30438  0.72452  1.0000
  H   H274      1.0  0.18637  0.27128  0.73144  1.0000
  H   H275      1.0  0.27086  0.33589  0.65991  1.0000
  H   H276      1.0  0.28487  0.31024  0.66682  1.0000
  H   H277      1.0  0.24676  0.27179  0.62603  1.0000
  H   H278      1.0  0.19713  0.25399  0.76697  1.0000
  H   H279      1.0  0.26757  0.30772  0.60181  1.0000
  H   H280      1.0  0.41597  0.16608  0.81451  1.0000
  H   H281      1.0  0.05063  0.19395  0.53369  1.0000
  H   H282      1.0  0.26590  0.28726  0.78077  1.0000
  H   H283      1.0  0.32592  0.39148  0.80183  1.0000
  H   H284      1.0  0.21981  0.06755  0.64695  1.0000
  C   C170      1.0  0.28511  0.07187  0.56349  1.0000
  H   H285      1.0  0.16918  0.29509  0.78191  1.0000
  H   H286      1.0  0.31894  0.00643  0.78513  1.0000
  C   C171      1.0  0.04418  0.30532  0.57379  1.0000
  C   C172      1.0  0.40891  0.14765  0.87005  1.0000
  C   C173      1.0  0.30350  0.16874  0.51904  1.0000
  H   H287      1.0  0.41408  0.18219  0.69293  1.0000
  H   H288      1.0  0.21421  0.08567  0.58316  1.0000
  C   C174      1.0  0.07662  0.32811  0.58612  1.0000
  N   N10       1.0  0.04189  0.28324  0.54292  1.0000
  H   H289      1.0  0.09096  0.34299  0.56241  1.0000
  H   H290      1.0  0.39725  0.16121  0.75884  1.0000
  H   H291      1.0  0.04902  0.20851  0.58023  1.0000
  H   H292      1.0  0.99138  0.23088  0.57503  1.0000
  C   C175      1.0  0.01612  0.24342  0.77910  1.0000
  H   H293      1.0  0.40890  0.13436  0.74533  1.0000
  H   H294      1.0  0.03324  0.31855  0.56572  1.0000
  H   H295      1.0  0.31396  0.08280  0.61149  1.0000
  H   H296      1.0  0.20329  0.03650  0.51933  1.0000
  H   H297      1.0  0.07602  0.27406  0.56248  1.0000
  H   H298      1.0  0.25787  0.10182  0.52134  1.0000
  C   C176      1.0  0.15539  0.32696  0.50601  1.0000
  S   S40       1.0  0.19016  0.47382  0.97619  1.0000
  H   H299      1.0  0.24275  0.01881  0.77843  1.0000
  C   C177      1.0  0.99148  0.24102  0.65759  1.0000
  H   H300      1.0  0.06024  0.34210  0.51270  1.0000
  C   C178      1.0  0.04410  0.23322  0.53392  1.0000
  C   C179      1.0  0.05128  0.26178  0.55833  1.0000
  H   H301      1.0  0.33590  0.38371  0.75493  1.0000
  H   H302      1.0  0.30571  0.27221  0.77675  1.0000
  C   C180      1.0  0.24666  0.01384  0.80737  1.0000
  H   H303      1.0  0.21862  0.09028  0.51863  1.0000
  H   H304      1.0  0.31933  0.11550  0.58546  1.0000
  H   H305      1.0  0.03443  0.24548  0.75886  1.0000
  C   C181      1.0  0.98726  0.23308  0.75786  1.0000
  H   H306      1.0  0.08767  0.31579  0.59673  1.0000
  H   H307      1.0  0.17962  0.27736  0.81752  1.0000
  H   H308      1.0  0.27760  0.18562  0.49254  1.0000
  H   H309      1.0  0.06321  0.33536  0.64325  1.0000
  C   C182      1.0  0.29068  0.35042  0.77649  1.0000
  H   H310      1.0  0.36714  0.11380  0.69554  1.0000
  H   H311      1.0  0.27682  0.23863  0.75392  1.0000
  C   C183      1.0  0.99004  0.18544  0.64903  1.0000
  H   H312      1.0  0.39367  0.16854  0.95307  1.0000
  C   C184      1.0  0.18655  0.99415  0.57430  1.0000
  H   H313      1.0  0.28819  0.08023  0.53401  1.0000
  H   H314      1.0  0.19902  0.27974  0.53278  1.0000
  H   H315      1.0  0.98954  0.16385  0.64607  1.0000
  H   H316      1.0  0.30942  0.23460  0.95291  1.0000
  H   H317      1.0  0.34470  0.21683  0.96841  1.0000
  H   H318      1.0  0.40655  0.26036  0.97751  1.0000
  H   H319      1.0  0.16903  0.00008  0.58348  1.0000
  H   H320      1.0  0.05349  0.23951  0.50459  1.0000
  H   H321      1.0  0.32024  0.43558  0.98218  1.0000
  H   H322      1.0  0.38699  0.21148  0.97695  1.0000
  H   H323      1.0  0.08666  0.30981  0.51687  1.0000
  H   H324      1.0  0.37524  0.26716  0.97997  1.0000
  H   H325      1.0  0.27969  0.22945  0.98679  1.0000
  H   H326      1.0  0.42445  0.31472  0.98258  1.0000
  S   S41       1.0  0.21995  0.77654  0.08328  1.0000
  S   S42       1.0  0.25362  0.51071  0.01847  1.0000
  H   H327      1.0  0.22860  0.49585  0.13459  1.0000
  S   S43       1.0  0.22912  0.56682  0.00663  1.0000
  H   H328      1.0  0.98733  0.67128  0.28153  1.0000
  Fe  Fe21      1.0  0.13616  0.83513  0.24843  1.0000
  S   S44       1.0  0.10126  0.85055  0.25127  1.0000
  S   S45       1.0  0.14320  0.82263  0.18679  1.0000
  Fe  Fe22      1.0  0.14012  0.83919  0.33627  1.0000
  S   S46       1.0  0.10539  0.85364  0.34327  1.0000
  S   S47       1.0  0.15982  0.83202  0.38934  1.0000
  Fe  Fe23      1.0  0.07945  0.81810  0.29985  1.0000
  S   S48       1.0  0.03015  0.78239  0.31233  1.0000
  Fe  Fe24      1.0  0.13060  0.88491  0.29426  1.0000
  S   S49       1.0  0.13848  0.93284  0.30444  1.0000
  S   S50       1.0  0.11270  0.80109  0.29579  1.0000
  S   S51       1.0  0.16695  0.87211  0.28852  1.0000
  C   C185      1.0  0.17225  0.96636  0.29110  1.0000
  H   H329      1.0  0.36938  0.57719  0.08067  1.0000
  C   C186      1.0  0.19337  0.96587  0.26482  1.0000
  C   C187      1.0  0.38887  0.66737  0.09770  1.0000
  H   H330      1.0  0.18942  0.94446  0.25254  1.0000
  H   H331      1.0  0.20841  0.96250  0.47872  1.0000
  H   H332      1.0  0.25866  0.95290  0.37055  1.0000
  H   H333      1.0  0.19716  0.89463  0.35929  1.0000
  H   H334      1.0  0.02057  0.80768  0.24370  1.0000
  H   H335      1.0  0.37638  0.54173  0.01229  1.0000
  C   C188      1.0  0.15359  0.84191  0.43637  1.0000
  C   C189      1.0  0.07539  0.88971  0.47998  1.0000
  H   H336      1.0  0.31643  0.70148  0.04895  1.0000
  C   C190      1.0  0.25231  0.88346  0.00210  1.0000
  C   C191      1.0  0.21873  0.88425  0.10429  1.0000
  C   C192      1.0  0.14173  0.86131  0.44359  1.0000
  H   H337      1.0  0.17112  0.81604  0.46209  1.0000
  H   H338      1.0  0.08014  0.79076  0.15725  1.0000
  H   H339      1.0  0.18147  0.97377  0.42910  1.0000
  H   H340      1.0  0.13516  0.86983  0.42032  1.0000
  C   C193      1.0  0.13882  0.87012  0.48097  1.0000
  C   C194      1.0  0.22147  0.90677  0.36529  1.0000
  C   C195      1.0  0.28883  0.85077  0.09300  1.0000
  H   H341      1.0  0.38455  0.67947  0.12160  1.0000
  H   H342      1.0  0.37174  0.76501  0.04471  1.0000
  C   C196      1.0  0.19651  0.78647  0.11275  1.0000
  C   C197      1.0  0.20528  0.79720  0.14971  1.0000
  C   C198      1.0  0.18906  0.80779  0.17306  1.0000
  C   C199      1.0  0.16382  0.80801  0.15969  1.0000
  C   C200      1.0  0.15475  0.79683  0.12294  1.0000
  C   C201      1.0  0.17075  0.78589  0.09981  1.0000
  H   H343      1.0  0.22510  0.79776  0.16021  1.0000
  H   H344      1.0  0.19641  0.81621  0.20118  1.0000
  H   H345      1.0  0.13520  0.79668  0.11222  1.0000
  H   H346      1.0  0.16340  0.77731  0.07178  1.0000
  H   H347      1.0  0.40107  0.70295  0.05593  1.0000
  H   H348      1.0  0.33266  0.73691  0.10363  1.0000
  C   C202      1.0  0.38439  0.67815  0.05907  1.0000
  C   C203      1.0  0.16181  0.83097  0.46726  1.0000
  C   C204      1.0  0.37180  0.76780  0.01452  1.0000
  H   H349      1.0  0.42244  0.58969  0.02667  1.0000
  C   C205      1.0  0.42121  0.67355  0.10058  1.0000
  C   C206      1.0  0.04121  0.69558  0.10557  1.0000
  H   H350      1.0  0.36558  0.71567  0.08040  1.0000
  H   H351      1.0  0.26244  0.90984  0.33878  1.0000
  C   C207      1.0  0.23362  0.94162  0.36867  1.0000
  C   C208      1.0  0.16371  0.80479  0.99240  1.0000
  H   H352      1.0  0.31263  0.86420  0.10148  1.0000
  H   H353      1.0  0.99340  0.70631  0.30409  1.0000
  H   H354      1.0  0.07607  0.71366  0.14559  1.0000
  H   H355      1.0  0.31499  0.58051  0.07877  1.0000
  H   H356      1.0  0.22608  0.90708  0.05047  1.0000
  H   H357      1.0  0.37818  0.58095  0.12979  1.0000
  S   S52       1.0  0.24580  0.73467  0.00843  1.0000
  H   H358      1.0  0.42339  0.66437  0.12767  1.0000
  H   H359      1.0  0.18926  0.83718  0.05727  1.0000
  H   H360      1.0  0.21325  0.92408  0.11367  1.0000
  N   N11       1.0  0.22022  0.95177  0.40111  1.0000
  H   H361      1.0  0.19411  0.86904  0.10135  1.0000
  H   H362      1.0  0.37364  0.64251  0.10140  1.0000
  N   N12       1.0  0.35290  0.67253  0.05281  1.0000
  H   H363      1.0  0.13125  0.74328  0.18467  1.0000
  C   C209      1.0  0.12538  0.74146  0.21551  1.0000
  C   C210      1.0  0.34657  0.69162  0.08142  1.0000
  C   C211      1.0  0.32911  0.63961  0.05899  1.0000
  H   H364      1.0  0.05756  0.69878  0.08174  1.0000
  C   C212      1.0  0.31683  0.69248  0.07697  1.0000
  H   H365      1.0  0.22516  0.66186  0.01426  1.0000
  H   H366      1.0  0.09416  0.76057  0.18048  1.0000
  H   H367      1.0  0.34280  0.52647  0.14094  1.0000
  C   C213      1.0  0.31351  0.71321  0.10665  1.0000
  H   H368      1.0  0.39177  0.66691  0.03710  1.0000
  H   H369      1.0  0.38878  0.55870  0.09875  1.0000
  H   H370      1.0  0.24426  0.50822  0.18042  1.0000
  C   C214      1.0  0.23579  0.89484  0.06507  1.0000
  H   H371      1.0  0.04480  0.76722  0.13451  1.0000
  H   H372      1.0  0.32691  0.63353  0.08943  1.0000
  H   H373      1.0  0.30641  0.63580  0.05226  1.0000
  H   H374      1.0  0.26224  0.53247  0.13977  1.0000
  H   H375      1.0  0.13216  0.72598  0.22806  1.0000
  H   H376      1.0  0.29674  0.66947  0.08043  1.0000
  H   H377      1.0  0.03213  0.84933  0.48412  1.0000
  H   H378      1.0  0.43732  0.69843  0.10000  1.0000
  H   H379      1.0  0.24136  0.62544  0.03352  1.0000
  H   H380      1.0  0.25925  0.91243  0.07107  1.0000
  H   H381      1.0  0.18568  0.94840  0.36481  1.0000
  H   H382      1.0  0.04110  0.73915  0.26377  1.0000
  H   H383      1.0  0.05941  0.82119  0.13204  1.0000
  H   H384      1.0  0.32965  0.52596  0.05659  1.0000
  C   C215      1.0  0.28062  0.87089  0.07062  1.0000
  H   H385      1.0  0.29218  0.71350  0.10271  1.0000
  H   H386      1.0  0.24657  0.92697  0.13384  1.0000
  C   C216      1.0  0.22577  0.95555  0.47474  1.0000
  H   H387      1.0  0.35836  0.70765  0.01412  1.0000
  C   C217      1.0  0.37111  0.56507  0.10533  1.0000
  C   C218      1.0  0.33057  0.51377  0.08192  1.0000
  C   C219      1.0  0.21742  0.64052  0.99933  1.0000
  S   S53       1.0  0.47457  0.73321  0.03355  1.0000
  C   C220      1.0  0.22273  0.93781  0.43720  1.0000
  C   C221      1.0  0.20262  0.84846  0.03104  1.0000
  C   C222      1.0  0.33344  0.61581  0.03532  1.0000
  H   H388      1.0  0.98838  0.76419  0.10537  1.0000
  H   H389      1.0  0.02907  0.69037  0.18340  1.0000
  C   C223      1.0  0.99758  0.77455  0.28792  1.0000
  H   H390      1.0  0.34933  0.50886  0.07573  1.0000
  C   C224      1.0  0.04974  0.80840  0.15891  1.0000
  H   H391      1.0  0.03609  0.70353  0.24707  1.0000
  H   H392      1.0  0.06862  0.74115  0.12565  1.0000
  H   H393      1.0  0.34528  0.68346  0.11066  1.0000
  H   H394      1.0  0.42727  0.66241  0.07699  1.0000
  C   C225      1.0  0.23848  0.98614  0.40297  1.0000
  H   H395      1.0  0.27393  0.84189  0.11896  1.0000
  H   H396      1.0  0.01474  0.71128  0.16130  1.0000
  C   C226      1.0  0.31123  0.58351  0.04895  1.0000
  H   H397      1.0  0.31456  0.56695  0.03113  1.0000
  N   N13       1.0  0.23527  0.87024  0.03941  1.0000
  H   H398      1.0  0.20967  0.90304  0.15576  1.0000
  H   H399      1.0  0.02513  0.80048  0.16097  1.0000
  H   H400      1.0  0.22816  0.87459  0.33046  1.0000
  H   H401      1.0  0.19211  0.86124  0.01974  1.0000
  Fe  Fe25      1.0  0.22386  0.76372  0.02077  1.0000
  H   H402      1.0  0.23306  0.84022  0.08305  1.0000
  H   H403      1.0  0.06574  0.90333  0.46919  1.0000
  H   H404      1.0  0.99806  0.73233  0.47937  1.0000
  H   H405      1.0  0.12580  0.91611  0.40098  1.0000
  H   H406      1.0  0.16575  0.93605  0.44922  1.0000
  H   H407      1.0  0.03358  0.78874  0.48683  1.0000
  H   H408      1.0  0.13834  0.76429  0.22874  1.0000
  H   H409      1.0  0.08676  0.72613  0.25370  1.0000
  C   C227      1.0  0.23810  0.89968  0.33305  1.0000
  H   H410      1.0  0.08393  0.88163  0.45537  1.0000
  S   S54       1.0  0.44798  0.65002  0.00056  1.0000
  H   H411      1.0  0.22755  0.87216  0.12066  1.0000
  H   H412      1.0  0.17484  0.91544  0.39126  1.0000
  H   H413      1.0  0.28644  0.83120  0.07549  1.0000
  H   H414      1.0  0.33069  0.77058  0.01773  1.0000
  H   H415      1.0  0.35646  0.61905  0.03711  1.0000
  H   H416      1.0  0.29040  0.50698  0.15847  1.0000
  H   H417      1.0  0.14095  0.95457  0.38383  1.0000
  H   H418      1.0  0.32731  0.67104  0.00498  1.0000
  C   C228      1.0  0.13852  0.94060  0.40885  1.0000
  H   H419      1.0  0.08952  0.77047  0.22702  1.0000
  C   C229      1.0  0.18758  0.94066  0.39319  1.0000
  H   H420      1.0  0.23581  0.90857  0.30577  1.0000
  C   C230      1.0  0.24998  0.50846  0.14969  1.0000
  C   C231      1.0  0.34840  0.77090  0.99928  1.0000
  H   H421      1.0  0.31270  0.70483  0.13563  1.0000
  H   H422      1.0  0.04816  0.77843  0.22069  1.0000
  S   S55       1.0  0.42395  0.76408  0.01236  1.0000
  H   H423      1.0  0.01639  0.75343  0.19413  1.0000
  H   H424      1.0  0.13045  0.88578  0.48601  1.0000
  H   H425      1.0  0.07926  0.70605  0.20932  1.0000
  H   H426      1.0  0.99022  0.72573  0.24136  1.0000
  H   H427      1.0  0.22423  0.89697  0.39146  1.0000
  C   C232      1.0  0.19677  0.82203  0.00318  1.0000
  C   C233      1.0  0.05536  0.78143  0.15966  1.0000
  H   H428      1.0  0.32884  0.61705  0.00531  1.0000
  H   H429      1.0  0.20321  0.91425  0.44091  1.0000
  C   C234      1.0  0.16960  0.94906  0.42280  1.0000
  H   H430      1.0  0.24323  0.93520  0.43534  1.0000
  H   H431      1.0  0.03074  0.67169  0.11565  1.0000
  N   N14       1.0  0.04768  0.73703  0.20298  1.0000
  C   C235      1.0  0.08124  0.75070  0.20741  1.0000
  C   C236      1.0  0.04104  0.76243  0.19611  1.0000
  C   C237      1.0  0.03180  0.72233  0.24021  1.0000
  C   C238      1.0  0.03585  0.71333  0.17198  1.0000
  C   C239      1.0  0.05773  0.71785  0.13738  1.0000
  C   C240      1.0  0.09146  0.72888  0.22260  1.0000
  H   H432      1.0  0.29637  0.87912  0.04540  1.0000
  H   H433      1.0  0.22946  0.94863  0.34104  1.0000
  C   C241      1.0  0.24765  0.85260  0.05813  1.0000
  C   C242      1.0  0.22239  0.91137  0.12819  1.0000
  C   C243      1.0  0.99900  0.78970  0.25470  1.0000
  H   H434      1.0  0.28756  0.57853  0.04655  1.0000
  C   C244      1.0  0.41249  0.61748  0.99173  1.0000
  H   H435      1.0  0.28427  0.89040  0.08893  1.0000
  C   C245      1.0  0.35114  0.68298  0.01378  1.0000
  C   C246      1.0  0.22661  0.61981  0.01016  1.0000
  H   H436      1.0  0.12530  0.94500  0.43149  1.0000
  H   H437      1.0  0.06084  0.82417  0.18274  1.0000
  H   H438      1.0  0.32420  0.54501  0.12059  1.0000
  H   H439      1.0  0.24835  0.97646  0.47494  1.0000
  C   C247      1.0  0.99685  0.70801  0.24244  1.0000
  C   C248      1.0  0.34059  0.53687  0.11494  1.0000
  H   H440      1.0  0.24690  0.83455  0.03897  1.0000
  H   H441      1.0  0.29551  0.91936  0.02506  1.0000
  H   H442      1.0  0.14832  0.79665  0.01799  1.0000
  C   C249      1.0  0.40625  0.59007  0.00840  1.0000
  H   H443      1.0  0.28044  0.51287  0.08600  1.0000
  H   H444      1.0  0.02343  0.69969  0.09493  1.0000
  C   C250      1.0  0.37989  0.56283  0.00057  1.0000
  H   H445      1.0  0.98630  0.69177  0.21890  1.0000
  H   H446      1.0  0.28202  0.67608  0.99211  1.0000
  H   H447      1.0  0.98497  0.82417  0.45068  1.0000
  H   H448      1.0  0.29098  0.71517  0.99630  1.0000
  C   C251      1.0  0.26959  0.49363  0.14275  1.0000
  H   H449      1.0  0.27187  0.93293  0.00789  1.0000
  C   C252      1.0  0.39533  0.76849  0.99115  1.0000
  H   H450      1.0  0.20156  0.80538  0.01660  1.0000
  C   C253      1.0  0.21680  0.59190  0.99116  1.0000
  C   C254      1.0  0.27984  0.91626  0.00271  1.0000
  Fe  Fe26      1.0  0.27206  0.76726  0.96099  1.0000
  C   C255      1.0  0.99649  0.76006  0.52659  1.0000
  S   S56       1.0  0.32059  0.78126  0.93982  1.0000
  Fe  Fe27      1.0  0.21603  0.77058  0.93573  1.0000
  C   C256      1.0  0.04062  0.84404  0.59939  1.0000
  S   S57       1.0  0.19439  0.79261  0.90081  1.0000
  H   H451      1.0  0.01174  0.86433  0.60771  1.0000
  Fe  Fe28      1.0  0.20997  0.71043  0.96617  1.0000
  S   S58       1.0  0.18632  0.65913  0.95427  1.0000
  S   S59       1.0  0.25323  0.79855  0.97602  1.0000
  S   S60       1.0  0.23688  0.74182  0.91773  1.0000
  N   N15       1.0  0.48071  0.64675  0.88146  1.0000
  S   S61       1.0  0.25207  0.52347  0.92763  1.0000
  C   C257      1.0  0.29252  0.69825  0.97719  1.0000
  C   C258      1.0  0.19607  0.98142  0.70482  1.0000
  H   H452      1.0  0.20026  0.91614  0.51152  1.0000
  H   H453      1.0  0.26009  0.86816  0.98885  1.0000
  H   H454      1.0  0.28328  0.92263  0.94159  1.0000
  H   H455      1.0  0.17732  0.96698  0.62525  1.0000
  Fe  Fe29      1.0  0.15480  0.84160  0.69806  1.0000
  S   S62       1.0  0.12819  0.85920  0.73123  1.0000
  S   S63       1.0  0.18221  0.82396  0.72876  1.0000
  Fe  Fe30      1.0  0.14061  0.85966  0.62131  1.0000
  S   S64       1.0  0.11311  0.87805  0.65168  1.0000
  S   S65       1.0  0.14139  0.87062  0.55828  1.0000
  Fe  Fe31      1.0  0.15038  0.89955  0.69224  1.0000
  S   S66       1.0  0.16326  0.94640  0.71628  1.0000
  Fe  Fe32      1.0  0.09300  0.83622  0.68769  1.0000
  S   S67       1.0  0.04384  0.81503  0.70945  1.0000
  S   S68       1.0  0.17932  0.88380  0.66069  1.0000
  S   S69       1.0  0.11810  0.81592  0.65568  1.0000
  C   C259      1.0  0.47555  0.62631  0.84741  1.0000
  C   C260      1.0  0.27654  0.69565  0.94089  1.0000
  H   H456      1.0  0.25192  0.96795  0.78073  1.0000
  C   C261      1.0  0.44166  0.57807  0.81101  1.0000
  H   H457      1.0  0.22147  0.96194  0.67835  1.0000
  C   C262      1.0  0.01135  0.78987  0.68465  1.0000
  C   C263      1.0  0.41413  0.66190  0.86780  1.0000
  C   C264      1.0  0.01278  0.77243  0.65426  1.0000
  H   H458      1.0  0.42848  0.60987  0.83234  1.0000
  H   H459      1.0  0.03412  0.77379  0.64603  1.0000
  C   C265      1.0  0.22497  0.98049  0.81761  1.0000
  H   H460      1.0  0.03312  0.86674  0.64806  1.0000
  H   H461      1.0  0.21766  0.96115  0.76158  1.0000
  C   C266      1.0  0.29783  0.92431  0.96486  1.0000
  H   H462      1.0  0.05681  0.76722  0.51830  1.0000
  H   H463      1.0  0.37888  0.68679  0.92056  1.0000
  C   C267      1.0  0.35851  0.56246  0.97700  1.0000
  C   C268      1.0  0.18771  0.60523  0.95099  1.0000
  C   C269      1.0  0.19737  0.58475  0.96134  1.0000
  H   H464      1.0  0.46190  0.69304  0.86506  1.0000
  H   H465      1.0  0.08270  0.85790  0.53641  1.0000
  H   H466      1.0  0.18939  0.56326  0.94669  1.0000
  H   H467      1.0  0.17239  0.59931  0.92820  1.0000
  H   H468      1.0  0.39672  0.63815  0.95329  1.0000
  H   H469      1.0  0.19577  0.95743  0.58669  1.0000
  C   C270      1.0  0.34850  0.77533  0.96040  1.0000
  C   C271      1.0  0.37213  0.77621  0.93706  1.0000
  C   C272      1.0  0.39523  0.77251  0.95221  1.0000
  H   H470      1.0  0.34847  0.58981  0.94115  1.0000
  H   H471      1.0  0.44976  0.66167  0.83285  1.0000
  H   H472      1.0  0.19094  0.67882  0.85532  1.0000
  H   H473      1.0  0.37276  0.78010  0.90706  1.0000
  H   H474      1.0  0.41321  0.77332  0.93385  1.0000
  H   H475      1.0  0.22935  0.56299  0.85654  1.0000
  C   C273      1.0  0.02028  0.79184  0.51073  1.0000
  C   C274      1.0  0.18445  0.81421  0.77663  1.0000
  C   C275      1.0  0.16374  0.81182  0.80578  1.0000
  C   C276      1.0  0.16714  0.80512  0.84327  1.0000
  C   C277      1.0  0.19068  0.79966  0.85229  1.0000
  C   C278      1.0  0.21101  0.80140  0.82300  1.0000
  C   C279      1.0  0.20799  0.80878  0.78566  1.0000
  H   H476      1.0  0.14484  0.81473  0.79938  1.0000
  H   H477      1.0  0.15107  0.80368  0.86539  1.0000
  H   H478      1.0  0.22932  0.79743  0.82916  1.0000
  H   H479      1.0  0.22406  0.81022  0.76352  1.0000
  N   N16       1.0  0.21257  0.92549  0.79883  1.0000
  C   C280      1.0  0.21362  0.90812  0.76398  1.0000
  C   C281      1.0  0.17998  0.91521  0.81031  1.0000
  C   C282      1.0  0.22742  0.95871  0.78780  1.0000
  C   C283      1.0  0.22894  0.92221  0.83132  1.0000
  C   C284      1.0  0.22919  0.89163  0.83394  1.0000
  C   C285      1.0  0.24564  0.92012  0.74480  1.0000
  C   C286      1.0  0.39151  0.61739  0.96748  1.0000
  H   H480      1.0  0.17444  0.63795  0.85817  1.0000
  H   H481      1.0  0.33724  0.75718  0.84924  1.0000
  H   H482      1.0  0.09450  0.90465  0.49800  1.0000
  C   C287      1.0  0.24798  0.89574  0.72099  1.0000
  S   S70       1.0  0.45682  0.72235  0.94365  1.0000
  H   H483      1.0  0.19897  0.90885  0.74216  1.0000
  H   H484      1.0  0.20370  0.88350  0.76996  1.0000
  H   H485      1.0  0.23572  0.68237  0.81902  1.0000
  H   H486      1.0  0.16870  0.91920  0.78665  1.0000
  C   C288      1.0  0.46420  0.60220  0.92898  1.0000
  C   C289      1.0  0.22181  0.98276  0.68701  1.0000
  H   H487      1.0  0.25315  0.94038  0.83029  1.0000
  H   H488      1.0  0.21947  0.92585  0.85872  1.0000
  H   H489      1.0  0.24441  0.89033  0.81138  1.0000
  H   H490      1.0  0.20664  0.87154  0.83056  1.0000
  H   H491      1.0  0.25086  0.93950  0.72585  1.0000
  H   H492      1.0  0.26337  0.92847  0.76594  1.0000
  H   H493      1.0  0.20176  0.97732  0.81863  1.0000
  H   H494      1.0  0.18042  0.65608  0.81284  1.0000
  H   H495      1.0  0.15995  0.86603  0.80079  1.0000
  C   C290      1.0  0.36261  0.68621  0.94291  1.0000
  H   H496      1.0  0.11776  0.87855  0.80749  1.0000
  H   H497      1.0  0.11359  0.84953  0.83958  1.0000
  H   H498      1.0  0.12639  0.88774  0.85661  1.0000
  H   H499      1.0  0.25367  0.69199  0.94871  1.0000
  C   C291      1.0  0.09319  0.77942  0.55498  1.0000
  H   H500      1.0  0.23011  0.97623  0.84616  1.0000
  H   H501      1.0  0.23074  0.88666  0.69917  1.0000
  H   H502      1.0  0.27069  0.90562  0.70652  1.0000
  H   H503      1.0  0.24471  0.87667  0.73920  1.0000
  H   H504      1.0  0.24617  0.60688  0.89895  1.0000
  H   H505      1.0  0.41045  0.66858  0.89678  1.0000
  H   H506      1.0  0.26372  0.90747  0.87589  1.0000
  H   H507      1.0  0.21922  0.64156  0.82148  1.0000
  H   H508      1.0  0.36612  0.74669  0.84278  1.0000
  H   H509      1.0  0.26925  0.58861  0.84885  1.0000
  C   C292      1.0  0.14644  0.85875  0.51192  1.0000
  H   H510      1.0  0.33781  0.73544  0.80799  1.0000
  C   C293      1.0  0.15795  0.83903  0.50486  1.0000
  H   H511      1.0  0.16863  0.87771  0.84943  1.0000
  H   H512      1.0  0.16423  0.83028  0.52823  1.0000
  H   H513      1.0  0.32802  0.71440  0.89071  1.0000
  Fe  Fe33      1.0  0.22669  0.52335  0.98172  1.0000
  C   C294      1.0  0.16022  0.88177  0.82315  1.0000
  H   H514      1.0  0.17848  0.92878  0.83462  1.0000
  H   H515      1.0  0.33961  0.66796  0.93599  1.0000
  H   H516      1.0  0.32809  0.69225  0.85014  1.0000
  H   H517      1.0  0.28922  0.71776  0.92623  1.0000
  H   H518      1.0  0.21989  0.60581  0.86604  1.0000
  N   N17       1.0  0.04112  0.81429  0.53906  1.0000
  H   H519      1.0  0.45164  0.59011  0.78374  1.0000
  H   H520      1.0  0.00662  0.75030  0.54472  1.0000
  C   C295      1.0  0.05837  0.80190  0.55862  1.0000
  H   H521      1.0  0.00791  0.82791  0.55482  1.0000
  Fe  Fe34      1.0  0.47040  0.70061  0.98700  1.0000
  H   H522      1.0  0.36821  0.65700  0.98031  1.0000
  H   H523      1.0  0.11145  0.79984  0.56867  1.0000
  H   H524      1.0  0.41782  0.56030  0.80676  1.0000
  H   H525      1.0  0.43335  0.62890  0.89836  1.0000
  C   C296      1.0  0.12754  0.87405  0.83222  1.0000
  H   H526      1.0  0.31706  0.94800  0.96586  1.0000
  C   C297      1.0  0.47330  0.59397  0.96547  1.0000
  H   H527      1.0  0.36352  0.70858  0.94300  1.0000
  C   C298      1.0  0.07386  0.78815  0.53244  1.0000
  H   H528      1.0  0.43145  0.58716  0.86765  1.0000
  S   S71       1.0  0.18601  0.73701  0.98149  1.0000
  H   H529      1.0  0.04350  0.78426  0.57972  1.0000
  H   H530      1.0  0.07643  0.82015  0.57555  1.0000
  C   C299      1.0  0.44656  0.66809  0.86219  1.0000
  H   H531      1.0  0.44171  0.60010  0.93456  1.0000
  C   C300      1.0  0.02250  0.82065  0.56840  1.0000
  H   H532      1.0  0.98826  0.70462  0.73277  1.0000
  H   H533      1.0  0.22509  0.88810  0.89549  1.0000
  C   C301      1.0  0.44257  0.60036  0.84157  1.0000
  H   H534      1.0  0.30706  0.90875  0.95884  1.0000
  H   H535      1.0  0.10389  0.76951  0.53567  1.0000
  H   H536      1.0  0.45422  0.56665  0.81963  1.0000
  H   H537      1.0  0.39778  0.63738  0.86342  1.0000
  H   H538      1.0  0.00635  0.79944  0.58378  1.0000
  H   H539      1.0  0.15839  0.81961  0.97555  1.0000
  H   H540      1.0  0.07912  0.76235  0.57707  1.0000
  H   H541      1.0  0.24022  0.92884  0.50641  1.0000
  C   C302      1.0  0.36428  0.58997  0.96052  1.0000
  C   C303      1.0  0.19796  0.63341  0.96959  1.0000
  H   H542      1.0  0.40999  0.67549  0.84722  1.0000
  H   H543      1.0  0.21090  0.83022  0.97663  1.0000
  H   H544      1.0  0.05058  0.83431  0.61801  1.0000
  Fe  Fe35      1.0  0.27742  0.50915  0.96449  1.0000
  H   H545      1.0  0.15630  0.94589  0.58525  1.0000
  C   C304      1.0  0.45399  0.65098  0.89194  1.0000
  C   C305      1.0  0.98649  0.75289  0.63496  1.0000
  H   H546      1.0  0.45791  0.66409  0.91883  1.0000
  H   H547      1.0  0.00059  0.83104  0.63647  1.0000
  H   H548      1.0  0.24277  0.58741  0.81558  1.0000
  N   N18       1.0  0.26605  0.66880  0.87572  1.0000
  C   C306      1.0  0.26706  0.64281  0.85514  1.0000
  C   C307      1.0  0.28803  0.69818  0.85582  1.0000
  C   C308      1.0  0.27412  0.66889  0.91611  1.0000
  C   C309      1.0  0.23494  0.66525  0.87589  1.0000
  C   C310      1.0  0.22141  0.66194  0.83670  1.0000
  C   C311      1.0  0.24329  0.61026  0.86893  1.0000
  C   C312      1.0  0.02017  0.85197  0.62431  1.0000
  C   C313      1.0  0.32207  0.70947  0.86064  1.0000
  C   C314      1.0  0.34192  0.73897  0.83870  1.0000
  C   C315      1.0  0.18988  0.65848  0.84110  1.0000
  C   C316      1.0  0.24649  0.58597  0.84593  1.0000
  H   H549      1.0  0.15959  0.78466  0.97488  1.0000
  H   H550      1.0  0.28961  0.64477  0.85763  1.0000
  H   H551      1.0  0.26469  0.64404  0.82424  1.0000
  H   H552      1.0  0.28451  0.69594  0.82487  1.0000
  H   H553      1.0  0.28362  0.71694  0.86488  1.0000
  H   H554      1.0  0.29546  0.66813  0.91714  1.0000
  H   H555      1.0  0.25682  0.64792  0.93104  1.0000
  H   H556      1.0  0.21872  0.64545  0.89337  1.0000
  H   H557      1.0  0.23494  0.68517  0.88988  1.0000
  C   C317      1.0  0.24043  0.88847  0.87184  1.0000
  H   H558      1.0  0.24072  0.86665  0.87235  1.0000
  H   H559      1.0  0.05921  0.86555  0.58719  1.0000
  C   C318      1.0  0.17866  0.96439  0.59407  1.0000
  S   S72       1.0  0.32814  0.52630  0.96444  1.0000
  C   C319      1.0  0.06365  0.84296  0.51824  1.0000
  H   H560      1.0  0.08873  0.80456  0.51030  1.0000
  H   H561      1.0  0.31677  0.70621  0.97053  1.0000
  H   H562      1.0  0.99560  0.74281  0.74176  1.0000
  H   H563      1.0  0.23705  0.88442  0.98133  1.0000
  H   H564      1.0  0.46240  0.58512  0.90747  1.0000
  H   H565      1.0  0.39511  0.69675  0.98524  1.0000
  H   H566      1.0  0.00710  0.80090  0.49744  1.0000
  H   H567      1.0  0.22702  0.95013  0.53519  1.0000
  H   H568      1.0  0.45550  0.57090  0.97490  1.0000
  C   C320      1.0  0.22317  0.93644  0.50895  1.0000
  H   H569      1.0  0.04293  0.87210  0.52643  1.0000
  H   H570      1.0  0.98743  0.71747  0.78091  1.0000
  H   H571      1.0  0.18506  0.98963  0.54340  1.0000
  C   C321      1.0  0.37091  0.67996  0.98126  1.0000
  H   H572      1.0  0.98776  0.73940  0.61154  1.0000
  C   C322      1.0  0.05104  0.86271  0.50289  1.0000
  H   H573      1.0  0.47578  0.61041  0.98832  1.0000
  H   H574      1.0  0.07439  0.83725  0.49365  1.0000
  Fe  Fe36      1.0  0.46269  0.75645  0.98919  1.0000
  H   H575      1.0  0.48279  0.63989  0.82077  1.0000
  C   C323      1.0  0.85259  0.04609  0.31870  1.0000
  H   H576      1.0  0.70824  0.44700  0.12651  1.0000
  S   S73       1.0  0.78383  0.20577  0.02612  1.0000
  C   C324      1.0  0.69576  0.46641  0.08004  1.0000
  H   H577      1.0  0.78119  0.06552  0.31880  1.0000
  H   H578      1.0  0.92132  0.19908  0.33648  1.0000
  H   H579      1.0  0.85967  0.03683  0.34162  1.0000
  Fe  Fe37      1.0  0.88444  0.18249  0.25393  1.0000
  S   S74       1.0  0.84895  0.19181  0.28100  1.0000
  S   S75       1.0  0.93104  0.22505  0.25156  1.0000
  Fe  Fe38      1.0  0.83734  0.11553  0.24066  1.0000
  S   S76       1.0  0.79924  0.12127  0.26561  1.0000
  S   S77       1.0  0.83209  0.06974  0.22282  1.0000
  Fe  Fe39      1.0  0.82064  0.16514  0.23200  1.0000
  S   S78       1.0  0.79604  0.18557  0.20133  1.0000
  Fe  Fe40      1.0  0.83145  0.14747  0.31166  1.0000
  S   S79       1.0  0.81693  0.13123  0.37274  1.0000
  S   S80       1.0  0.85689  0.15766  0.20399  1.0000
  S   S81       1.0  0.86871  0.13991  0.28776  1.0000
  C   C325      1.0  0.96600  0.22564  0.24632  1.0000
  C   C326      1.0  0.87851  0.26415  0.22471  1.0000
  H   H580      1.0  0.84000  0.07891  0.34282  1.0000
  C   C327      1.0  0.86557  0.28771  0.11006  1.0000
  H   H581      1.0  0.94849  0.18186  0.21932  1.0000
  C   C328      1.0  0.82875  0.14950  0.41718  1.0000
  C   C329      1.0  0.84704  0.18107  0.42069  1.0000
  C   C330      1.0  0.81884  0.13151  0.45011  1.0000
  H   H582      1.0  0.85443  0.19519  0.39566  1.0000
  H   H583      1.0  0.80453  0.10712  0.44777  1.0000
  C   C331      1.0  0.79801  0.03522  0.23232  1.0000
  H   H584      1.0  0.86311  0.26271  0.28333  1.0000
  C   C332      1.0  0.77072  0.03485  0.24040  1.0000
  H   H585      1.0  0.79749  0.06976  0.38420  1.0000
  H   H586      1.0  0.77017  0.05592  0.24092  1.0000
  C   C333      1.0  0.69965  0.17945  0.08784  1.0000
  C   C334      1.0  0.76613  0.04791  0.33975  1.0000
  H   H587      1.0  0.92792  0.20845  0.44228  1.0000
  H   H588      1.0  0.94109  0.12817  0.27939  1.0000
  H   H589      1.0  0.66008  0.13721  0.12891  1.0000
  H   H590      1.0  0.72580  0.03883  0.37417  1.0000
  C   C335      1.0  0.91862  0.28947  0.15113  1.0000
  C   C336      1.0  0.78849  0.20193  0.07500  1.0000
  C   C337      1.0  0.80030  0.18329  0.08515  1.0000
  C   C338      1.0  0.80311  0.17826  0.12348  1.0000
  C   C339      1.0  0.79403  0.19179  0.15234  1.0000
  C   C340      1.0  0.78273  0.21089  0.14219  1.0000
  C   C341      1.0  0.78018  0.21614  0.10384  1.0000
  H   H591      1.0  0.80687  0.17220  0.06317  1.0000
  H   H592      1.0  0.81181  0.16349  0.13067  1.0000
  H   H593      1.0  0.77577  0.22164  0.16419  1.0000
  H   H594      1.0  0.77146  0.23087  0.09664  1.0000
  H   H595      1.0  0.92815  0.29538  0.12156  1.0000
  C   C342      1.0  0.94286  0.28698  0.17338  1.0000
  H   H596      1.0  0.83320  0.24081  0.25166  1.0000
  H   H597      1.0  0.86376  0.21289  0.15778  1.0000
  H   H598      1.0  0.85117  0.30679  0.06672  1.0000
  H   H599      1.0  0.88553  0.31008  0.11626  1.0000
  H   H600      1.0  0.89961  0.28586  0.22959  1.0000
  C   C343      1.0  0.69951  0.13374  0.06445  1.0000
  C   C344      1.0  0.90203  0.22481  0.11870  1.0000
  H   H601      1.0  0.92371  0.19840  0.10232  1.0000
  H   H602      1.0  0.88229  0.24480  0.22949  1.0000
  C   C345      1.0  0.65346  0.13008  0.09924  1.0000
  H   H603      1.0  0.75376  0.02568  0.32522  1.0000
  H   H604      1.0  0.72051  0.19235  0.06937  1.0000
  H   H605      1.0  0.62751  0.10902  0.02600  1.0000
  H   H606      1.0  0.68225  0.20781  0.06589  1.0000
  H   H607      1.0  0.70740  0.22187  0.14547  1.0000
  H   H608      1.0  0.89725  0.06596  0.29108  1.0000
  S   S82       1.0  0.73916  0.25330  0.01348  1.0000
  C   C346      1.0  0.88110  0.07334  0.30196  1.0000
  H   H609      1.0  0.59870  0.43675  0.16133  1.0000
  H   H610      1.0  0.96342  0.13217  0.31935  1.0000
  C   C347      1.0  0.61312  0.42612  0.16318  1.0000
  H   H611      1.0  0.66242  0.18735  0.10843  1.0000
  H   H612      1.0  0.67184  0.42154  0.10700  1.0000
  C   C348      1.0  0.92978  0.23586  0.37425  1.0000
  H   H613      1.0  0.88487  0.15412  0.44946  1.0000
  C   C349      1.0  0.93219  0.18904  0.44060  1.0000
  H   H614      1.0  0.56648  0.22032  0.00807  1.0000
  C   C350      1.0  0.66909  0.15224  0.03451  1.0000
  H   H615      1.0  0.82929  0.01705  0.39475  1.0000
  H   H616      1.0  0.70749  0.17778  0.11599  1.0000
  H   H617      1.0  0.68327  0.02014  0.16086  1.0000
  H   H618      1.0  0.59506  0.28716  0.06009  1.0000
  H   H619      1.0  0.69401  0.24270  0.11949  1.0000
  H   H620      1.0  0.72738  0.24179  0.10237  1.0000
  C   C351      1.0  0.87217  0.26127  0.11568  1.0000
  C   C352      1.0  0.88735  0.23224  0.15394  1.0000
  N   N19       1.0  0.67987  0.14804  0.07169  1.0000
  H   H621      1.0  0.60926  0.32213  0.08675  1.0000
  C   C353      1.0  0.94138  0.21734  0.35063  1.0000
  N   N20       1.0  0.68459  0.48472  0.10290  1.0000
  H   H622      1.0  0.72279  0.00697  0.25246  1.0000
  C   C354      1.0  0.85488  0.19445  0.45686  1.0000
  H   H623      1.0  0.70468  0.48399  0.15534  1.0000
  H   H624      1.0  0.64834  0.28594  0.00426  1.0000
  H   H625      1.0  0.92489  0.14593  0.33818  1.0000
  C   C355      1.0  0.71605  0.13211  0.09923  1.0000
  H   H626      1.0  0.92618  0.20837  0.15177  1.0000
  H   H627      1.0  0.88561  0.21545  0.09581  1.0000
  H   H628      1.0  0.71729  0.14669  0.04197  1.0000
  H   H629      1.0  0.85023  0.23968  0.11377  1.0000
  C   C356      1.0  0.86792  0.26376  0.18442  1.0000
  H   H630      1.0  0.65471  0.16292  0.03920  1.0000
  C   C357      1.0  0.85691  0.28845  0.06953  1.0000
  H   H631      1.0  0.89870  0.23133  0.17939  1.0000
  H   H632      1.0  0.88622  0.26140  0.09052  1.0000
  C   C358      1.0  0.74269  0.05652  0.35450  1.0000
  S   S83       1.0  0.54701  0.33557  0.01557  1.0000
  H   H633      1.0  0.91758  0.30986  0.16176  1.0000
  H   H634      1.0  0.86647  0.28489  0.18277  1.0000
  H   H635      1.0  0.87597  0.29301  0.04915  1.0000
  H   H636      1.0  0.64635  0.42820  0.01296  1.0000
  C   C359      1.0  0.91125  0.20118  0.12733  1.0000
  H   H637      1.0  0.93496  0.27856  0.20256  1.0000
  C   C360      1.0  0.65206  0.46491  0.11678  1.0000
  C   C361      1.0  0.70473  0.22823  0.11670  1.0000
  H   H638      1.0  0.85111  0.28193  0.25215  1.0000
  H   H639      1.0  0.60600  0.40740  0.14209  1.0000
  H   H640      1.0  0.68193  0.45612  0.05506  1.0000
  H   H641      1.0  0.92238  0.24548  0.10752  1.0000
  H   H642      1.0  0.84433  0.24459  0.18272  1.0000
  H   H643      1.0  0.89091  0.17879  0.13347  1.0000
  H   H644      1.0  0.65985  0.43836  0.15958  1.0000
  H   H645      1.0  0.95350  0.19577  0.45492  1.0000
  H   H646      1.0  0.73499  0.15497  0.10565  1.0000
  C   C362      1.0  0.85499  0.26232  0.25468  1.0000
  N   N21       1.0  0.88720  0.26194  0.15178  1.0000
  H   H647      1.0  0.84615  0.28454  0.12894  1.0000
  C   C363      1.0  0.79822  0.00753  0.23144  1.0000
  H   H648      1.0  0.84304  0.02826  0.29644  1.0000
  H   H649      1.0  0.84520  0.05710  0.39707  1.0000
  H   H650      1.0  0.68638  0.11036  0.05306  1.0000
  H   H651      1.0  0.65408  0.08800  0.11212  1.0000
  C   C364      1.0  0.82317  0.03536  0.39658  1.0000
  C   C365      1.0  0.60179  0.31165  0.05857  1.0000
  H   H652      1.0  0.83685  0.26645  0.06217  1.0000
  N   N22       1.0  0.95685  0.20385  0.37184  1.0000
  C   C366      1.0  0.68494  0.19983  0.09357  1.0000
  H   H653      1.0  0.61153  0.08775  0.15074  1.0000
  H   H654      1.0  0.94904  0.27094  0.15917  1.0000
  C   C367      1.0  0.57776  0.36726  0.99219  1.0000
  C   C368      1.0  0.64645  0.44981  0.15624  1.0000
  C   C369      1.0  0.96844  0.20169  0.22928  1.0000
  H   H655      1.0  0.80634  0.05413  0.44220  1.0000
  C   C370      1.0  0.62747  0.32797  0.02886  1.0000
  C   C371      1.0  0.82845  0.05487  0.33251  1.0000
  H   H656      1.0  0.60956  0.41617  0.19187  1.0000
  H   H657      1.0  0.70935  0.40569  0.08966  1.0000
  H   H658      1.0  0.86853  0.21892  0.45938  1.0000
  H   H659      1.0  0.65266  0.46720  0.17892  1.0000
  H   H660      1.0  0.68039  0.00454  0.20707  1.0000
  H   H661      1.0  0.69730  0.41612  0.04834  1.0000
  H   H662      1.0  0.63421  0.35244  0.02928  1.0000
  H   H663      1.0  0.60495  0.38016  0.04116  1.0000
  H   H664      1.0  0.73384  0.44185  0.06711  1.0000
  H   H665      1.0  0.63517  0.13553  0.09486  1.0000
  H   H666      1.0  0.94803  0.25451  0.39015  1.0000
  H   H667      1.0  0.89212  0.09103  0.32394  1.0000
  C   C372      1.0  0.78451  0.04637  0.37242  1.0000
  S   S84       1.0  0.51701  0.25149  0.01968  1.0000
  H   H668      1.0  0.89803  0.23252  0.33289  1.0000
  H   H669      1.0  0.58180  0.31352  0.05165  1.0000
  C   C373      1.0  0.72949  0.11131  0.09176  1.0000
  H   H670      1.0  0.60931  0.21561  0.03095  1.0000
  N   N23       1.0  0.80573  0.03427  0.36243  1.0000
  H   H671      1.0  0.75380  0.07882  0.36934  1.0000
  C   C374      1.0  0.74385  0.00703  0.24679  1.0000
  H   H672      1.0  0.59227  0.08419  0.10765  1.0000
  H   H673      1.0  0.91115  0.22064  0.39415  1.0000
  H   H674      1.0  0.76783  0.03273  0.39524  1.0000
  Fe  Fe41      1.0  0.76402  0.22946  0.99194  1.0000
  C   C375      1.0  0.60354  0.38627  0.01259  1.0000
  C   C376      1.0  0.70988  0.42498  0.07469  1.0000
  H   H675      1.0  0.63965  0.44653  0.09581  1.0000
  H   H676      1.0  0.73068  0.05849  0.33035  1.0000
  C   C377      1.0  0.63914  0.09482  0.09879  1.0000
  C   C378      1.0  0.93455  0.17939  0.39908  1.0000
  H   H677      1.0  0.87564  0.08331  0.27813  1.0000
  H   H678      1.0  0.81719  0.05512  0.30661  1.0000
  H   H679      1.0  0.74542  0.11934  0.06661  1.0000
  H   H680      1.0  0.69091  0.27726  0.00530  1.0000
  H   H681      1.0  0.63540  0.08520  0.06994  1.0000
  H   H682      1.0  0.98150  0.32653  0.14684  1.0000
  C   C379      1.0  0.60877  0.07947  0.12103  1.0000
  C   C380      1.0  0.69547  0.43955  0.10028  1.0000
  C   C381      1.0  0.80820  0.03340  0.43650  1.0000
  H   H683      1.0  0.70095  0.12411  0.12499  1.0000
  H   H684      1.0  0.90844  0.26315  0.36636  1.0000
  H   H685      1.0  0.91135  0.16807  0.38796  1.0000
  H   H686      1.0  0.78534  0.01323  0.43928  1.0000
  H   H687      1.0  0.59951  0.05443  0.12132  1.0000
  H   H688      1.0  0.68880  0.16832  0.01620  1.0000
  H   H689      1.0  0.78051  0.00254  0.31823  1.0000
  H   H690      1.0  0.64680  0.32581  0.03787  1.0000
  H   H691      1.0  0.71134  0.08750  0.08708  1.0000
  H   H692      1.0  0.79317  0.39605  0.01081  1.0000
  H   H693      1.0  0.85056  0.05139  0.46547  1.0000
  H   H694      1.0  0.81922  0.00760  0.22508  1.0000
  C   C382      1.0  0.91705  0.25034  0.34882  1.0000
  C   C383      1.0  0.60726  0.21708  0.00092  1.0000
  H   H695      1.0  0.93484  0.26632  0.32838  1.0000
  H   H696      1.0  0.91154  0.14371  0.46574  1.0000
  H   H697      1.0  0.95644  0.23197  0.32714  1.0000
  C   C384      1.0  0.90670  0.16269  0.46325  1.0000
  H   H698      1.0  0.70385  0.31638  0.01798  1.0000
  C   C385      1.0  0.78926  0.00247  0.34640  1.0000
  H   H699      1.0  0.66120  0.10977  0.00542  1.0000
  H   H700      1.0  0.74221  0.11175  0.11657  1.0000
  C   C386      1.0  0.66972  0.99992  0.17925  1.0000
  C   C387      1.0  0.94436  0.16236  0.32017  1.0000
  C   C388      1.0  0.62701  0.41361  0.99679  1.0000
  H   H701      1.0  0.64542  0.47757  0.04609  1.0000
  H   H702      1.0  0.93570  0.17144  0.29880  1.0000
  C   C389      1.0  0.64971  0.12324  0.01109  1.0000
  C   C390      1.0  0.69502  0.29950  0.99465  1.0000
  H   H703      1.0  0.94024  0.16088  0.40150  1.0000
  C   C391      1.0  0.95775  0.14477  0.29907  1.0000
  S   S85       1.0  0.65717  0.20956  0.99276  1.0000
  H   H704      1.0  0.71923  0.48173  0.06866  1.0000
  C   C392      1.0  0.82726  0.03155  0.46725  1.0000
  H   H705      1.0  0.64000  0.47823  0.11840  1.0000
  H   H706      1.0  0.96717  0.33454  0.19102  1.0000
  H   H707      1.0  0.97853  0.16045  0.28224  1.0000
  C   C393      1.0  0.97179  0.31777  0.17563  1.0000
  H   H708      1.0  0.64650  0.99648  0.18336  1.0000
  C   C394      1.0  0.98366  0.22785  0.39245  1.0000
  Fe  Fe42      1.0  0.51358  0.28908  0.99154  1.0000
  C   C395      1.0  0.82695  0.14483  0.48619  1.0000
  H   H709      1.0  0.60733  0.28903  0.99083  1.0000
  C   C396      1.0  0.96860  0.18906  0.34331  1.0000
  H   H710      1.0  0.97651  0.23908  0.41467  1.0000
  H   H711      1.0  0.82833  0.01019  0.46439  1.0000
  H   H712      1.0  0.73830  0.00278  0.47574  1.0000
  H   H713      1.0  0.98210  0.18073  0.35767  1.0000
  H   H714      1.0  0.68051  0.49068  0.01927  1.0000
  H   H715      1.0  0.80521  0.99370  0.34049  1.0000
  C   C397      1.0  0.84480  0.17644  0.48984  1.0000
  H   H716      1.0  0.68188  0.34457  0.99010  1.0000
  C   C398      1.0  0.62435  0.42303  0.96110  1.0000
  S   S86       1.0  0.72988  0.26376  0.92428  1.0000
  H   H717      1.0  0.68352  0.42115  0.93475  1.0000
  Fe  Fe43      1.0  0.75603  0.23918  0.90842  1.0000
  S   S87       1.0  0.76602  0.23543  0.84466  1.0000
  H   H718      1.0  0.80528  0.33713  0.90425  1.0000
  H   H719      1.0  0.76476  0.34496  0.85003  1.0000
  S   S88       1.0  0.76074  0.43728  0.90949  1.0000
  C   C399      1.0  0.77666  0.41358  0.96860  1.0000
  H   H720      1.0  0.91907  0.26276  0.80344  1.0000
  H   H721      1.0  0.89854  0.18168  0.73414  1.0000
  Fe  Fe44      1.0  0.51439  0.23347  0.96064  1.0000
  C   C400      1.0  0.72779  0.03699  0.72288  1.0000
  C   C401      1.0  0.95454  0.22704  0.54453  1.0000
  H   H722      1.0  0.81714  0.03184  0.49565  1.0000
  H   H723      1.0  0.67706  0.48463  0.64199  1.0000
  S   S89       1.0  0.51223  0.27173  0.93211  1.0000
  Fe  Fe45      1.0  0.83679  0.16428  0.67758  1.0000
  S   S90       1.0  0.84477  0.12427  0.67842  1.0000
  S   S91       1.0  0.82931  0.17488  0.74005  1.0000
  Fe  Fe46      1.0  0.84678  0.16770  0.58949  1.0000
  S   S92       1.0  0.85463  0.12790  0.58644  1.0000
  S   S93       1.0  0.85450  0.19426  0.53492  1.0000
  Fe  Fe47      1.0  0.81534  0.10603  0.62873  1.0000
  S   S94       1.0  0.77363  0.05892  0.62493  1.0000
  Fe  Fe48      1.0  0.88342  0.15009  0.63643  1.0000
  S   S95       1.0  0.92871  0.15213  0.64031  1.0000
  S   S96       1.0  0.80533  0.14471  0.62906  1.0000
  S   S97       1.0  0.87763  0.19109  0.63791  1.0000
  C   C402      1.0  0.96310  0.18641  0.64675  1.0000
  C   C403      1.0  0.62864  0.21586  0.97527  1.0000
  C   C404      1.0  0.96404  0.21443  0.65054  1.0000
  C   C405      1.0  0.74471  0.04075  0.51037  1.0000
  H   H724      1.0  0.94356  0.21556  0.64848  1.0000
  H   H725      1.0  0.85500  0.27373  0.79707  1.0000
  H   H726      1.0  0.75014  0.04919  0.53985  1.0000
  C   C406      1.0  0.80766  0.08040  0.76371  1.0000
  C   C407      1.0  0.83349  0.07341  0.75745  1.0000
  C   C408      1.0  0.74289  0.00976  0.50573  1.0000
  C   C409      1.0  0.91329  0.24276  0.82128  1.0000
  C   C410      1.0  0.77175  0.02419  0.63647  1.0000
  C   C411      1.0  0.79758  0.02245  0.64337  1.0000
  H   H727      1.0  0.77032  0.33942  0.80027  1.0000
  H   H728      1.0  0.81956  0.04283  0.64202  1.0000
  N   N24       1.0  0.64160  0.32712  0.95757  1.0000
  H   H729      1.0  0.69262  0.41824  0.88561  1.0000
  H   H730      1.0  0.64777  0.31358  0.90061  1.0000
  H   H731      1.0  0.81515  0.99278  0.65592  1.0000
  C   C412      1.0  0.57594  0.37572  0.95552  1.0000
  C   C413      1.0  0.59884  0.40376  0.94040  1.0000
  H   H732      1.0  0.58227  0.29736  0.92524  1.0000
  H   H733      1.0  0.82315  0.34755  0.78458  1.0000
  H   H734      1.0  0.55606  0.36156  0.93969  1.0000
  H   H735      1.0  0.59642  0.41091  0.91287  1.0000
  C   C414      1.0  0.75857  0.35770  0.93179  1.0000
  C   C415      1.0  0.75422  0.38026  0.91542  1.0000
  C   C416      1.0  0.76344  0.40841  0.93355  1.0000
  H   H736      1.0  0.75156  0.33625  0.91746  1.0000
  H   H737      1.0  0.74396  0.37608  0.88830  1.0000
  H   H738      1.0  0.94709  0.24150  0.53064  1.0000
  H   H739      1.0  0.90534  0.19701  0.81769  1.0000
  H   H740      1.0  0.77357  0.03501  0.75340  1.0000
  C   C417      1.0  0.73075  0.30307  0.82711  1.0000
  H   H741      1.0  0.95521  0.21057  0.52376  1.0000
  H   H742      1.0  0.78273  0.30054  0.81263  1.0000
  H   H743      1.0  0.84303  0.41373  0.90918  1.0000
  C   C418      1.0  0.83687  0.30330  0.81367  1.0000
  C   C419      1.0  0.78293  0.21750  0.81622  1.0000
  C   C420      1.0  0.79491  0.20078  0.83173  1.0000
  C   C421      1.0  0.80865  0.18775  0.80794  1.0000
  C   C422      1.0  0.81084  0.19129  0.76831  1.0000
  C   C423      1.0  0.79877  0.20790  0.75278  1.0000
  C   C424      1.0  0.78494  0.22083  0.77655  1.0000
  H   H744      1.0  0.79366  0.19795  0.86207  1.0000
  H   H745      1.0  0.81779  0.17494  0.82044  1.0000
  H   H746      1.0  0.80012  0.21086  0.72245  1.0000
  H   H747      1.0  0.77576  0.23361  0.76405  1.0000
  H   H748      1.0  0.72327  0.99876  0.63341  1.0000
  C   C425      1.0  0.57918  0.22026  0.94922  1.0000
  H   H749      1.0  0.80198  0.07833  0.79454  1.0000
  Fe  Fe49      1.0  0.70553  0.22792  0.96888  1.0000
  H   H750      1.0  0.81608  0.10422  0.75482  1.0000
  H   H751      1.0  0.90433  0.17057  0.49218  1.0000
  H   H752      1.0  0.75719  0.07665  0.86114  1.0000
  H   H753      1.0  0.89512  0.12965  0.72480  1.0000
  H   H754      1.0  0.67189  0.47739  0.59206  1.0000
  H   H755      1.0  0.84046  0.07497  0.72699  1.0000
  H   H756      1.0  0.62171  0.28332  0.92974  1.0000
  H   H757      1.0  0.85324  0.09005  0.77337  1.0000
  H   H758      1.0  0.85646  0.33485  0.85874  1.0000
  H   H759      1.0  0.81892  0.13070  0.51126  1.0000
  H   H760      1.0  0.70705  0.03906  0.72493  1.0000
  H   H761      1.0  0.65863  0.27991  0.95685  1.0000
  C   C426      1.0  0.92138  0.19025  0.74533  1.0000
  H   H762      1.0  0.86725  0.38698  0.87244  1.0000
  H   H763      1.0  0.83673  0.38908  0.94880  1.0000
  H   H764      1.0  0.98323  0.26131  0.58327  1.0000
  Fe  Fe50      1.0  0.70142  0.48568  0.94975  1.0000
  Fe  Fe51      1.0  0.76447  0.28799  0.96774  1.0000
  S   S98       1.0  0.54745  0.22062  0.93113  1.0000
  C   C427      1.0  0.62552  0.21750  0.93650  1.0000
  H   H765      1.0  0.89063  0.25643  0.86450  1.0000
  H   H766      1.0  0.89084  0.26070  0.68290  1.0000
  H   H767      1.0  0.88476  0.20438  0.78508  1.0000
  H   H768      1.0  0.71656  0.31287  0.81914  1.0000
  H   H769      1.0  0.72233  0.29213  0.85525  1.0000
  H   H770      1.0  0.87458  0.41505  0.93168  1.0000
  H   H771      1.0  0.64154  0.21622  0.91641  1.0000
  H   H772      1.0  0.89999  0.15460  0.78883  1.0000
  H   H773      1.0  0.57334  0.28827  0.85785  1.0000
  C   C428      1.0  0.60072  0.21929  0.92361  1.0000
  C   C429      1.0  0.66998  0.32719  0.96792  1.0000
  S   S99       1.0  0.72852  0.20107  0.95001  1.0000
  C   C430      1.0  0.85041  0.37537  0.89599  1.0000
  C   C431      1.0  0.67135  0.37531  0.91578  1.0000
  C   C432      1.0  0.74337  0.99754  0.63843  1.0000
  C   C433      1.0  0.60235  0.30765  0.90534  1.0000
  H   H774      1.0  0.73413  0.03853  0.69212  1.0000
  C   C434      1.0  0.83001  0.38936  0.81241  1.0000
  H   H775      1.0  0.82591  0.39149  0.75168  1.0000
  H   H776      1.0  0.92605  0.28722  0.70370  1.0000
  Fe  Fe52      1.0  0.75544  0.47661  0.93457  1.0000
  C   C435      1.0  0.83218  0.35973  0.81166  1.0000
  C   C436      1.0  0.81826  0.35407  0.88139  1.0000
  H   H777      1.0  0.85788  0.36171  0.91173  1.0000
  C   C437      1.0  0.64938  0.35954  0.95033  1.0000
  C   C438      1.0  0.64302  0.13130  0.97275  1.0000
  H   H778      1.0  0.83970  0.42733  0.77610  1.0000
  H   H779      1.0  0.76532  0.01312  0.51225  1.0000
  H   H780      1.0  0.66017  0.37409  0.97528  1.0000
  C   C439      1.0  0.84071  0.40589  0.77443  1.0000
  S   S100      1.0  0.79265  0.26645  0.94921  1.0000
  H   H781      1.0  0.80685  0.38513  0.81896  1.0000
  H   H782      1.0  0.89216  0.24430  0.74712  1.0000
  H   H783      1.0  0.72300  0.03922  0.50346  1.0000
  H   H784      1.0  0.84098  0.26929  0.84552  1.0000
  H   H785      1.0  0.89134  0.21754  0.71242  1.0000
  H   H786      1.0  0.60745  0.33100  0.89828  1.0000
  C   C440      1.0  0.78452  0.31526  0.83721  1.0000
  H   H787      1.0  0.81490  0.28631  0.80252  1.0000
  C   C441      1.0  0.88543  0.23643  0.84615  1.0000
  H   H788      1.0  0.71668  0.00234  0.76710  1.0000
  H   H789      1.0  0.84457  0.40529  0.83425  1.0000
  H   H790      1.0  0.82126  0.30259  0.87229  1.0000
  H   H791      1.0  0.80663  0.36753  0.87965  1.0000
  H   H792      1.0  0.62939  0.11017  0.95636  1.0000
  H   H793      1.0  0.58859  0.26542  0.87388  1.0000
  C   C442      1.0  0.62953  0.30751  0.92292  1.0000
  H   H794      1.0  0.94811  0.26699  0.75145  1.0000
  H   H795      1.0  0.65392  0.40505  0.90103  1.0000
  H   H796      1.0  0.62857  0.36106  0.94721  1.0000
  H   H797      1.0  0.87826  0.21626  0.86447  1.0000
  H   H798      1.0  0.69397  0.37829  0.92061  1.0000
  C   C443      1.0  0.59379  0.28913  0.86876  1.0000
  C   C444      1.0  0.67550  0.40684  0.90903  1.0000
  H   H799      1.0  0.86442  0.41173  0.76715  1.0000
  H   H800      1.0  0.77408  0.29942  0.86172  1.0000
  H   H801      1.0  0.66291  0.36212  0.88939  1.0000
  H   H802      1.0  0.61250  0.29976  0.84695  1.0000
  C   C445      1.0  0.76375  0.32832  0.82848  1.0000
  N   N25       1.0  0.81716  0.33797  0.84447  1.0000
  C   C446      1.0  0.93513  0.24377  0.73913  1.0000
  N   N26       1.0  0.75289  0.06270  0.74414  1.0000
  C   C447      1.0  0.76136  0.09197  0.72391  1.0000
  C   C448      1.0  0.77973  0.05765  0.74180  1.0000
  C   C449      1.0  0.85110  0.39976  0.92297  1.0000
  C   C450      1.0  0.74201  0.06238  0.78482  1.0000
  C   C451      1.0  0.75555  0.09358  0.80577  1.0000
  C   C452      1.0  0.73466  0.09778  0.71793  1.0000
  H   H803      1.0  0.93759  0.21388  0.56750  1.0000
  H   H804      1.0  0.87673  0.30228  0.83154  1.0000
  H   H805      1.0  0.72825  0.28547  0.80590  1.0000
  C   C453      1.0  0.74735  0.08932  0.84813  1.0000
  C   C454      1.0  0.74529  0.13162  0.71358  1.0000
  C   C455      1.0  0.91953  0.16350  0.76808  1.0000
  H   H806      1.0  0.77177  0.09234  0.69532  1.0000
  H   H807      1.0  0.77937  0.11194  0.73841  1.0000
  C   C456      1.0  0.77313  0.36344  0.96594  1.0000
  H   H808      1.0  0.78707  0.05746  0.71159  1.0000
  N   N27       1.0  0.93126  0.21968  0.76674  1.0000
  H   H809      1.0  0.85011  0.31972  0.79067  1.0000
  H   H810      1.0  0.71704  0.05280  0.78690  1.0000
  H   H811      1.0  0.74598  0.04658  0.80184  1.0000
  H   H812      1.0  0.74649  0.10763  0.79476  1.0000
  H   H813      1.0  0.78047  0.10706  0.80226  1.0000
  H   H814      1.0  0.72317  0.08588  0.69179  1.0000
  H   H815      1.0  0.71759  0.08890  0.74180  1.0000
  C   C457      1.0  0.91241  0.26361  0.69295  1.0000
  H   H816      1.0  0.92485  0.25999  0.66853  1.0000
  C   C458      1.0  0.71829  0.00420  0.73581  1.0000
  H   H817      1.0  0.82650  0.05017  0.76774  1.0000
  H   H818      1.0  0.73511  0.99774  0.72464  1.0000
  H   H819      1.0  0.68651  0.33442  0.94332  1.0000
  H   H820      1.0  0.93225  0.24898  0.84017  1.0000
  H   H821      1.0  0.72241  0.07677  0.85321  1.0000
  C   C459      1.0  0.83310  0.31988  0.84942  1.0000
  H   H822      1.0  0.75658  0.11197  0.86202  1.0000
  H   H823      1.0  0.72598  0.13464  0.70653  1.0000
  H   H824      1.0  0.75438  0.14381  0.74046  1.0000
  H   H825      1.0  0.76310  0.14191  0.69070  1.0000
  H   H826      1.0  0.85684  0.36759  0.80954  1.0000
  C   C460      1.0  0.85349  0.28620  0.82264  1.0000
  S   S101      1.0  0.65031  0.46008  0.94357  1.0000
  H   H827      1.0  0.72225  0.99498  0.56175  1.0000
  S   S102      1.0  0.72612  0.47077  0.98662  1.0000
  H   H828      1.0  0.71230  0.30673  0.97109  1.0000
  H   H829      1.0  0.66430  0.14595  0.95611  1.0000
  C   C461      1.0  0.90748  0.21439  0.79728  1.0000
  H   H830      1.0  0.86652  0.23234  0.82825  1.0000
  C   C462      1.0  0.90559  0.24050  0.72420  1.0000
  H   H831      1.0  0.59796  0.21950  0.89354  1.0000
  H   H832      1.0  0.91227  0.11775  0.75892  1.0000
  C   C463      1.0  0.91529  0.13729  0.74194  1.0000
  H   H833      1.0  0.94918  0.24400  0.71396  1.0000
  H   H834      1.0  0.93632  0.19402  0.71973  1.0000
  S   S103      1.0  0.72944  0.48984  0.89687  1.0000
  H   H835      1.0  0.94033  0.17034  0.78345  1.0000
  H   H836      1.0  0.78414  0.43523  0.98269  1.0000
  C   C464      1.0  0.79501  0.99408  0.65127  1.0000
  C   C465      1.0  0.58294  0.21977  0.98803  1.0000
  C   C466      1.0  0.78181  0.39134  0.98444  1.0000
  C   C467      1.0  0.66563  0.29614  0.98085  1.0000
  H   H837      1.0  0.59815  0.31761  0.98258  1.0000
  S   S104      1.0  0.78321  0.33765  0.98479  1.0000
  H   H838      1.0  0.93553  0.14455  0.72258  1.0000
  H   H839      1.0  0.95839  0.21557  0.80911  1.0000
  C   C468      1.0  0.96107  0.23036  0.78482  1.0000
  H   H840      1.0  0.62990  0.14340  0.97657  1.0000
  H   H841      1.0  0.96922  0.25335  0.79751  1.0000
  H   H842      1.0  0.64965  0.49068  0.61869  1.0000
  H   H843      1.0  0.98158  0.21104  0.74411  1.0000
  H   H844      1.0  0.76288  0.05757  0.49102  1.0000
  C   C469      1.0  0.61745  0.31422  0.98897  1.0000
  C   C470      1.0  0.71619  0.77335  0.45433  1.0000
  S   S105      1.0  0.77546  0.53749  0.05711  1.0000
  C   C471      1.0  0.67915  0.92781  0.43254  1.0000
  N   N28       1.0  0.64390  0.91316  0.16836  1.0000
  S   S106      1.0  0.56658  0.78490  0.04874  1.0000
  Fe  Fe53      1.0  0.65286  0.83208  0.24967  1.0000
  S   S107      1.0  0.69427  0.86366  0.21520  1.0000
  S   S108      1.0  0.60732  0.80279  0.22142  1.0000
  Fe  Fe54      1.0  0.68790  0.85149  0.32501  1.0000
  S   S109      1.0  0.73129  0.88407  0.29336  1.0000
  S   S110      1.0  0.69857  0.85099  0.38724  1.0000
  Fe  Fe55      1.0  0.70311  0.89789  0.26160  1.0000
  S   S111      1.0  0.70934  0.94513  0.25316  1.0000
  Fe  Fe56      1.0  0.71831  0.84655  0.25065  1.0000
  S   S112      1.0  0.74988  0.83192  0.22199  1.0000
  S   S113      1.0  0.66014  0.86728  0.29509  1.0000
  S   S114      1.0  0.67644  0.81308  0.28315  1.0000
  Fe  Fe57      1.0  0.80297  0.66330  0.23014  1.0000
  S   S115      1.0  0.82384  0.71411  0.22200  1.0000
  S   S116      1.0  0.77741  0.63535  0.17819  1.0000
  Fe  Fe58      1.0  0.82336  0.67292  0.31316  1.0000
  S   S117      1.0  0.84617  0.72377  0.30859  1.0000
  S   S118      1.0  0.82797  0.65280  0.36805  1.0000
  Fe  Fe59      1.0  0.80429  0.71527  0.27981  1.0000
  S   S119      1.0  0.77990  0.73987  0.30378  1.0000
  Fe  Fe60      1.0  0.86374  0.71792  0.25149  1.0000
  S   S120      1.0  0.91104  0.74838  0.22531  1.0000
  S   S121      1.0  0.78054  0.66429  0.28675  1.0000
  S   S122      1.0  0.84393  0.66736  0.25721  1.0000
  C   C472      1.0  0.81823  0.66035  0.41455  1.0000
  C   C473      1.0  0.83139  0.65549  0.44578  1.0000
  H   H845      1.0  0.61342  0.90663  0.24554  1.0000
  C   C474      1.0  0.65266  0.73060  0.23355  1.0000
  C   C475      1.0  0.79821  0.67150  0.42109  1.0000
  H   H846      1.0  0.84675  0.64670  0.44112  1.0000
  H   H847      1.0  0.78779  0.67522  0.39744  1.0000
  H   H848      1.0  0.68349  0.93398  0.13007  1.0000
  C   C476      1.0  0.94407  0.75851  0.25009  1.0000
  C   C477      1.0  0.94273  0.74351  0.28331  1.0000
  H   H849      1.0  0.67618  0.95549  0.47724  1.0000
  H   H850      1.0  0.92117  0.72557  0.29426  1.0000
  C   C478      1.0  0.67106  0.88743  0.13245  1.0000
  H   H851      1.0  0.92815  0.75079  0.48268  1.0000
  H   H852      1.0  0.72692  0.75929  0.44742  1.0000
  H   H853      1.0  0.77177  0.95848  0.23752  1.0000
  C   C479      1.0  0.84342  0.74884  0.40794  1.0000
  C   C480      1.0  0.75839  0.80654  0.24498  1.0000
  C   C481      1.0  0.77252  0.79267  0.22417  1.0000
  C   C482      1.0  0.77928  0.77214  0.24162  1.0000
  C   C483      1.0  0.77193  0.76536  0.28011  1.0000
  C   C484      1.0  0.75766  0.77912  0.30080  1.0000
  C   C485      1.0  0.75102  0.79969  0.28342  1.0000
  H   H854      1.0  0.77837  0.79792  0.19445  1.0000
  H   H855      1.0  0.79028  0.76170  0.22542  1.0000
  H   H856      1.0  0.75188  0.77399  0.33056  1.0000
  H   H857      1.0  0.74019  0.81025  0.29977  1.0000
  C   C486      1.0  0.68270  0.84933  0.43367  1.0000
  C   C487      1.0  0.65350  0.84477  0.44071  1.0000
  H   H858      1.0  0.68643  0.54326  0.01762  1.0000
  H   H859      1.0  0.63965  0.84224  0.41723  1.0000
  H   H860      1.0  0.71040  0.52502  0.06810  1.0000
  C   C488      1.0  0.57708  0.78899  0.09711  1.0000
  C   C489      1.0  0.55602  0.78057  0.12775  1.0000
  C   C490      1.0  0.56570  0.78510  0.16537  1.0000
  C   C491      1.0  0.59653  0.79811  0.17316  1.0000
  C   C492      1.0  0.61753  0.80613  0.14254  1.0000
  C   C493      1.0  0.60790  0.80178  0.10494  1.0000
  H   H861      1.0  0.53227  0.77071  0.12247  1.0000
  H   H862      1.0  0.54910  0.77845  0.18865  1.0000
  H   H863      1.0  0.64118  0.81536  0.14781  1.0000
  H   H864      1.0  0.62447  0.80831  0.08164  1.0000
  C   C494      1.0  0.77700  0.56597  0.08942  1.0000
  C   C495      1.0  0.76427  0.58416  0.08211  1.0000
  C   C496      1.0  0.76481  0.60526  0.10950  1.0000
  C   C497      1.0  0.77840  0.60889  0.14439  1.0000
  C   C498      1.0  0.79129  0.59082  0.15158  1.0000
  C   C499      1.0  0.79054  0.56955  0.12432  1.0000
  H   H865      1.0  0.75374  0.58178  0.05551  1.0000
  H   H866      1.0  0.75451  0.61885  0.10361  1.0000
  H   H867      1.0  0.80109  0.59259  0.17854  1.0000
  H   H868      1.0  0.80024  0.55546  0.13053  1.0000
  C   C500      1.0  0.68202  0.76891  0.18409  1.0000
  H   H869      1.0  0.68476  0.76523  0.12126  1.0000
  H   H870      1.0  0.88546  0.76566  0.48209  1.0000
  H   H871      1.0  0.63980  0.74264  0.24090  1.0000
  H   H872      1.0  0.67498  0.78235  0.20319  1.0000
  H   H873      1.0  0.70587  0.77687  0.19088  1.0000
  H   H874      1.0  0.66032  0.77889  0.13863  1.0000
  C   C501      1.0  0.70033  0.85259  0.46465  1.0000
  H   H875      1.0  0.62242  0.75535  0.18430  1.0000
  C   C502      1.0  0.66824  0.49747  0.04056  1.0000
  H   H876      1.0  0.73840  0.94835  0.32529  1.0000
  C   C503      1.0  0.96938  0.75136  0.30191  1.0000
  H   H877      1.0  0.65142  0.74956  0.30763  1.0000
  H   H878      1.0  0.59921  0.87563  0.06839  1.0000
  H   H879      1.0  0.89237  0.67599  0.39307  1.0000
  H   H880      1.0  0.70562  0.77214  0.39538  1.0000
  C   C504      1.0  0.65137  0.94343  0.18635  1.0000
  C   C505      1.0  0.66898  0.97195  0.16073  1.0000
  C   C506      1.0  0.87780  0.77157  0.41041  1.0000
  C   C507      1.0  0.58287  0.86796  0.09313  1.0000
  C   C508      1.0  0.90839  0.69475  0.37394  1.0000
  H   H881      1.0  0.74042  0.80529  0.40788  1.0000
  H   H882      1.0  0.60191  0.73598  0.12101  1.0000
  H   H883      1.0  0.77138  0.97565  0.39857  1.0000
  N   N29       1.0  0.88483  0.68939  0.12513  1.0000
  C   C509      1.0  0.85591  0.68959  0.13564  1.0000
  C   C510      1.0  0.89236  0.67537  0.15706  1.0000
  C   C511      1.0  0.90979  0.72223  0.12158  1.0000
  C   C512      1.0  0.88342  0.67305  0.08814  1.0000
  C   C513      1.0  0.85189  0.64670  0.07701  1.0000
  C   C514      1.0  0.84825  0.70862  0.10916  1.0000
  C   C515      1.0  0.94250  0.72762  0.11716  1.0000
  C   C516      1.0  0.86853  0.64246  0.16850  1.0000
  C   C517      1.0  0.87943  0.63114  0.20059  1.0000
  H   H884      1.0  0.96426  0.77612  0.13016  1.0000
  C   C518      1.0  0.81464  0.69875  0.11184  1.0000
  C   C519      1.0  0.96514  0.76085  0.10757  1.0000
  H   H885      1.0  0.85695  0.69887  0.16475  1.0000
  H   H886      1.0  0.83634  0.66618  0.13740  1.0000
  H   H887      1.0  0.91339  0.67454  0.14982  1.0000
  H   H888      1.0  0.89686  0.68984  0.18295  1.0000
  H   H889      1.0  0.90894  0.73557  0.14670  1.0000
  H   H890      1.0  0.90645  0.73323  0.09686  1.0000
  H   H891      1.0  0.89163  0.68925  0.06390  1.0000
  H   H892      1.0  0.89928  0.66390  0.08791  1.0000
  H   H893      1.0  0.83736  0.65588  0.06838  1.0000
  H   H894      1.0  0.83963  0.63073  0.10050  1.0000
  H   H895      1.0  0.86113  0.73305  0.11732  1.0000
  H   H896      1.0  0.85455  0.70674  0.07918  1.0000
  H   H897      1.0  0.72786  0.95429  0.47243  1.0000
  H   H898      1.0  0.94938  0.72262  0.14417  1.0000
  H   H899      1.0  0.84701  0.64122  0.17849  1.0000
  H   H900      1.0  0.86457  0.62662  0.14455  1.0000
  H   H901      1.0  0.86118  0.60820  0.20979  1.0000
  H   H902      1.0  0.89957  0.62941  0.19089  1.0000
  H   H903      1.0  0.88533  0.64672  0.22530  1.0000
  H   H904      1.0  0.97797  0.84311  0.41305  1.0000
  H   H905      1.0  0.94433  0.71298  0.09449  1.0000
  H   H906      1.0  0.81028  0.71358  0.09365  1.0000
  H   H907      1.0  0.80092  0.67484  0.10213  1.0000
  H   H908      1.0  0.80733  0.70057  0.14139  1.0000
  H   H909      1.0  0.60742  0.91679  0.14413  1.0000
  H   H910      1.0  0.71274  0.91116  0.09753  1.0000
  C   C520      1.0  0.70163  0.52532  0.15609  1.0000
  H   H911      1.0  0.56794  0.85852  0.26278  1.0000
  H   H912      1.0  0.72935  0.93017  0.37087  1.0000
  H   H913      1.0  0.92569  0.82410  0.43896  1.0000
  H   H914      1.0  0.83913  0.72846  0.39110  1.0000
  H   H915      1.0  0.70573  0.51348  0.21346  1.0000
  C   C521      1.0  0.82739  0.76352  0.38936  1.0000
  H   H916      1.0  0.62289  0.69482  0.17376  1.0000
  H   H917      1.0  0.58912  0.89188  0.20634  1.0000
  H   H918      1.0  0.66491  0.94749  0.21176  1.0000
  H   H919      1.0  0.67815  0.52308  0.09243  1.0000
  H   H920      1.0  0.76466  0.93944  0.34640  1.0000
  C   C522      1.0  0.70237  0.89288  0.11921  1.0000
  H   H921      1.0  0.58168  0.86212  0.15298  1.0000
  C   C523      1.0  0.70837  0.70021  0.13996  1.0000
  C   C524      1.0  0.68642  0.50900  0.07708  1.0000
  H   H922      1.0  0.93591  0.79162  0.39169  1.0000
  H   H923      1.0  0.77558  0.68583  0.46295  1.0000
  H   H924      1.0  0.88653  0.78194  0.38182  1.0000
  H   H925      1.0  0.92824  0.69176  0.36713  1.0000
  H   H926      1.0  0.63420  0.91693  0.11049  1.0000
  C   C525      1.0  0.79137  0.67754  0.45831  1.0000
  H   H927      1.0  0.72755  0.70877  0.15914  1.0000
  H   H928      1.0  0.57222  0.72935  0.15557  1.0000
  C   C526      1.0  0.67800  0.74217  0.26240  1.0000
  H   H929      1.0  0.93686  0.74340  0.37498  1.0000
  H   H930      1.0  0.70520  0.82795  0.15720  1.0000
  H   H931      1.0  0.63034  0.94319  0.19692  1.0000
  C   C527      1.0  0.70734  0.81233  0.13637  1.0000
  H   H932      1.0  0.72304  0.85646  0.45949  1.0000
  H   H933      1.0  0.70610  0.81967  0.10754  1.0000
  H   H934      1.0  0.66092  0.86781  0.15194  1.0000
  C   C528      1.0  0.71681  0.78928  0.41792  1.0000
  H   H935      1.0  0.86209  0.72862  0.46484  1.0000
  H   H936      1.0  0.65856  0.96822  0.13290  1.0000
  C   C529      1.0  0.90353  0.73475  0.48424  1.0000
  H   H937      1.0  0.74126  0.53984  0.18963  1.0000
  H   H938      1.0  0.71578  0.55274  0.20706  1.0000
  H   H939      1.0  0.56622  0.84346  0.08906  1.0000
  H   H940      1.0  0.88779  0.73652  0.36911  1.0000
  H   H941      1.0  0.63682  0.70600  0.23953  1.0000
  H   H942      1.0  0.96017  0.76723  0.08012  1.0000
  H   H943      1.0  0.71755  0.89948  0.14331  1.0000
  C   C530      1.0  0.58956  0.72293  0.14694  1.0000
  H   H944      1.0  0.68986  0.92311  0.17470  1.0000
  C   C531      1.0  0.97234  0.78148  0.23567  1.0000
  N   N30       1.0  0.89669  0.75861  0.42418  1.0000
  H   H945      1.0  0.69288  0.97746  0.15614  1.0000
  C   C532      1.0  0.59918  0.87202  0.12968  1.0000
  H   H946      1.0  0.66763  0.69509  0.19424  1.0000
  H   H947      1.0  0.97356  0.79323  0.20997  1.0000
  C   C533      1.0  0.76292  0.97838  0.37158  1.0000
  C   C534      1.0  0.74801  0.94727  0.35228  1.0000
  C   C535      1.0  0.89216  0.73247  0.39833  1.0000
  C   C536      1.0  0.85461  0.62822  0.04377  1.0000
  C   C537      1.0  0.91856  0.72553  0.39312  1.0000
  H   H948      1.0  0.67476  0.71061  0.12328  1.0000
  H   H949      1.0  0.72977  0.81404  0.13878  1.0000
  H   H950      1.0  0.57503  0.83909  0.22374  1.0000
  C   C538      1.0  0.74402  0.97935  0.24583  1.0000
  H   H951      1.0  0.57788  0.69817  0.14057  1.0000
  H   H952      1.0  0.59760  0.71876  0.20483  1.0000
  H   H953      1.0  0.67737  0.51802  0.16150  1.0000
  C   C539      1.0  0.66503  0.73807  0.30310  1.0000
  H   H954      1.0  0.83659  0.77077  0.35998  1.0000
  N   N31       1.0  0.66287  0.73518  0.19215  1.0000
  C   C540      1.0  0.61130  0.73050  0.17887  1.0000
  C   C541      1.0  0.63480  0.71996  0.16944  1.0000
  C   C542      1.0  0.92933  0.78370  0.42161  1.0000
  C   C543      1.0  0.60454  0.88832  0.22381  1.0000
  H   H955      1.0  0.87162  0.71122  0.40775  1.0000
  H   H956      1.0  0.82993  0.78354  0.40590  1.0000
  H   H957      1.0  0.69214  0.75800  0.46292  1.0000
  H   H958      1.0  0.69416  0.76664  0.25762  1.0000
  C   C544      1.0  0.68106  0.71927  0.18473  1.0000
  H   H959      1.0  0.60048  0.85343  0.26240  1.0000
  H   H960      1.0  0.57054  0.88093  0.09433  1.0000
  H   H961      1.0  0.61037  0.85815  0.12721  1.0000
  C   C545      1.0  0.58594  0.85796  0.24440  1.0000
  H   H962      1.0  0.70177  0.72998  0.20143  1.0000
  C   C546      1.0  0.62176  0.90620  0.13760  1.0000
  H   H963      1.0  0.83166  0.61018  0.03599  1.0000
  C   C547      1.0  0.67313  0.91597  0.15210  1.0000
  H   H964      1.0  0.71736  0.70128  0.11046  1.0000
  H   H965      1.0  0.64942  0.89398  0.21935  1.0000
  H   H966      1.0  0.64049  0.72301  0.13867  1.0000
  H   H967      1.0  0.86749  0.61694  0.05161  1.0000
  C   C548      1.0  0.63139  0.88960  0.19949  1.0000
  H   H968      1.0  0.65756  0.88175  0.10688  1.0000
  H   H969      1.0  0.87938  0.79012  0.42930  1.0000
  C   C549      1.0  0.68200  0.77963  0.14326  1.0000
  Fe  Fe61      1.0  0.52322  0.76224  0.01400  1.0000
  H   H970      1.0  0.71203  0.54654  0.13898  1.0000
  C   C550      1.0  0.69307  0.71965  0.14362  1.0000
  H   H971      1.0  0.89702  0.69310  0.34733  1.0000
  H   H972      1.0  0.96828  0.73912  0.32704  1.0000
  H   H973      1.0  0.62437  0.86647  0.18831  1.0000
  H   H974      1.0  0.65058  0.71349  0.30986  1.0000
  H   H975      1.0  0.69050  0.72942  0.26027  1.0000
  H   H976      1.0  0.70027  0.87165  0.10651  1.0000
  C   C551      1.0  0.93774  0.81204  0.44693  1.0000
  H   H977      1.0  0.68387  0.74818  0.32285  1.0000
  C   C552      1.0  0.71705  0.53322  0.19388  1.0000
  C   C553      1.0  0.66421  0.52235  0.02273  1.0000
  H   H978      1.0  0.97228  0.74661  0.47406  1.0000
  H   H979      1.0  0.71053  0.74320  0.13557  1.0000
  H   H980      1.0  0.94478  0.77533  0.42898  1.0000
  H   H981      1.0  0.72974  0.51191  0.12314  1.0000
  H   H982      1.0  0.69196  0.67604  0.14695  1.0000
  H   H983      1.0  0.70440  0.80200  0.42262  1.0000
  C   C554      1.0  0.77138  0.97968  0.23848  1.0000
  H   H984      1.0  0.92836  0.72521  0.42011  1.0000
  H   H985      1.0  0.65336  0.51419  0.99517  1.0000
  H   H986      1.0  0.72496  0.81338  0.48796  1.0000
  H   H987      1.0  0.68339  0.90845  0.42782  1.0000
  H   H988      1.0  0.89859  0.71259  0.47142  1.0000
  C   C555      1.0  0.88595  0.74750  0.46418  1.0000
  H   H989      1.0  0.83264  0.74135  0.43659  1.0000
  H   H990      1.0  0.80290  0.74671  0.38796  1.0000
  C   C556      1.0  0.67910  0.93525  0.47468  1.0000
  H   H991      1.0  0.65684  0.92140  0.42122  1.0000
  C   C557      1.0  0.97158  0.83486  0.44272  1.0000
  H   H992      1.0  0.64953  0.52799  0.04141  1.0000
  H   H993      1.0  0.75718  0.81033  0.47488  1.0000
  C   C558      1.0  0.82501  0.66212  0.48298  1.0000
  H   H994      1.0  0.97727  0.85474  0.46150  1.0000
  H   H995      1.0  0.69683  0.94791  0.41660  1.0000
  C   C559      1.0  0.64214  0.84332  0.47830  1.0000
  Fe  Fe62      1.0  0.75739  0.52115  0.99740  1.0000
  H   H996      1.0  0.86595  0.64303  0.01873  1.0000
  H   H997      1.0  0.95852  0.68207  0.28135  1.0000
  C   C560      1.0  0.70587  0.50053  0.13446  1.0000
  H   H998      1.0  0.93237  0.80553  0.47721  1.0000
  H   H999      1.0  0.74516  0.98466  0.37740  1.0000
  C   C561      1.0  0.73332  0.79683  0.48577  1.0000
  C   C562      1.0  0.80485  0.67313  0.48946  1.0000
  H   H1000     1.0  0.61950  0.83971  0.48343  1.0000
  H   H1001     1.0  0.65932  0.91547  0.48865  1.0000
  C   C563      1.0  0.98329  0.69084  0.27965  1.0000
  Fe  Fe63      1.0  0.76052  0.53841  0.91349  1.0000
  H   H1002     1.0  0.75294  0.97321  0.56753  1.0000
  S   S123      1.0  0.78131  0.58276  0.87831  1.0000
  S   S124      1.0  0.78909  0.52581  0.94760  1.0000
  Fe  Fe64      1.0  0.50713  0.75214  0.92946  1.0000
  S   S125      1.0  0.52181  0.75448  0.86606  1.0000
  H   H1003     1.0  0.62283  0.74945  0.88605  1.0000
  Fe  Fe65      1.0  0.66123  0.84072  0.69875  1.0000
  S   S126      1.0  0.70924  0.85006  0.70013  1.0000
  S   S127      1.0  0.64104  0.83568  0.76002  1.0000
  Fe  Fe66      1.0  0.66747  0.84610  0.61062  1.0000
  S   S128      1.0  0.71504  0.85480  0.60805  1.0000
  S   S129      1.0  0.64428  0.84397  0.55611  1.0000
  Fe  Fe67      1.0  0.69840  0.81770  0.65160  1.0000
  S   S130      1.0  0.70362  0.77561  0.64788  1.0000
  Fe  Fe68      1.0  0.72120  0.88649  0.65694  1.0000
  S   S131      1.0  0.76459  0.93197  0.66084  1.0000
  S   S132      1.0  0.64991  0.80666  0.65128  1.0000
  S   S133      1.0  0.67428  0.87971  0.65791  1.0000
  Fe  Fe69      1.0  0.82044  0.66590  0.67126  1.0000
  S   S134      1.0  0.85566  0.71244  0.69009  1.0000
  S   S135      1.0  0.80360  0.62081  0.70286  1.0000
  Fe  Fe70      1.0  0.81872  0.68950  0.59142  1.0000
  S   S136      1.0  0.85396  0.73732  0.60547  1.0000
  S   S137      1.0  0.79486  0.68078  0.53568  1.0000
  Fe  Fe71      1.0  0.87836  0.71645  0.63273  1.0000
  S   S138      1.0  0.92697  0.72809  0.61813  1.0000
  Fe  Fe72      1.0  0.82796  0.72914  0.66118  1.0000
  S   S139      1.0  0.81951  0.76635  0.68577  1.0000
  S   S140      1.0  0.84453  0.66899  0.61486  1.0000
  S   S141      1.0  0.79121  0.68231  0.64619  1.0000
  H   H1004     1.0  0.69413  0.59593  0.66986  1.0000
  H   H1005     1.0  0.66890  0.96044  0.58096  1.0000
  C   C564      1.0  0.68986  0.93376  0.55991  1.0000
  C   C565      1.0  0.95698  0.76764  0.67670  1.0000
  C   C566      1.0  0.95863  0.75090  0.64556  1.0000
  H   H1006     1.0  0.50899  0.63324  0.90968  1.0000
  H   H1007     1.0  0.93565  0.76618  0.68529  1.0000
  H   H1008     1.0  0.80965  0.60323  0.60319  1.0000
  C   C567      1.0  0.76666  0.96734  0.65272  1.0000
  C   C568      1.0  0.74077  0.96930  0.64699  1.0000
  H   H1009     1.0  0.75542  0.71484  0.53158  1.0000
  H   H1010     1.0  0.71881  0.94902  0.64911  1.0000
  C   C569      1.0  0.76770  0.73420  0.55119  1.0000
  C   C570      1.0  0.73616  0.77384  0.65884  1.0000
  C   C571      1.0  0.73608  0.74622  0.65324  1.0000
  C   C572      1.0  0.76168  0.74385  0.66057  1.0000
  C   C573      1.0  0.78740  0.76892  0.67452  1.0000
  C   C574      1.0  0.78724  0.79640  0.68091  1.0000
  C   C575      1.0  0.76183  0.79898  0.67275  1.0000
  H   H1011     1.0  0.71618  0.72658  0.64287  1.0000
  H   H1012     1.0  0.76137  0.72250  0.65594  1.0000
  H   H1013     1.0  0.80698  0.81584  0.69196  1.0000
  H   H1014     1.0  0.76211  0.82033  0.67738  1.0000
  C   C576      1.0  0.74417  0.95763  0.54279  1.0000
  H   H1015     1.0  0.77480  0.91237  0.56782  1.0000
  H   H1016     1.0  0.96259  0.71579  0.50644  1.0000
  H   H1017     1.0  0.62855  0.89088  0.57729  1.0000
  H   H1018     1.0  0.73307  0.90988  0.53178  1.0000
  C   C577      1.0  0.55552  0.77709  0.83735  1.0000
  C   C578      1.0  0.58212  0.80046  0.85219  1.0000
  C   C579      1.0  0.60794  0.81781  0.82815  1.0000
  C   C580      1.0  0.60779  0.81212  0.78891  1.0000
  C   C581      1.0  0.58142  0.78828  0.77420  1.0000
  C   C582      1.0  0.55554  0.77103  0.79821  1.0000
  H   H1019     1.0  0.58267  0.80548  0.88212  1.0000
  H   H1020     1.0  0.62809  0.83612  0.84003  1.0000
  H   H1021     1.0  0.58075  0.78351  0.74419  1.0000
  H   H1022     1.0  0.53522  0.75306  0.78624  1.0000
  C   C583      1.0  0.78588  0.59231  0.82920  1.0000
  C   C584      1.0  0.79512  0.62253  0.81884  1.0000
  C   C585      1.0  0.80003  0.63157  0.78048  1.0000
  C   C586      1.0  0.79635  0.61059  0.75180  1.0000
  C   C587      1.0  0.78700  0.58036  0.76209  1.0000
  C   C588      1.0  0.78166  0.57122  0.80044  1.0000
  H   H1023     1.0  0.79841  0.63906  0.84076  1.0000
  H   H1024     1.0  0.80687  0.65481  0.77321  1.0000
  H   H1025     1.0  0.78398  0.56385  0.74028  1.0000
  H   H1026     1.0  0.77467  0.54795  0.80782  1.0000
  C   C589      1.0  0.56190  0.70999  0.84760  1.0000
  H   H1027     1.0  0.58364  0.71027  0.84220  1.0000
  C   C590      1.0  0.98145  0.73740  0.49456  1.0000
  H   H1028     1.0  0.78526  0.86826  0.57761  1.0000
  N   N32       1.0  0.71928  0.58070  0.63281  1.0000
  C   C591      1.0  0.69838  0.54703  0.63931  1.0000
  C   C592      1.0  0.71663  0.59725  0.66775  1.0000
  C   C593      1.0  0.75178  0.58789  0.62724  1.0000
  C   C594      1.0  0.76350  0.58672  0.58615  1.0000
  C   C595      1.0  0.72082  0.58591  0.70615  1.0000
  C   C596      1.0  0.79241  0.58468  0.58596  1.0000
  H   H1029     1.0  0.69652  0.98504  0.52532  1.0000
  H   H1030     1.0  0.51034  0.69406  0.89622  1.0000
  H   H1031     1.0  0.67501  0.54260  0.64661  1.0000
  H   H1032     1.0  0.53631  0.66119  0.84496  1.0000
  H   H1033     1.0  0.73361  0.62195  0.66575  1.0000
  H   H1034     1.0  0.76757  0.61128  0.63748  1.0000
  H   H1035     1.0  0.75589  0.57271  0.64533  1.0000
  H   H1036     1.0  0.78787  0.84217  0.51754  1.0000
  H   H1037     1.0  0.73974  0.58103  0.70423  1.0000
  C   C597      1.0  0.94830  0.70823  0.74878  1.0000
  H   H1038     1.0  0.82051  0.86826  0.57061  1.0000
  H   H1039     1.0  0.68826  0.74222  0.52278  1.0000
  H   H1040     1.0  0.83527  0.65821  0.50663  1.0000
  H   H1041     1.0  0.73323  0.74388  0.50279  1.0000
  H   H1042     1.0  0.72851  0.73620  0.57184  1.0000
  H   H1043     1.0  0.73117  0.91880  0.58085  1.0000
  H   H1044     1.0  0.74844  0.63075  0.73111  1.0000
  H   H1045     1.0  0.97847  0.76172  0.54366  1.0000
  N   N33       1.0  0.89478  0.65961  0.75720  1.0000
  C   C598      1.0  0.88282  0.68151  0.75622  1.0000
  C   C599      1.0  0.88787  0.64179  0.72065  1.0000
  C   C600      1.0  0.87749  0.63715  0.78881  1.0000
  H   H1046     1.0  0.78753  0.56244  0.59763  1.0000
  C   C601      1.0  0.86821  0.59178  0.82809  1.0000
  C   C602      1.0  0.88222  0.69690  0.79451  1.0000
  C   C603      1.0  0.88299  0.60977  0.79165  1.0000
  C   C604      1.0  0.90098  0.66027  0.68358  1.0000
  C   C605      1.0  0.88981  0.63940  0.64909  1.0000
  C   C606      1.0  0.50745  0.67792  0.87265  1.0000
  C   C607      1.0  0.87751  0.72409  0.78911  1.0000
  C   C608      1.0  0.79579  0.85359  0.57621  1.0000
  H   H1047     1.0  0.85927  0.66953  0.74636  1.0000
  H   H1048     1.0  0.89575  0.69974  0.73507  1.0000
  H   H1049     1.0  0.89668  0.62563  0.72040  1.0000
  H   H1050     1.0  0.86289  0.62759  0.71829  1.0000
  H   H1051     1.0  0.85271  0.62751  0.78627  1.0000
  H   H1052     1.0  0.88288  0.64880  0.81676  1.0000
  H   H1053     1.0  0.69991  0.56460  0.71481  1.0000
  H   H1054     1.0  0.93803  0.66118  0.75276  1.0000
  H   H1055     1.0  0.85547  0.71661  0.77624  1.0000
  C   C609      1.0  0.74151  0.74547  0.77681  1.0000
  H   H1056     1.0  0.86317  0.68040  0.81320  1.0000
  H   H1057     1.0  0.90350  0.70481  0.80935  1.0000
  H   H1058     1.0  0.72690  0.65842  0.55328  1.0000
  H   H1059     1.0  0.87269  0.59373  0.76779  1.0000
  H   H1060     1.0  0.89416  0.67776  0.68085  1.0000
  H   H1061     1.0  0.92597  0.67126  0.68213  1.0000
  H   H1062     1.0  0.86472  0.62734  0.64892  1.0000
  H   H1063     1.0  0.89905  0.65324  0.62287  1.0000
  H   H1064     1.0  0.89750  0.62237  0.64908  1.0000
  H   H1065     1.0  0.64620  0.91271  0.61906  1.0000
  H   H1066     1.0  0.79089  0.74930  0.53909  1.0000
  C   C610      1.0  0.67230  0.49256  0.61554  1.0000
  H   H1067     1.0  0.87736  0.73461  0.81698  1.0000
  H   H1068     1.0  0.89603  0.74158  0.77073  1.0000
  H   H1069     1.0  0.72937  0.60017  0.76470  1.0000
  C   C611      1.0  0.72701  0.60929  0.73761  1.0000
  H   H1070     1.0  0.76176  0.96844  0.51961  1.0000
  H   H1071     1.0  0.68246  0.95749  0.72875  1.0000
  N   N34       1.0  0.67978  0.77038  0.78567  1.0000
  C   C612      1.0  0.69893  0.75647  0.79489  1.0000
  C   C613      1.0  0.65759  0.76630  0.81821  1.0000
  C   C614      1.0  0.66179  0.75346  0.75184  1.0000
  C   C615      1.0  0.69880  0.80353  0.77516  1.0000
  C   C616      1.0  0.72094  0.82476  0.80488  1.0000
  C   C617      1.0  0.72241  0.75874  0.76347  1.0000
  C   C618      1.0  0.63771  0.76157  0.74004  1.0000
  C   C619      1.0  0.66782  0.76696  0.85896  1.0000
  C   C620      1.0  0.64598  0.76917  0.88839  1.0000
  C   C621      1.0  0.74144  0.85675  0.78898  1.0000
  C   C622      1.0  0.61885  0.74055  0.70849  1.0000
  H   H1072     1.0  0.71181  0.76683  0.82058  1.0000
  H   H1073     1.0  0.65020  0.78363  0.81646  1.0000
  H   H1074     1.0  0.63652  0.74385  0.81610  1.0000
  H   H1075     1.0  0.67694  0.75775  0.72625  1.0000
  H   H1076     1.0  0.71181  0.80603  0.74802  1.0000
  H   H1077     1.0  0.68406  0.81329  0.76964  1.0000
  H   H1078     1.0  0.73579  0.81623  0.81421  1.0000
  H   H1079     1.0  0.70807  0.82720  0.82960  1.0000
  H   H1080     1.0  0.73819  0.78276  0.75539  1.0000
  H   H1081     1.0  0.64889  0.78521  0.72922  1.0000
  H   H1082     1.0  0.62183  0.75952  0.76384  1.0000
  N   N35       1.0  0.71443  0.95431  0.53151  1.0000
  H   H1083     1.0  0.69067  0.78626  0.86367  1.0000
  H   H1084     1.0  0.65358  0.76927  0.91728  1.0000
  H   H1085     1.0  0.64528  0.79055  0.88454  1.0000
  H   H1086     1.0  0.72777  0.86718  0.78109  1.0000
  H   H1087     1.0  0.60242  0.74738  0.69987  1.0000
  H   H1088     1.0  0.63360  0.74220  0.68340  1.0000
  H   H1089     1.0  0.60606  0.71657  0.71840  1.0000
  H   H1090     1.0  0.65002  0.75380  0.58674  1.0000
  C   C623      1.0  0.89386  0.72883  0.52607  1.0000
  H   H1091     1.0  0.76881  0.60774  0.57064  1.0000
  H   H1092     1.0  0.73845  0.82526  0.55094  1.0000
  H   H1093     1.0  0.65007  0.72842  0.75694  1.0000
  C   C624      1.0  0.68886  0.85078  0.50215  1.0000
  C   C625      1.0  0.72406  0.62570  0.59396  1.0000
  H   H1094     1.0  0.54740  0.67698  0.89159  1.0000
  H   H1095     1.0  0.50336  0.68778  0.84734  1.0000
  H   H1096     1.0  0.74329  0.80097  0.58112  1.0000
  H   H1097     1.0  0.63410  0.76936  0.55585  1.0000
  C   C626      1.0  0.70852  0.59078  0.60002  1.0000
  H   H1098     1.0  0.87161  0.57177  0.82900  1.0000
  H   H1099     1.0  0.71620  0.63624  0.61638  1.0000
  C   C627      1.0  0.92824  0.67526  0.76426  1.0000
  H   H1100     1.0  0.49283  0.65056  0.93981  1.0000
  H   H1101     1.0  0.75497  0.85606  0.76375  1.0000
  H   H1102     1.0  0.70264  0.85304  0.52551  1.0000
  H   H1103     1.0  0.90752  0.61751  0.79127  1.0000
  N   N36       1.0  0.73190  0.78367  0.52407  1.0000
  H   H1104     1.0  0.49023  0.61583  0.84815  1.0000
  H   H1105     1.0  0.87835  0.60617  0.85331  1.0000
  C   C628      1.0  0.74778  0.80957  0.55153  1.0000
  H   H1106     1.0  0.86901  0.71371  0.52974  1.0000
  H   H1107     1.0  0.94419  0.71050  0.71900  1.0000
  H   H1108     1.0  0.70671  0.91775  0.49239  1.0000
  H   H1109     1.0  0.56566  0.72885  0.86737  1.0000
  S   S142      1.0  0.51215  0.78835  0.97226  1.0000
  C   C629      1.0  0.71775  0.98571  0.53239  1.0000
  C   C630      1.0  0.70840  0.94052  0.49239  1.0000
  C   C631      1.0  0.75085  0.75192  0.55813  1.0000
  C   C632      1.0  0.77583  0.93346  0.55765  1.0000
  H   H1110     1.0  0.66820  0.74561  0.86447  1.0000
  H   H1111     1.0  0.84348  0.58343  0.82941  1.0000
  C   C633      1.0  0.65963  0.84608  0.50925  1.0000
  C   C634      1.0  0.69961  0.76407  0.53864  1.0000
  H   H1112     1.0  0.93202  0.67690  0.79517  1.0000
  C   C635      1.0  0.74377  0.92780  0.55342  1.0000
  H   H1113     1.0  0.74894  0.63641  0.59491  1.0000
  C   C636      1.0  0.64805  0.75812  0.55666  1.0000
  H   H1114     1.0  0.71113  0.74581  0.73786  1.0000
  C   C637      1.0  0.53837  0.67939  0.86478  1.0000
  H   H1115     1.0  0.61828  0.91793  0.59637  1.0000
  H   H1116     1.0  0.63641  0.73611  0.54129  1.0000
  H   H1117     1.0  0.68165  0.90941  0.55265  1.0000
  H   H1118     1.0  0.70814  0.61425  0.74122  1.0000
  C   C638      1.0  0.63736  0.91341  0.59130  1.0000
  H   H1119     1.0  0.71110  0.58059  0.57302  1.0000
  H   H1120     1.0  0.79207  0.84227  0.60404  1.0000
  H   H1121     1.0  0.75449  0.75827  0.80163  1.0000
  H   H1122     1.0  0.68404  0.73190  0.80193  1.0000
  H   H1123     1.0  0.72698  0.72106  0.78436  1.0000
  H   H1124     1.0  0.71848  0.52552  0.60298  1.0000
  C   C639      1.0  0.66205  0.93842  0.56627  1.0000
  H   H1125     1.0  0.94373  0.72443  0.76560  1.0000
  H   H1126     1.0  0.80185  0.58677  0.55651  1.0000
  C   C640      1.0  0.69668  0.52539  0.60665  1.0000
  H   H1127     1.0  0.75726  0.87139  0.81074  1.0000
  H   H1128     1.0  0.65194  0.93863  0.53948  1.0000
  H   H1129     1.0  0.90508  0.71749  0.53901  1.0000
  H   H1130     1.0  0.72594  0.62525  0.53228  1.0000
  H   H1131     1.0  0.75789  0.74726  0.75367  1.0000
  H   H1132     1.0  0.90059  0.75062  0.54122  1.0000
  H   H1133     1.0  0.69911  0.93700  0.58848  1.0000
  H   H1134     1.0  0.78788  0.95178  0.57864  1.0000
  C   C641      1.0  0.74676  0.76427  0.52052  1.0000
  H   H1135     1.0  0.69114  0.53168  0.57965  1.0000
  H   H1136     1.0  0.76398  0.77053  0.57822  1.0000
  S   S143      1.0  0.73023  0.53560  0.96410  1.0000
  H   H1137     1.0  0.69910  0.75722  0.56841  1.0000
  H   H1138     1.0  0.78878  0.93998  0.53008  1.0000
  H   H1139     1.0  0.74694  0.56722  0.56967  1.0000
  H   H1140     1.0  0.70530  0.53907  0.66396  1.0000
  H   H1141     1.0  0.79413  0.81629  0.54456  1.0000
  C   C642      1.0  0.78246  0.82983  0.54482  1.0000
  H   H1142     1.0  0.55443  0.71382  0.82034  1.0000
  C   C643      1.0  0.67927  0.77889  0.53825  1.0000
  H   H1143     1.0  0.68921  0.80058  0.55418  1.0000
  H   H1144     1.0  0.68377  0.58230  0.60380  1.0000
  H   H1145     1.0  0.76968  0.72495  0.57837  1.0000
  S   S144      1.0  0.52000  0.72751  0.97020  1.0000
  H   H1146     1.0  0.67594  0.78350  0.50890  1.0000
  C   C644      1.0  0.71654  0.63334  0.55593  1.0000
  H   H1147     1.0  0.69171  0.62284  0.55364  1.0000
  H   H1148     1.0  0.49497  0.59392  0.96085  1.0000
  C   C645      1.0  0.48810  0.63458  0.91545  1.0000
  H   H1149     1.0  0.98188  0.80002  0.72016  1.0000
  H   H1150     1.0  0.66948  0.98474  0.73313  1.0000
  H   H1151     1.0  0.68806  0.98196  0.68949  1.0000
  C   C646      1.0  0.98190  0.71877  0.75130  1.0000
  H   H1152     1.0  0.76918  0.77677  0.50515  1.0000
  C   C647      1.0  0.68769  0.98077  0.72080  1.0000
  C   C648      1.0  0.98322  0.78686  0.69632  1.0000
