data_image0
_chemical_formula_structural       SHFeS2H3CHFeHSFeS2FeS2FeSFeS3CHC3H2SHC3SH7C2H5CH2C7H5C3NC6HC2HCH6CH6C2H9CH3CH10C2H2C2SH3CH5C2H3CH4CHNC8HC2H18FeH6NC10HCH3CFeSHC2HSH2SH4FeS2FeS2FeS2FeSFeS3FeCSH3CHC2H7C3H4CHC2HCH4C7H10C2HCH4C5H6CFeH6CH3CH2NHSH2CNHCH3NC8HC3H13CH2CH8CH2C2H4NHC2H2C4HCH8CH2CFeCHC2H2C2HCH2CH3C2H2CHNCHCHC2H5SH3SC2H4C6H2CHCH4C2FeS2FeS2FeCFeS3FeS2FeSHFeHFeSHSC6H4CH3CH3CHCH6CH6NC5SC3HC2HCH6CH5CHCH11C2HC3H3C2HCH4NCHC4HC2H11SH9CH3C2HC3H6CH4NC7H6SCH2SHCH3C2H3C2H2FeS2FeSCFeSFeS3FeHCFeS2FeCFeHS2C2H3CH5C2H3C6H4C4H2NC12H18CH3CH5NHCHCH2CH9C2H3CH4CH7C2HCHC3H3CH2CHCSCH2C2HCH2CH6C2HC2H5SCHNHSCHCHSHCHNHCSH3CHCHCSCH6CH2CHFeS2HC2H4CH2SFeS2FeS2FeSFeS3H3CH3C2HC3HCHCHC2HCSH6CH6C6H3CHNC3H4CHFeH7CH4C2HSH5C2HCH7NC5H2CH8C3H2CH2CFeHNC4HCHCHC3H3NH3CH6CH3FeHCSH3CH3CH2CH2C2HNH3C2H3C3HC2FeH2CSHC3H2SH3CHCH3CH8CHSCHCHCFeH2C2H2C3H2CHCH3FeS2CHCH3SFeS2FeS2FeSFeS3CHCH2C3H2CHNH3C4H2CH12C6H4SHC3H11CH3C4HCNH2CHCHCH3CHC2HCHC2H8NCHC6HC3HSHCH12C2H6CH3C2H3C2H5CHCH6CHCH4FeCHSHCFeS2FeCSFeS2FeS2FeSFeS3CH2C5H3CH2C3H2CH2C3HC2HCHC6H7CHC2H3CH7CH2CH3CH2CH2NC10H20CNC4HC4HC2H19CH10CNC2HC4H2CH5C2H2CHSCHCH4CH2CH2CH5SHCHCH2CH4CH5CNH4CH2C3H9CH7CHCHC2H3NHSH3CHFeS2FeS2FeS2FeSFeS3C3H3CHSHC3FeCH2CHCH2C2H2C2HCH3CH2CH3C7H4CHCNC8FeHCH3CH4CH6CH3CHSCH6NC7HC4H15CHSH12CH8CH2C2HC2H5CH2SHNC3HSFeSHCHNCH2FeCH2SH3CHS2CHCHCH3CH2CHCH4CH5NC3FeHCHCFeS2FeS2FeSFeS3FeS2FeSHFeSHCSHC6H9C3H3C2H3C3HCHCH3CH3CHCH2C2HCH3CHCHCH2CHCNH3CH2CH5CH4SCH3CHC4HCHCH2CH2CHC3H3C3HCH4C2HSH3NH11C2H2FeH2SNHC2HCH3C2H2C3SH2CH2SNH4C2H2CHFeH7CFeSCFeS2FeCFeS3FeSHFeSHFeSFeS2HC3H4CHCHC2H2C7H4CNC3H4CH2SHNHC2H2CHCHSHC2H2CH2C2H5SH7CHCH6CHCH5C4H6NHC3HCH3C2H3CH7SH2CH2C3HCHCSCH9CH4C3HC3H7CHCHC2H2CH7CH2SCFeS2FeS2FeS2FeSFeS3CSH2CHC3H5C3H2C7H4CH4CH3CH9CHC3H3CNHCSHC2FeH5CH5C5H3CH5NH4C2H3C3H2CH4CH2C2H11C2H2CNC9HFeCH8CH12C2H5NC10HCH12SCH3CHCH2CH3SCH10Fe2S2FeS2FeS2FeSFeS3C2H3CH3C4H8C6H16C2H3CNC2HC6H13CH4CHC3H11CNC11FeH11CHC2H3NCH3CH2CHC2H7C2HC3HC3SH2CH4CHCH4NHCHCHCH2CHC2H5CSHSHCH3C2SH2CFeH2
_chemical_formula_sum              "S192 H1536 Fe96 C864 N48"
_cell_length_a       56.1952
_cell_length_b       55.7049
_cell_length_c       36.0601
_cell_angle_alpha    89.5597
_cell_angle_beta     90.37
_cell_angle_gamma    87.5788

_space_group_name_H-M_alt    "P 1"
_space_group_IT_number       1

loop_
  _space_group_symop_operation_xyz
  'x, y, z'

loop_
  _atom_site_type_symbol
  _atom_site_label
  _atom_site_symmetry_multiplicity
  _atom_site_fract_x
  _atom_site_fract_y
  _atom_site_fract_z
  _atom_site_occupancy
  S   S1        1.0  0.03472  0.26606  0.00444  1.0000
  H   H1        1.0  0.28377  0.21844  0.20772  1.0000
  Fe  Fe1       1.0  0.29898  0.12338  0.05124  1.0000
  S   S2        1.0  0.32309  0.14467  0.08979  1.0000
  S   S3        1.0  0.27062  0.09826  0.06830  1.0000
  H   H2        1.0  0.21678  0.16745  0.09542  1.0000
  H   H3        1.0  0.13505  0.24889  0.10326  1.0000
  H   H4        1.0  0.23645  0.31388  0.28200  1.0000
  C   C1        1.0  0.14147  0.22990  0.10036  1.0000
  H   H5        1.0  0.38431  0.13879  0.28749  1.0000
  Fe  Fe2       1.0  0.11578  0.29903  0.03872  1.0000
  H   H6        1.0  0.42055  0.14550  0.48255  1.0000
  S   S4        1.0  0.10168  0.26167  0.03860  1.0000
  Fe  Fe3       1.0  0.34617  0.18334  0.30111  1.0000
  S   S5        1.0  0.37292  0.20614  0.27414  1.0000
  S   S6        1.0  0.32437  0.15757  0.26670  1.0000
  Fe  Fe4       1.0  0.35590  0.20542  0.37923  1.0000
  S   S7        1.0  0.38319  0.22972  0.35575  1.0000
  S   S8        1.0  0.34463  0.21290  0.43916  1.0000
  Fe  Fe5       1.0  0.35703  0.23608  0.30882  1.0000
  S   S9        1.0  0.34572  0.27138  0.28095  1.0000
  Fe  Fe6       1.0  0.39624  0.19726  0.32366  1.0000
  S   S10       1.0  0.43378  0.18019  0.32146  1.0000
  S   S11       1.0  0.32904  0.21371  0.33356  1.0000
  S   S12       1.0  0.37018  0.17248  0.34955  1.0000
  C   C2        1.0  0.25765  0.32022  0.48606  1.0000
  H   H7        1.0  0.42951  0.21084  0.38881  1.0000
  C   C3        1.0  0.30943  0.30608  0.28199  1.0000
  C   C4        1.0  0.32279  0.28866  0.30257  1.0000
  C   C5        1.0  0.31802  0.28562  0.34026  1.0000
  H   H8        1.0  0.43952  0.15938  0.44947  1.0000
  H   H9        1.0  0.36779  0.12745  0.24856  1.0000
  S   S13       1.0  0.29462  0.03316  0.02210  1.0000
  H   H10       1.0  0.32838  0.27244  0.35644  1.0000
  C   C6        1.0  0.48160  0.18031  0.30851  1.0000
  C   C7        1.0  0.45940  0.21675  0.29067  1.0000
  C   C8        1.0  0.45983  0.19360  0.30590  1.0000
  S   S14       1.0  0.20975  0.13158  0.03770  1.0000
  H   H11       1.0  0.48024  0.24443  0.26638  1.0000
  H   H12       1.0  0.44271  0.22709  0.28840  1.0000
  H   H13       1.0  0.21390  0.29241  0.10786  1.0000
  H   H14       1.0  0.44066  0.13008  0.19196  1.0000
  H   H15       1.0  0.45085  0.15525  0.25173  1.0000
  H   H16       1.0  0.40815  0.16854  0.24911  1.0000
  H   H17       1.0  0.26521  0.30405  0.47179  1.0000
  C   C9        1.0  0.17256  0.16552  0.03378  1.0000
  C   C10       1.0  0.35440  0.20001  0.48233  1.0000
  H   H18       1.0  0.42965  0.18738  0.49957  1.0000
  H   H19       1.0  0.37277  0.16884  0.45969  1.0000
  H   H20       1.0  0.20923  0.27622  0.05359  1.0000
  H   H21       1.0  0.38312  0.11510  0.10235  1.0000
  H   H22       1.0  0.42664  0.23500  0.42198  1.0000
  C   C11       1.0  0.19551  0.15877  0.02109  1.0000
  H   H23       1.0  0.30317  0.20520  0.24329  1.0000
  H   H24       1.0  0.31250  0.23059  0.21689  1.0000
  C   C12       1.0  0.29689  0.22232  0.22981  1.0000
  C   C13       1.0  0.32224  0.14854  0.13895  1.0000
  C   C14       1.0  0.30902  0.13404  0.16226  1.0000
  C   C15       1.0  0.30982  0.13711  0.20115  1.0000
  C   C16       1.0  0.32364  0.15481  0.21734  1.0000
  C   C17       1.0  0.33648  0.16964  0.19396  1.0000
  C   C18       1.0  0.33591  0.16639  0.15513  1.0000
  H   H25       1.0  0.29842  0.12023  0.15039  1.0000
  H   H26       1.0  0.29971  0.12559  0.21883  1.0000
  H   H27       1.0  0.34673  0.18370  0.20578  1.0000
  H   H28       1.0  0.34594  0.17794  0.13741  1.0000
  H   H29       1.0  0.13341  0.28405  0.13875  1.0000
  C   C19       1.0  0.36774  0.17823  0.48477  1.0000
  C   C20       1.0  0.47460  0.22815  0.40362  1.0000
  C   C21       1.0  0.14118  0.29962  0.15072  1.0000
  N   N1        1.0  0.20863  0.24258  0.08436  1.0000
  C   C22       1.0  0.21491  0.25357  0.12115  1.0000
  C   C23       1.0  0.22013  0.21753  0.08114  1.0000
  C   C24       1.0  0.21859  0.25820  0.05423  1.0000
  C   C25       1.0  0.18204  0.24203  0.07860  1.0000
  C   C26       1.0  0.16827  0.22740  0.10739  1.0000
  C   C27       1.0  0.20563  0.27986  0.12748  1.0000
  H   H30       1.0  0.20253  0.27748  0.18769  1.0000
  C   C28       1.0  0.22400  0.20265  0.11750  1.0000
  C   C29       1.0  0.23156  0.17657  0.10925  1.0000
  H   H31       1.0  0.42163  0.20452  0.43595  1.0000
  C   C30       1.0  0.21186  0.28814  0.16651  1.0000
  H   H32       1.0  0.99135  0.24452  0.02803  1.0000
  H   H33       1.0  0.23466  0.25320  0.12459  1.0000
  H   H34       1.0  0.20832  0.24288  0.14469  1.0000
  H   H35       1.0  0.20986  0.20658  0.06136  1.0000
  H   H36       1.0  0.23831  0.21832  0.06906  1.0000
  H   H37       1.0  0.23773  0.26130  0.06011  1.0000
  C   C31       1.0  0.28657  0.31716  0.33672  1.0000
  H   H38       1.0  0.17384  0.26056  0.07689  1.0000
  H   H39       1.0  0.17797  0.23403  0.05130  1.0000
  H   H40       1.0  0.17153  0.23354  0.13606  1.0000
  H   H41       1.0  0.17340  0.20802  0.10506  1.0000
  H   H42       1.0  0.15021  0.28190  0.20276  1.0000
  H   H43       1.0  0.18602  0.28165  0.12427  1.0000
  C   C32       1.0  0.23826  0.30223  0.25728  1.0000
  C   C33       1.0  0.28408  0.00331  0.01626  1.0000
  H   H44       1.0  0.23841  0.21035  0.13434  1.0000
  H   H45       1.0  0.20777  0.20249  0.13469  1.0000
  H   H46       1.0  0.31921  0.01642  0.10135  1.0000
  H   H47       1.0  0.24750  0.17555  0.09114  1.0000
  H   H48       1.0  0.33499  0.99959  0.13742  1.0000
  H   H49       1.0  0.14247  0.19104  0.02958  1.0000
  H   H50       1.0  0.20605  0.30732  0.16969  1.0000
  H   H51       1.0  0.13197  0.21883  0.12077  1.0000
  H   H52       1.0  0.48199  0.16229  0.31997  1.0000
  C   C34       1.0  0.21672  0.24868  0.01398  1.0000
  H   H53       1.0  0.48773  0.27073  0.37326  1.0000
  H   H54       1.0  0.41436  0.12110  0.15014  1.0000
  H   H55       1.0  0.37562  0.14677  0.10191  1.0000
  C   C35       1.0  0.29123  0.32019  0.29894  1.0000
  H   H56       1.0  0.22397  0.22996  0.01154  1.0000
  H   H57       1.0  0.40478  0.13595  0.08696  1.0000
  H   H58       1.0  0.43266  0.19418  0.22299  1.0000
  H   H59       1.0  0.38465  0.13012  0.16544  1.0000
  H   H60       1.0  0.43997  0.19467  0.17511  1.0000
  H   H61       1.0  0.46901  0.24696  0.41056  1.0000
  H   H62       1.0  0.42234  0.12749  0.25427  1.0000
  H   H63       1.0  0.46927  0.22553  0.37406  1.0000
  H   H64       1.0  0.38715  0.10746  0.27555  1.0000
  H   H65       1.0  0.31314  0.30858  0.25285  1.0000
  C   C36       1.0  0.30021  0.30006  0.35733  1.0000
  C   C37       1.0  0.48067  0.22651  0.27823  1.0000
  H   H66       1.0  0.40145  0.21046  0.15672  1.0000
  H   H67       1.0  0.25610  0.30424  0.24486  1.0000
  C   C38       1.0  0.43858  0.15249  0.47838  1.0000
  C   C39       1.0  0.15060  0.29853  0.18715  1.0000
  S   S15       1.0  0.12998  0.32368  0.08396  1.0000
  H   H68       1.0  0.46364  0.19269  0.42436  1.0000
  H   H69       1.0  0.39446  0.24621  0.19561  1.0000
  H   H70       1.0  0.19788  0.24939  0.00462  1.0000
  C   C40       1.0  0.43263  0.21593  0.41808  1.0000
  H   H71       1.0  0.41232  0.23287  0.23250  1.0000
  H   H72       1.0  0.16396  0.15413  0.05362  1.0000
  H   H73       1.0  0.46838  0.17267  0.22102  1.0000
  H   H74       1.0  0.29701  0.29794  0.38671  1.0000
  H   H75       1.0  0.39061  0.17164  0.15378  1.0000
  C   C41       1.0  0.45898  0.21205  0.42807  1.0000
  C   C42       1.0  0.48099  0.13608  0.22777  1.0000
  H   H76       1.0  0.40530  0.11796  0.21555  1.0000
  H   H77       1.0  0.22453  0.30828  0.23665  1.0000
  H   H78       1.0  0.46102  0.21651  0.45781  1.0000
  C   C43       1.0  0.31717  0.00360  0.12480  1.0000
  H   H79       1.0  0.42598  0.24037  0.18880  1.0000
  H   H80       1.0  0.38785  0.20272  0.19979  1.0000
  H   H81       1.0  0.38521  0.16243  0.21742  1.0000
  H   H82       1.0  0.45329  0.15324  0.16621  1.0000
  C   C44       1.0  0.14151  0.32100  0.13013  1.0000
  H   H83       1.0  0.13703  0.22370  0.07207  1.0000
  N   N2        1.0  0.25375  0.24227  0.31000  1.0000
  C   C45       1.0  0.22952  0.23319  0.31869  1.0000
  C   C46       1.0  0.25117  0.26878  0.30167  1.0000
  C   C47       1.0  0.26392  0.22858  0.27727  1.0000
  C   C48       1.0  0.27071  0.23852  0.34236  1.0000
  C   C49       1.0  0.26224  0.24867  0.38025  1.0000
  C   C50       1.0  0.22919  0.20668  0.33211  1.0000
  C   C51       1.0  0.28588  0.23943  0.25849  1.0000
  C   C52       1.0  0.23489  0.27609  0.26820  1.0000
  H   H84       1.0  0.23138  0.28643  0.17151  1.0000
  C   C53       1.0  0.28078  0.24272  0.41058  1.0000
  C   C54       1.0  0.20373  0.19935  0.33946  1.0000
  H   H85       1.0  0.21784  0.23462  0.29364  1.0000
  H   H86       1.0  0.22034  0.24480  0.33967  1.0000
  H   H87       1.0  0.24353  0.27870  0.32577  1.0000
  H   H88       1.0  0.26897  0.27629  0.29758  1.0000
  H   H89       1.0  0.25014  0.22639  0.25539  1.0000
  H   H90       1.0  0.26942  0.20987  0.28581  1.0000
  H   H91       1.0  0.27559  0.21908  0.34633  1.0000
  H   H92       1.0  0.28776  0.24707  0.33642  1.0000
  H   H93       1.0  0.24529  0.24096  0.38902  1.0000
  H   H94       1.0  0.25967  0.26851  0.37900  1.0000
  H   H95       1.0  0.23688  0.19436  0.31088  1.0000
  H   H96       1.0  0.23947  0.20388  0.35826  1.0000
  H   H97       1.0  0.29990  0.24317  0.27907  1.0000
  H   H98       1.0  0.28080  0.25654  0.24396  1.0000
  H   H99       1.0  0.23857  0.26490  0.24348  1.0000
  H   H100      1.0  0.21589  0.27436  0.27579  1.0000
  H   H101      1.0  0.46116  0.17915  0.50026  1.0000
  H   H102      1.0  0.41876  0.16650  0.13228  1.0000
  Fe  Fe7       1.0  0.28325  0.07401  0.02129  1.0000
  H   H103      1.0  0.27465  0.25042  0.43735  1.0000
  H   H104      1.0  0.28349  0.22296  0.41414  1.0000
  H   H105      1.0  0.29814  0.25041  0.40359  1.0000
  H   H106      1.0  0.19279  0.20098  0.31371  1.0000
  H   H107      1.0  0.20395  0.18035  0.34907  1.0000
  H   H108      1.0  0.19538  0.21080  0.36130  1.0000
  N   N3        1.0  0.41995  0.16395  0.19213  1.0000
  C   C55       1.0  0.44338  0.14966  0.19223  1.0000
  C   C56       1.0  0.40741  0.16039  0.15549  1.0000
  C   C57       1.0  0.42555  0.19024  0.19483  1.0000
  C   C58       1.0  0.40415  0.15759  0.22428  1.0000
  C   C59       1.0  0.40561  0.13110  0.23831  1.0000
  C   C60       1.0  0.46045  0.15489  0.22499  1.0000
  C   C61       1.0  0.40453  0.20861  0.18712  1.0000
  C   C62       1.0  0.39955  0.13472  0.14692  1.0000
  C   C63       1.0  0.39027  0.13312  0.10709  1.0000
  C   C64       1.0  0.38494  0.12597  0.26406  1.0000
  H   H109      1.0  0.23597  0.16679  0.13552  1.0000
  C   C65       1.0  0.40975  0.23351  0.20193  1.0000
  H   H110      1.0  0.30527  0.01237  0.14564  1.0000
  H   H111      1.0  0.47413  0.11807  0.23386  1.0000
  H   H112      1.0  0.01539  0.31383  0.04359  1.0000
  C   C66       1.0  0.16038  0.18657  0.02040  1.0000
  Fe  Fe8       1.0  0.24803  0.11871  0.02519  1.0000
  S   S16       1.0  0.17268  0.31611  0.24927  1.0000
  H   H113      1.0  0.45213  0.13754  0.48197  1.0000
  C   C67       1.0  0.16033  0.31880  0.20365  1.0000
  C   C68       1.0  0.25987  0.99848  0.01320  1.0000
  H   H114      1.0  0.24668  0.01315  0.01446  1.0000
  S   S17       1.0  0.27582  0.14464  0.01003  1.0000
  H   H115      1.0  0.23968  0.32455  0.47417  1.0000
  H   H116      1.0  0.01357  0.32276  0.09168  1.0000
  S   S18       1.0  0.31340  0.09819  0.00691  1.0000
  H   H117      1.0  0.10038  0.31282  0.84531  1.0000
  H   H118      1.0  0.28093  0.30490  0.82576  1.0000
  H   H119      1.0  0.34872  0.07573  0.95173  1.0000
  H   H120      1.0  0.43546  0.21342  0.54440  1.0000
  Fe  Fe9       1.0  0.28788  0.11745  0.96725  1.0000
  S   S19       1.0  0.29054  0.12429  0.90431  1.0000
  S   S20       1.0  0.25826  0.09260  0.98010  1.0000
  Fe  Fe10      1.0  0.36692  0.18451  0.73823  1.0000
  S   S21       1.0  0.36727  0.22487  0.74171  1.0000
  S   S22       1.0  0.36899  0.16501  0.79467  1.0000
  Fe  Fe11      1.0  0.37009  0.18635  0.65169  1.0000
  S   S23       1.0  0.37019  0.22644  0.65107  1.0000
  S   S24       1.0  0.37515  0.16663  0.59655  1.0000
  Fe  Fe12      1.0  0.39626  0.22223  0.69860  1.0000
  S   S25       1.0  0.42994  0.24382  0.69801  1.0000
  Fe  Fe13      1.0  0.34147  0.22483  0.69387  1.0000
  S   S26       1.0  0.30468  0.24303  0.68915  1.0000
  S   S27       1.0  0.39754  0.18208  0.69765  1.0000
  S   S28       1.0  0.33969  0.18448  0.69212  1.0000
  Fe  Fe14      1.0  0.11265  0.30306  0.95279  1.0000
  C   C69       1.0  0.28549  0.24352  0.80452  1.0000
  S   S29       1.0  0.09802  0.26620  0.94724  1.0000
  H   H121      1.0  0.26007  0.20136  0.80194  1.0000
  H   H122      1.0  0.32089  0.19511  0.83526  1.0000
  H   H123      1.0  0.29911  0.29074  0.79058  1.0000
  C   C70       1.0  0.36696  0.17984  0.55285  1.0000
  H   H124      1.0  0.27275  0.17809  0.93479  1.0000
  C   C71       1.0  0.35405  0.20181  0.55034  1.0000
  C   C72       1.0  0.99659  0.28948  0.96513  1.0000
  H   H125      1.0  0.34844  0.21086  0.57540  1.0000
  H   H126      1.0  0.35104  0.25374  0.58528  1.0000
  H   H127      1.0  0.22402  0.16875  0.98542  1.0000
  H   H128      1.0  0.23039  0.04529  0.96952  1.0000
  H   H129      1.0  0.28377  0.05774  0.78314  1.0000
  H   H130      1.0  0.26016  0.03268  0.82561  1.0000
  H   H131      1.0  0.41293  0.25732  0.61396  1.0000
  C   C73       1.0  0.31202  0.29021  0.70922  1.0000
  C   C74       1.0  0.29574  0.27258  0.70151  1.0000
  C   C75       1.0  0.27127  0.27860  0.70232  1.0000
  H   H132      1.0  0.26792  0.24370  0.78994  1.0000
  H   H133      1.0  0.35377  0.28552  0.57922  1.0000
  H   H134      1.0  0.33094  0.28572  0.70868  1.0000
  H   H135      1.0  0.25858  0.26500  0.69671  1.0000
  C   C76       1.0  0.28378  0.26593  0.82994  1.0000
  H   H136      1.0  0.45230  0.14714  0.54895  1.0000
  C   C77       1.0  0.45845  0.23008  0.68970  1.0000
  C   C78       1.0  0.46281  0.20539  0.69472  1.0000
  H   H137      1.0  0.30136  0.18905  0.88689  1.0000
  C   C79       1.0  0.28016  0.30800  0.54485  1.0000
  H   H138      1.0  0.44866  0.19433  0.70409  1.0000
  H   H139      1.0  0.45434  0.24101  0.83973  1.0000
  H   H140      1.0  0.27429  0.27613  0.62492  1.0000
  H   H141      1.0  0.29882  0.24675  0.78237  1.0000
  C   C80       1.0  0.48558  0.19491  0.68784  1.0000
  C   C81       1.0  0.31284  0.13541  0.87451  1.0000
  C   C82       1.0  0.33533  0.14140  0.88743  1.0000
  C   C83       1.0  0.35231  0.15016  0.86254  1.0000
  C   C84       1.0  0.34696  0.15346  0.82456  1.0000
  C   C85       1.0  0.32446  0.14747  0.81165  1.0000
  C   C86       1.0  0.30759  0.13839  0.83644  1.0000
  H   H142      1.0  0.33971  0.13916  0.91654  1.0000
  H   H143      1.0  0.36969  0.15458  0.87285  1.0000
  H   H144      1.0  0.32019  0.14959  0.78250  1.0000
  H   H145      1.0  0.29032  0.13367  0.82604  1.0000
  H   H146      1.0  0.22516  0.25805  0.58922  1.0000
  H   H147      1.0  0.19422  0.18084  0.85613  1.0000
  H   H148      1.0  0.32456  0.23325  0.87706  1.0000
  H   H149      1.0  0.25982  0.22279  0.85796  1.0000
  H   H150      1.0  0.30509  0.19968  0.75256  1.0000
  H   H151      1.0  0.33319  0.24831  0.83477  1.0000
  C   C87       1.0  0.47725  0.24423  0.67823  1.0000
  C   C88       1.0  0.44583  0.14357  0.61944  1.0000
  H   H152      1.0  0.32482  0.06915  0.89681  1.0000
  C   C89       1.0  0.26644  0.28466  0.59933  1.0000
  H   H153      1.0  0.46041  0.20881  0.84309  1.0000
  H   H154      1.0  0.22843  0.25718  0.95842  1.0000
  H   H155      1.0  0.26600  0.06215  0.91783  1.0000
  H   H156      1.0  0.30927  0.30026  0.62793  1.0000
  C   C90       1.0  0.23054  0.26406  0.98703  1.0000
  C   C91       1.0  0.24014  0.29091  0.60979  1.0000
  C   C92       1.0  0.22621  0.26822  0.61551  1.0000
  C   C93       1.0  0.31991  0.05926  0.92232  1.0000
  C   C94       1.0  0.19415  0.19457  0.98188  1.0000
  H   H157      1.0  0.10942  0.31445  0.77787  1.0000
  H   H158      1.0  0.31890  0.31246  0.58497  1.0000
  H   H159      1.0  0.26672  0.27011  0.57828  1.0000
  H   H160      1.0  0.30853  0.25941  0.60058  1.0000
  H   H161      1.0  0.24413  0.30637  0.71112  1.0000
  H   H162      1.0  0.42532  0.14009  0.67008  1.0000
  C   C95       1.0  0.00392  0.27182  0.99121  1.0000
  Fe  Fe15      1.0  0.12595  0.25415  0.98974  1.0000
  H   H163      1.0  0.41170  0.19838  0.56553  1.0000
  H   H164      1.0  0.43232  0.13368  0.60370  1.0000
  H   H165      1.0  0.44766  0.22867  0.60851  1.0000
  H   H166      1.0  0.17396  0.30509  0.92056  1.0000
  H   H167      1.0  0.33804  0.04926  0.97418  1.0000
  H   H168      1.0  0.29700  0.00265  0.85928  1.0000
  C   C96       1.0  0.20637  0.17363  0.99536  1.0000
  H   H169      1.0  0.23966  0.30091  0.63630  1.0000
  H   H170      1.0  0.31522  0.27098  0.55534  1.0000
  H   H171      1.0  0.33723  0.22845  0.51386  1.0000
  C   C97       1.0  0.34219  0.05746  0.94691  1.0000
  H   H172      1.0  0.47496  0.19947  0.54818  1.0000
  H   H173      1.0  0.22258  0.06447  0.93011  1.0000
  N   N4        1.0  0.44657  0.18159  0.57618  1.0000
  H   H174      1.0  0.24306  0.30101  0.53144  1.0000
  S   S30       1.0  0.15627  0.22712  0.97411  1.0000
  H   H175      1.0  0.42234  0.15798  0.54991  1.0000
  H   H176      1.0  0.34704  0.27340  0.62456  1.0000
  C   C98       1.0  0.30697  0.29913  0.59721  1.0000
  N   N5        1.0  0.28134  0.30515  0.58651  1.0000
  H   H177      1.0  0.25035  0.05954  0.85025  1.0000
  C   C99       1.0  0.35764  0.22049  0.85415  1.0000
  H   H178      1.0  0.36820  0.23329  0.87020  1.0000
  H   H179      1.0  0.35780  0.20313  0.86954  1.0000
  H   H180      1.0  0.36632  0.21756  0.82687  1.0000
  N   N6        1.0  0.15778  0.24792  0.84873  1.0000
  C   C100      1.0  0.13412  0.23640  0.85351  1.0000
  C   C101      1.0  0.17712  0.22836  0.84713  1.0000
  C   C102      1.0  0.16136  0.26444  0.88108  1.0000
  C   C103      1.0  0.15840  0.26243  0.81333  1.0000
  C   C104      1.0  0.15333  0.24853  0.77717  1.0000
  C   C105      1.0  0.11160  0.25321  0.84776  1.0000
  C   C106      1.0  0.18570  0.27652  0.88302  1.0000
  C   C107      1.0  0.18190  0.21388  0.88349  1.0000
  H   H181      1.0  0.26724  0.26564  0.84667  1.0000
  C   C108      1.0  0.15126  0.26558  0.74382  1.0000
  C   C109      1.0  0.08889  0.23963  0.85422  1.0000
  C   C110      1.0  0.24312  0.03167  0.91632  1.0000
  H   H182      1.0  0.13281  0.22865  0.88198  1.0000
  H   H183      1.0  0.13257  0.22082  0.83464  1.0000
  H   H184      1.0  0.17270  0.21502  0.82559  1.0000
  H   H185      1.0  0.19424  0.23576  0.83800  1.0000
  H   H186      1.0  0.15856  0.25486  0.90776  1.0000
  H   H187      1.0  0.14756  0.27932  0.88085  1.0000
  H   H188      1.0  0.14590  0.27832  0.81489  1.0000
  H   H189      1.0  0.17618  0.27012  0.80958  1.0000
  H   H190      1.0  0.13653  0.23887  0.77879  1.0000
  H   H191      1.0  0.16812  0.23524  0.77157  1.0000
  H   H192      1.0  0.11153  0.26847  0.86727  1.0000
  H   H193      1.0  0.11055  0.26062  0.81913  1.0000
  H   H194      1.0  0.18741  0.28945  0.85972  1.0000
  C   C111      1.0  0.44374  0.13625  0.66017  1.0000
  H   H195      1.0  0.18873  0.22560  0.90552  1.0000
  H   H196      1.0  0.16544  0.20578  0.89367  1.0000
  C   C112      1.0  0.28263  0.28916  0.80710  1.0000
  H   H197      1.0  0.38329  0.15089  0.52142  1.0000
  H   H198      1.0  0.29902  0.26672  0.84933  1.0000
  H   H199      1.0  0.14885  0.25516  0.71804  1.0000
  H   H200      1.0  0.13560  0.27824  0.74685  1.0000
  H   H201      1.0  0.16757  0.27603  0.74099  1.0000
  H   H202      1.0  0.08876  0.23186  0.88268  1.0000
  H   H203      1.0  0.07311  0.25219  0.85104  1.0000
  H   H204      1.0  0.08741  0.22496  0.83375  1.0000
  C   C113      1.0  0.31732  0.27402  0.58547  1.0000
  H   H205      1.0  0.35657  0.04651  0.93333  1.0000
  H   H206      1.0  0.47405  0.26338  0.67431  1.0000
  C   C114      1.0  0.42971  0.22255  0.60154  1.0000
  C   C115      1.0  0.41448  0.24482  0.59014  1.0000
  H   H207      1.0  0.18642  0.27841  0.94338  1.0000
  H   H208      1.0  0.42190  0.21504  0.62707  1.0000
  H   H209      1.0  0.42282  0.25430  0.56668  1.0000
  H   H210      1.0  0.39632  0.23976  0.58175  1.0000
  N   N7        1.0  0.28726  0.03317  0.89360  1.0000
  H   H211      1.0  0.27949  0.99448  0.93905  1.0000
  C   C116      1.0  0.28793  0.04919  0.85965  1.0000
  C   C117      1.0  0.31128  0.03395  0.91266  1.0000
  H   H212      1.0  0.27373  0.03878  0.94941  1.0000
  H   H213      1.0  0.27816  0.21749  0.74419  1.0000
  C   C118      1.0  0.34393  0.27162  0.59426  1.0000
  C   C119      1.0  0.34768  0.21172  0.51535  1.0000
  C   C120      1.0  0.26530  0.05065  0.83495  1.0000
  C   C121      1.0  0.26303  0.30214  0.71007  1.0000
  H   H214      1.0  0.20082  0.26314  0.88207  1.0000
  C   C122      1.0  0.27059  0.19580  0.92046  1.0000
  H   H215      1.0  0.26636  0.00542  0.86884  1.0000
  H   H216      1.0  0.20274  0.20579  0.96191  1.0000
  H   H217      1.0  0.29067  0.06814  0.86771  1.0000
  H   H218      1.0  0.30340  0.04364  0.84198  1.0000
  H   H219      1.0  0.32536  0.02499  0.89531  1.0000
  H   H220      1.0  0.31120  0.02367  0.93932  1.0000
  H   H221      1.0  0.23652  0.03200  0.88738  1.0000
  H   H222      1.0  0.27918  0.20942  0.93781  1.0000
  C   C123      1.0  0.44094  0.16381  0.54630  1.0000
  H   H223      1.0  0.00982  0.30015  0.95194  1.0000
  H   H224      1.0  0.45112  0.18049  0.63569  1.0000
  C   C124      1.0  0.17104  0.20112  0.99403  1.0000
  Fe  Fe16      1.0  0.07428  0.27632  0.99612  1.0000
  C   C125      1.0  0.44122  0.17109  0.61391  1.0000
  H   H225      1.0  0.32534  0.21416  0.79718  1.0000
  C   C126      1.0  0.43039  0.20368  0.57002  1.0000
  C   C127      1.0  0.45678  0.22414  0.82370  1.0000
  H   H226      1.0  0.28608  0.23235  0.87941  1.0000
  H   H227      1.0  0.44780  0.11665  0.66331  1.0000
  C   C128      1.0  0.33212  0.23066  0.84903  1.0000
  C   C129      1.0  0.26926  0.06593  0.80028  1.0000
  H   H228      1.0  0.42207  0.17427  0.62075  1.0000
  C   C130      1.0  0.31728  0.21377  0.82520  1.0000
  H   H229      1.0  0.25268  0.06715  0.78330  1.0000
  H   H230      1.0  0.27394  0.08444  0.80808  1.0000
  C   C131      1.0  0.12241  0.32025  0.79781  1.0000
  H   H231      1.0  0.25125  0.20046  0.91779  1.0000
  H   H232      1.0  0.21769  0.20071  0.86848  1.0000
  H   H233      1.0  0.25522  0.18042  0.74017  1.0000
  C   C132      1.0  0.20051  0.19347  0.87741  1.0000
  C   C133      1.0  0.18804  0.29054  0.91901  1.0000
  H   H234      1.0  0.20356  0.18317  0.90362  1.0000
  H   H235      1.0  0.28235  0.16236  0.74860  1.0000
  C   C134      1.0  0.28566  0.20080  0.75746  1.0000
  H   H236      1.0  0.27931  0.18073  0.70739  1.0000
  N   N8        1.0  0.29079  0.21935  0.82303  1.0000
  C   C135      1.0  0.27491  0.17974  0.73735  1.0000
  H   H237      1.0  0.28565  0.18203  0.80966  1.0000
  C   C136      1.0  0.27986  0.20024  0.79954  1.0000
  H   H238      1.0  0.26698  0.28966  0.78810  1.0000
  C   C137      1.0  0.27929  0.21843  0.86079  1.0000
  C   C138      1.0  0.28227  0.19419  0.88232  1.0000
  H   H239      1.0  0.47547  0.20237  0.59680  1.0000
  H   H240      1.0  0.27375  0.17950  0.86726  1.0000
  H   H241      1.0  0.20781  0.27328  0.62450  1.0000
  H   H242      1.0  0.30584  0.06997  0.93698  1.0000
  H   H243      1.0  0.20564  0.29884  0.92016  1.0000
  S   S31       1.0  0.14129  0.29059  0.99277  1.0000
  H   H244      1.0  0.43991  0.22102  0.80853  1.0000
  H   H245      1.0  0.46363  0.13732  0.60976  1.0000
  H   H246      1.0  0.45644  0.14598  0.67765  1.0000
  S   S32       1.0  0.08751  0.31407  0.99898  1.0000
  C   C139      1.0  0.22479  0.04554  0.93990  1.0000
  C   C140      1.0  0.27917  0.31994  0.71720  1.0000
  H   H247      1.0  0.27463  0.32507  0.63677  1.0000
  H   H248      1.0  0.47177  0.24105  0.77660  1.0000
  H   H249      1.0  0.24357  0.01272  0.92607  1.0000
  H   H250      1.0  0.23483  0.25653  0.63726  1.0000
  C   C141      1.0  0.47704  0.22615  0.79592  1.0000
  C   C142      1.0  0.47195  0.18939  0.57435  1.0000
  C   C143      1.0  0.37373  0.16811  0.51985  1.0000
  C   C144      1.0  0.28411  0.00757  0.88163  1.0000
  C   C145      1.0  0.26820  0.04224  0.92010  1.0000
  C   C146      1.0  0.30372  0.31387  0.71708  1.0000
  H   H251      1.0  0.23063  0.30225  0.58868  1.0000
  H   H252      1.0  0.20729  0.03709  0.93777  1.0000
  C   C147      1.0  0.11734  0.31907  0.83608  1.0000
  H   H253      1.0  0.47809  0.20911  0.78018  1.0000
  C   C148      1.0  0.25566  0.31562  0.52782  1.0000
  H   H254      1.0  0.28537  0.29079  0.53119  1.0000
  H   H255      1.0  0.22364  0.28305  0.98768  1.0000
  H   H256      1.0  0.24981  0.26327  0.99425  1.0000
  H   H257      1.0  0.29342  0.32089  0.53516  1.0000
  C   C149      1.0  0.44311  0.17270  0.50567  1.0000
  C   C150      1.0  0.18091  0.43725  0.40851  1.0000
  Fe  Fe17      1.0  0.18926  0.60499  0.31014  1.0000
  S   S33       1.0  0.22339  0.58670  0.29092  1.0000
  S   S34       1.0  0.15693  0.61182  0.27195  1.0000
  Fe  Fe18      1.0  0.20879  0.61159  0.38960  1.0000
  S   S35       1.0  0.24440  0.59464  0.37507  1.0000
  S   S36       1.0  0.20550  0.62939  0.44609  1.0000
  Fe  Fe19      1.0  0.24119  0.61599  0.32228  1.0000
  C   C151      1.0  0.13571  0.64541  0.17550  1.0000
  Fe  Fe20      1.0  0.22330  0.56679  0.34570  1.0000
  S   S37       1.0  0.23499  0.52798  0.35981  1.0000
  S   S38       1.0  0.20705  0.63517  0.33849  1.0000
  S   S39       1.0  0.18763  0.58280  0.36307  1.0000
  Fe  Fe21      1.0  0.18303  0.36595  0.36667  1.0000
  S   S40       1.0  0.21625  0.38638  0.36113  1.0000
  S   S41       1.0  0.16138  0.36919  0.41963  1.0000
  Fe  Fe22      1.0  0.18747  0.34501  0.28706  1.0000
  S   S42       1.0  0.22147  0.36410  0.27668  1.0000
  H   H258      1.0  0.10094  0.43007  0.46915  1.0000
  Fe  Fe23      1.0  0.23171  0.35261  0.33487  1.0000
  H   H259      1.0  0.11900  0.64972  0.16141  1.0000
  Fe  Fe24      1.0  0.20277  0.39599  0.30409  1.0000
  S   S43       1.0  0.20067  0.43388  0.27988  1.0000
  H   H260      1.0  0.22855  0.43590  0.42961  1.0000
  S   S44       1.0  0.16810  0.37754  0.31085  1.0000
  C   C152      1.0  0.22572  0.50199  0.33693  1.0000
  C   C153      1.0  0.23297  0.47917  0.35092  1.0000
  C   C154      1.0  0.22543  0.45812  0.33382  1.0000
  C   C155      1.0  0.21075  0.45975  0.30234  1.0000
  C   C156      1.0  0.20368  0.48256  0.28821  1.0000
  C   C157      1.0  0.21109  0.50358  0.30553  1.0000
  H   H261      1.0  0.24430  0.47784  0.37529  1.0000
  H   H262      1.0  0.23100  0.44069  0.34493  1.0000
  H   H263      1.0  0.19236  0.48396  0.26386  1.0000
  H   H264      1.0  0.20568  0.52109  0.29475  1.0000
  C   C158      1.0  0.19599  0.61514  0.48718  1.0000
  H   H265      1.0  0.35893  0.44459  0.35335  1.0000
  H   H266      1.0  0.02291  0.34368  0.05685  1.0000
  H   H267      1.0  0.25264  0.55947  0.19962  1.0000
  C   C159      1.0  0.34517  0.44791  0.37493  1.0000
  H   H268      1.0  0.18649  0.58211  0.46153  1.0000
  H   H269      1.0  0.21144  0.36746  0.44098  1.0000
  H   H270      1.0  0.13712  0.41420  0.40568  1.0000
  C   C160      1.0  0.17604  0.36863  0.46334  1.0000
  H   H271      1.0  0.27438  0.43159  0.30284  1.0000
  C   C161      1.0  0.26475  0.41223  0.25444  1.0000
  H   H272      1.0  0.32853  0.37591  0.37729  1.0000
  H   H273      1.0  0.16228  0.48903  0.13214  1.0000
  H   H274      1.0  0.26905  0.33565  0.48054  1.0000
  H   H275      1.0  0.11377  0.60036  0.15731  1.0000
  H   H276      1.0  0.26072  0.39376  0.24572  1.0000
  H   H277      1.0  0.18742  0.53696  0.12721  1.0000
  C   C162      1.0  0.15747  0.62788  0.22916  1.0000
  H   H278      1.0  0.35107  0.38647  0.31834  1.0000
  H   H279      1.0  0.35433  0.45187  0.40144  1.0000
  H   H280      1.0  0.26650  0.41301  0.44209  1.0000
  H   H281      1.0  0.19395  0.43890  0.38561  1.0000
  H   H282      1.0  0.15891  0.59792  0.15453  1.0000
  H   H283      1.0  0.16804  0.35592  0.19529  1.0000
  N   N9        1.0  0.16867  0.55186  0.19673  1.0000
  C   C163      1.0  0.19074  0.56551  0.18862  1.0000
  C   C164      1.0  0.14662  0.56645  0.18450  1.0000
  C   C165      1.0  0.16763  0.54834  0.23831  1.0000
  C   C166      1.0  0.16949  0.52727  0.17939  1.0000
  C   C167      1.0  0.15713  0.65116  0.15877  1.0000
  S   S45       1.0  0.10877  0.65111  0.03334  1.0000
  C   C168      1.0  0.14407  0.53896  0.25413  1.0000
  C   C169      1.0  0.14837  0.58194  0.14865  1.0000
  C   C170      1.0  0.12375  0.59088  0.13490  1.0000
  H   H284      1.0  0.26860  0.38697  0.36227  1.0000
  C   C171      1.0  0.26919  0.39334  0.43828  1.0000
  C   C172      1.0  0.14557  0.53651  0.29635  1.0000
  H   H285      1.0  0.18945  0.58328  0.20270  1.0000
  C   C173      1.0  0.21484  0.55292  0.20014  1.0000
  H   H286      1.0  0.13128  0.55457  0.18138  1.0000
  H   H287      1.0  0.14127  0.57967  0.20635  1.0000
  H   H288      1.0  0.17116  0.56542  0.25273  1.0000
  H   H289      1.0  0.18192  0.53533  0.24776  1.0000
  H   H290      1.0  0.18392  0.51563  0.19231  1.0000
  H   H291      1.0  0.15285  0.51792  0.18544  1.0000
  C   C174      1.0  0.31310  0.63551  0.32433  1.0000
  H   H292      1.0  0.11608  0.40101  0.46312  1.0000
  H   H293      1.0  0.16038  0.52372  0.30456  1.0000
  H   H294      1.0  0.30596  0.65044  0.43166  1.0000
  H   H295      1.0  0.14036  0.52103  0.24285  1.0000
  H   H296      1.0  0.12868  0.55146  0.24767  1.0000
  C   C175      1.0  0.28954  0.38796  0.41127  1.0000
  H   H297      1.0  0.23644  0.57156  0.15986  1.0000
  C   C176      1.0  0.18789  0.50733  0.49918  1.0000
  H   H298      1.0  0.12570  0.60366  0.11140  1.0000
  H   H299      1.0  0.20288  0.50621  0.47924  1.0000
  H   H300      1.0  0.19221  0.56986  0.15871  1.0000
  H   H301      1.0  0.36464  0.35190  0.35833  1.0000
  H   H302      1.0  0.21577  0.54953  0.23046  1.0000
  H   H303      1.0  0.30419  0.43605  0.33895  1.0000
  H   H304      1.0  0.26747  0.65056  0.39703  1.0000
  H   H305      1.0  0.18078  0.41752  0.41393  1.0000
  H   H306      1.0  0.14850  0.55426  0.30914  1.0000
  H   H307      1.0  0.12867  0.52968  0.30719  1.0000
  H   H308      1.0  0.19406  0.49288  0.13579  1.0000
  C   C177      1.0  0.33465  0.64561  0.33475  1.0000
  C   C178      1.0  0.21213  0.36798  0.50089  1.0000
  H   H309      1.0  0.34467  0.33270  0.33402  1.0000
  C   C179      1.0  0.21599  0.43625  0.45329  1.0000
  C   C180      1.0  0.29251  0.65018  0.31909  1.0000
  C   C181      1.0  0.13591  0.63376  0.21045  1.0000
  H   H310      1.0  0.30587  0.39535  0.42301  1.0000
  H   H311      1.0  0.26897  0.62859  0.43388  1.0000
  H   H312      1.0  0.31273  0.61651  0.31836  1.0000
  C   C182      1.0  0.11762  0.41926  0.47498  1.0000
  C   C183      1.0  0.20088  0.36802  0.46593  1.0000
  H   H313      1.0  0.33373  0.46389  0.36684  1.0000
  C   C184      1.0  0.35541  0.34892  0.33154  1.0000
  H   H314      1.0  0.21268  0.41754  0.46209  1.0000
  H   H315      1.0  0.13980  0.44960  0.47096  1.0000
  H   H316      1.0  0.23380  0.58622  0.20440  1.0000
  H   H317      1.0  0.11335  0.57560  0.12517  1.0000
  N   N10       1.0  0.15631  0.44660  0.39641  1.0000
  C   C185      1.0  0.15435  0.44095  0.35561  1.0000
  H   H318      1.0  0.11933  0.44116  0.40917  1.0000
  C   C186      1.0  0.15229  0.47317  0.40284  1.0000
  C   C187      1.0  0.16761  0.48950  0.37847  1.0000
  C   C188      1.0  0.13021  0.44776  0.33639  1.0000
  C   C189      1.0  0.19265  0.44949  0.44222  1.0000
  H   H319      1.0  0.35065  0.63422  0.33754  1.0000
  C   C190      1.0  0.16688  0.51539  0.39221  1.0000
  C   C191      1.0  0.13176  0.44368  0.29458  1.0000
  H   H320      1.0  0.15794  0.42135  0.35128  1.0000
  H   H321      1.0  0.16858  0.44960  0.33970  1.0000
  H   H322      1.0  0.34240  0.41075  0.38874  1.0000
  H   H323      1.0  0.13331  0.47885  0.39799  1.0000
  H   H324      1.0  0.15524  0.47757  0.43242  1.0000
  H   H325      1.0  0.16092  0.48981  0.34943  1.0000
  H   H326      1.0  0.18639  0.48276  0.37809  1.0000
  H   H327      1.0  0.11598  0.43643  0.34721  1.0000
  H   H328      1.0  0.12486  0.46690  0.34067  1.0000
  H   H329      1.0  0.19699  0.46821  0.43516  1.0000
  H   H330      1.0  0.18108  0.45014  0.46685  1.0000
  S   S46       1.0  0.26802  0.63935  0.29447  1.0000
  H   H331      1.0  0.28556  0.37656  0.30162  1.0000
  H   H332      1.0  0.14832  0.52310  0.39201  1.0000
  H   H333      1.0  0.17443  0.51627  0.42065  1.0000
  H   H334      1.0  0.17780  0.52648  0.37371  1.0000
  H   H335      1.0  0.11425  0.44826  0.28133  1.0000
  H   H336      1.0  0.14533  0.45516  0.28207  1.0000
  H   H337      1.0  0.13664  0.42455  0.28867  1.0000
  H   H338      1.0  0.30907  0.35912  0.35057  1.0000
  H   H339      1.0  0.27354  0.38496  0.46568  1.0000
  C   C192      1.0  0.17886  0.63394  0.21263  1.0000
  H   H340      1.0  0.29235  0.36810  0.41027  1.0000
  H   H341      1.0  0.15565  0.53311  0.12311  1.0000
  H   H342      1.0  0.33179  0.36709  0.29308  1.0000
  C   C193      1.0  0.17238  0.52634  0.13682  1.0000
  C   C194      1.0  0.17708  0.50052  0.12383  1.0000
  H   H343      1.0  0.32931  0.42069  0.32034  1.0000
  C   C195      1.0  0.17867  0.64553  0.17769  1.0000
  C   C196      1.0  0.23564  0.56856  0.19031  1.0000
  C   C197      1.0  0.13728  0.43303  0.41593  1.0000
  H   H344      1.0  0.17847  0.50024  0.09312  1.0000
  H   H345      1.0  0.24886  0.42423  0.24858  1.0000
  H   H346      1.0  0.31728  0.43011  0.40240  1.0000
  H   H347      1.0  0.22434  0.44557  0.47686  1.0000
  H   H348      1.0  0.27557  0.41663  0.37436  1.0000
  H   H349      1.0  0.30570  0.39743  0.28342  1.0000
  C   C198      1.0  0.26818  0.64816  0.42767  1.0000
  H   H350      1.0  0.25465  0.40774  0.31117  1.0000
  H   H351      1.0  0.25242  0.38579  0.42794  1.0000
  H   H352      1.0  0.27980  0.41865  0.23776  1.0000
  H   H353      1.0  0.17555  0.49283  0.49290  1.0000
  N   N11       1.0  0.30324  0.39732  0.34341  1.0000
  C   C199      1.0  0.31968  0.37548  0.34978  1.0000
  C   C200      1.0  0.28346  0.39802  0.37179  1.0000
  C   C201      1.0  0.29212  0.39503  0.30533  1.0000
  C   C202      1.0  0.31658  0.42027  0.34381  1.0000
  C   C203      1.0  0.33016  0.42586  0.37995  1.0000
  C   C204      1.0  0.33954  0.37087  0.32071  1.0000
  C   C205      1.0  0.27077  0.41278  0.29582  1.0000
  H   H354      1.0  0.15722  0.57221  0.12565  1.0000
  H   H355      1.0  0.15153  0.35792  0.13112  1.0000
  H   H356      1.0  0.19556  0.62937  0.22657  1.0000
  H   H357      1.0  0.11925  0.62916  0.22298  1.0000
  H   H358      1.0  0.21761  0.53556  0.18558  1.0000
  H   H359      1.0  0.14336  0.36948  0.49443  1.0000
  S   S47       1.0  0.19910  0.33166  0.34396  1.0000
  C   C206      1.0  0.01071  0.32893  0.06256  1.0000
  H   H360      1.0  0.99952  0.65079  0.05448  1.0000
  H   H361      1.0  0.28510  0.60874  0.49120  1.0000
  S   S48       1.0  0.26555  0.33582  0.36015  1.0000
  H   H362      1.0  0.19536  0.64984  0.16502  1.0000
  C   C207      1.0  0.13910  0.43145  0.45866  1.0000
  H   H363      1.0  0.28107  0.33359  0.28293  1.0000
  H   H364      1.0  0.23243  0.65540  0.23091  1.0000
  H   H365      1.0  0.17830  0.52501  0.49528  1.0000
  C   C208      1.0  0.18741  0.59192  0.48723  1.0000
  C   C209      1.0  0.16259  0.36922  0.49614  1.0000
  H   H366      1.0  0.29026  0.65669  0.47438  1.0000
  H   H367      1.0  0.36906  0.34550  0.30985  1.0000
  H   H368      1.0  0.15515  0.42039  0.46710  1.0000
  C   C210      1.0  0.15125  0.34125  0.14666  1.0000
  C   C211      1.0  0.16060  0.34020  0.18313  1.0000
  H   H369      1.0  0.25156  0.65611  0.43983  1.0000
  H   H370      1.0  0.31105  0.58962  0.50127  1.0000
  Fe  Fe25      1.0  0.20699  0.57419  0.71866  1.0000
  S   S49       1.0  0.16829  0.57460  0.70326  1.0000
  S   S50       1.0  0.22796  0.53981  0.73404  1.0000
  Fe  Fe26      1.0  0.21144  0.62715  0.69778  1.0000
  S   S51       1.0  0.17323  0.63041  0.67924  1.0000
  C   C212      1.0  0.24273  0.53287  0.62762  1.0000
  Fe  Fe27      1.0  0.16589  0.61042  0.73221  1.0000
  S   S52       1.0  0.13584  0.62608  0.76823  1.0000
  Fe  Fe28      1.0  0.17975  0.59464  0.65223  1.0000
  S   S53       1.0  0.16966  0.58094  0.59516  1.0000
  S   S54       1.0  0.20393  0.60855  0.75166  1.0000
  S   S55       1.0  0.21851  0.59286  0.66664  1.0000
  Fe  Fe29      1.0  0.23158  0.36140  0.70839  1.0000
  H   H371      1.0  0.23925  0.53887  0.65640  1.0000
  C   C213      1.0  0.02169  0.63593  0.94780  1.0000
  Fe  Fe30      1.0  0.19439  0.40351  0.70225  1.0000
  S   S56       1.0  0.16997  0.38143  0.66793  1.0000
  S   S57       1.0  0.17759  0.44026  0.71599  1.0000
  Fe  Fe31      1.0  0.17874  0.35218  0.71023  1.0000
  C   C214      1.0  0.24586  0.62660  0.82693  1.0000
  Fe  Fe32      1.0  0.20275  0.36864  0.63718  1.0000
  H   H372      1.0  0.16799  0.34240  0.86930  1.0000
  S   S58       1.0  0.20178  0.37471  0.74546  1.0000
  S   S59       1.0  0.22660  0.39271  0.66900  1.0000
  C   C215      1.0  0.19875  0.36813  0.53370  1.0000
  C   C216      1.0  0.17388  0.36895  0.53123  1.0000
  H   H373      1.0  0.27044  0.58168  0.67293  1.0000
  H   H374      1.0  0.16338  0.36898  0.55628  1.0000
  H   H375      1.0  0.27224  0.63975  0.53952  1.0000
  C   C217      1.0  0.27567  0.62374  0.63069  1.0000
  H   H376      1.0  0.13461  0.52024  0.68897  1.0000
  H   H377      1.0  0.23362  0.49633  0.63772  1.0000
  H   H378      1.0  0.17217  0.56403  0.52028  1.0000
  H   H379      1.0  0.06666  0.64770  0.96832  1.0000
  H   H380      1.0  0.10879  0.65526  0.81970  1.0000
  C   C218      1.0  0.18049  0.59422  0.55414  1.0000
  C   C219      1.0  0.18942  0.61726  0.55416  1.0000
  H   H381      1.0  0.23255  0.50559  0.59000  1.0000
  H   H382      1.0  0.18987  0.62724  0.57973  1.0000
  H   H383      1.0  0.26066  0.37754  0.60794  1.0000
  C   C220      1.0  0.21403  0.51207  0.72911  1.0000
  C   C221      1.0  0.22788  0.49096  0.72229  1.0000
  C   C222      1.0  0.21709  0.46872  0.71814  1.0000
  C   C223      1.0  0.19240  0.46741  0.72156  1.0000
  C   C224      1.0  0.17866  0.48843  0.72902  1.0000
  C   C225      1.0  0.18935  0.51069  0.73230  1.0000
  H   H384      1.0  0.24701  0.49186  0.72002  1.0000
  H   H385      1.0  0.22788  0.45261  0.71258  1.0000
  H   H386      1.0  0.15957  0.48756  0.73193  1.0000
  H   H387      1.0  0.17852  0.52669  0.73813  1.0000
  C   C226      1.0  0.16114  0.50128  0.62948  1.0000
  C   C227      1.0  0.14307  0.63737  0.89415  1.0000
  C   C228      1.0  0.15729  0.61836  0.83696  1.0000
  C   C229      1.0  0.15919  0.62181  0.87550  1.0000
  H   H388      1.0  0.31052  0.60246  0.56677  1.0000
  H   H389      1.0  0.16977  0.60622  0.82305  1.0000
  N   N12       1.0  0.13208  0.41477  0.83111  1.0000
  C   C230      1.0  0.11416  0.39917  0.84942  1.0000
  C   C231      1.0  0.12687  0.41597  0.79001  1.0000
  C   C232      1.0  0.15667  0.40400  0.83884  1.0000
  C   C233      1.0  0.13063  0.44006  0.84598  1.0000
  C   C234      1.0  0.10530  0.45218  0.84804  1.0000
  C   C235      1.0  0.11569  0.39731  0.89235  1.0000
  C   C236      1.0  0.17743  0.41632  0.81919  1.0000
  C   C237      1.0  0.13010  0.39203  0.76855  1.0000
  C   C238      1.0  0.12217  0.39538  0.72817  1.0000
  C   C239      1.0  0.10635  0.47808  0.86145  1.0000
  C   C240      1.0  0.09359  0.38594  0.90815  1.0000
  C   C241      1.0  0.20148  0.40510  0.83170  1.0000
  H   H390      1.0  0.11636  0.38030  0.83971  1.0000
  H   H391      1.0  0.09571  0.40503  0.84102  1.0000
  H   H392      1.0  0.10817  0.42256  0.78502  1.0000
  H   H393      1.0  0.13805  0.42938  0.77607  1.0000
  H   H394      1.0  0.15766  0.38470  0.83136  1.0000
  H   H395      1.0  0.16060  0.40435  0.86912  1.0000
  H   H396      1.0  0.13894  0.44080  0.87405  1.0000
  H   H397      1.0  0.14133  0.45206  0.82843  1.0000
  H   H398      1.0  0.09392  0.44249  0.86769  1.0000
  H   H399      1.0  0.09646  0.45265  0.82045  1.0000
  H   H400      1.0  0.13147  0.38576  0.90069  1.0000
  H   H401      1.0  0.11723  0.41502  0.90566  1.0000
  H   H402      1.0  0.17755  0.43575  0.82554  1.0000
  H   H403      1.0  0.17606  0.41436  0.78871  1.0000
  H   H404      1.0  0.14901  0.38550  0.76868  1.0000
  H   H405      1.0  0.11925  0.37778  0.78049  1.0000
  H   H406      1.0  0.23062  0.64818  0.78281  1.0000
  H   H407      1.0  0.13281  0.40914  0.71421  1.0000
  C   C242      1.0  0.30094  0.61390  0.54590  1.0000
  H   H408      1.0  0.11458  0.47861  0.88952  1.0000
  H   H409      1.0  0.11681  0.48894  0.84194  1.0000
  H   H410      1.0  0.08803  0.48632  0.86296  1.0000
  C   C243      1.0  0.19757  0.50462  0.53876  1.0000
  H   H411      1.0  0.07758  0.39803  0.90380  1.0000
  H   H412      1.0  0.09061  0.36842  0.89474  1.0000
  H   H413      1.0  0.21595  0.41309  0.81547  1.0000
  H   H414      1.0  0.20462  0.40861  0.86157  1.0000
  H   H415      1.0  0.20221  0.38538  0.82713  1.0000
  N   N13       1.0  0.18372  0.49983  0.60688  1.0000
  H   H416      1.0  0.04517  0.61219  0.81839  1.0000
  C   C244      1.0  0.06877  0.61140  0.94777  1.0000
  H   H417      1.0  0.26387  0.63578  0.73654  1.0000
  C   C245      1.0  0.14918  0.52671  0.63408  1.0000
  H   H418      1.0  0.29397  0.58951  0.61693  1.0000
  H   H419      1.0  0.23271  0.61231  0.82492  1.0000
  C   C246      1.0  0.23511  0.65056  0.81242  1.0000
  H   H420      1.0  0.17326  0.61230  0.89098  1.0000
  H   H421      1.0  0.19842  0.51871  0.65375  1.0000
  H   H422      1.0  0.27853  0.36911  0.64832  1.0000
  H   H423      1.0  0.14218  0.53377  0.60711  1.0000
  H   H424      1.0  0.17063  0.52594  0.56609  1.0000
  H   H425      1.0  0.31343  0.62735  0.53555  1.0000
  H   H426      1.0  0.26198  0.52786  0.62523  1.0000
  H   H427      1.0  0.16183  0.53955  0.64523  1.0000
  H   H428      1.0  0.20136  0.64329  0.83841  1.0000
  C   C247      1.0  0.06458  0.63883  0.94091  1.0000
  C   C248      1.0  0.13902  0.63025  0.81668  1.0000
  H   H429      1.0  0.16205  0.49639  0.55752  1.0000
  H   H430      1.0  0.06107  0.60072  0.92516  1.0000
  H   H431      1.0  0.11997  0.54455  0.66335  1.0000
  C   C249      1.0  0.20092  0.51720  0.62320  1.0000
  H   H432      1.0  0.14723  0.49018  0.61708  1.0000
  H   H433      1.0  0.16092  0.45379  0.60867  1.0000
  H   H434      1.0  0.10449  0.60774  0.92471  1.0000
  H   H435      1.0  0.11464  0.51392  0.65087  1.0000
  C   C250      1.0  0.27837  0.62696  0.56193  1.0000
  H   H436      1.0  0.19745  0.46974  0.63986  1.0000
  H   H437      1.0  0.19701  0.53568  0.61206  1.0000
  H   H438      1.0  0.21013  0.51922  0.54314  1.0000
  H   H439      1.0  0.26409  0.61369  0.56399  1.0000
  H   H440      1.0  0.31967  0.63599  0.60045  1.0000
  H   H441      1.0  0.17728  0.34348  0.80205  1.0000
  H   H442      1.0  0.16466  0.49369  0.65772  1.0000
  C   C251      1.0  0.27892  0.37252  0.61793  1.0000
  C   C252      1.0  0.23661  0.65452  0.59168  1.0000
  H   H443      1.0  0.07278  0.61953  0.87131  1.0000
  C   C253      1.0  0.17727  0.50682  0.56747  1.0000
  H   H444      1.0  0.23830  0.54800  0.60818  1.0000
  C   C254      1.0  0.17813  0.45452  0.59392  1.0000
  C   C255      1.0  0.12830  0.52619  0.66098  1.0000
  C   C256      1.0  0.17942  0.58165  0.52055  1.0000
  H   H445      1.0  0.17461  0.45763  0.56393  1.0000
  H   H446      1.0  0.28300  0.58343  0.52252  1.0000
  H   H447      1.0  0.10299  0.40098  0.72648  1.0000
  C   C257      1.0  0.19681  0.62776  0.52072  1.0000
  H   H448      1.0  0.23007  0.64301  0.61435  1.0000
  H   H449      1.0  0.23458  0.64485  0.56525  1.0000
  C   C258      1.0  0.19379  0.47429  0.61011  1.0000
  H   H450      1.0  0.31230  0.60958  0.64294  1.0000
  C   C259      1.0  0.22797  0.51123  0.61847  1.0000
  S   S60       1.0  0.21430  0.36666  0.57663  1.0000
  C   C260      1.0  0.27069  0.65317  0.72994  1.0000
  H   H451      1.0  0.21130  0.47203  0.59640  1.0000
  H   H452      1.0  0.20778  0.42878  0.58344  1.0000
  C   C261      1.0  0.16055  0.33671  0.81127  1.0000
  C   C262      1.0  0.30539  0.65031  0.60147  1.0000
  H   H453      1.0  0.28770  0.60256  0.69906  1.0000
  C   C263      1.0  0.09522  0.60421  0.95119  1.0000
  H   H454      1.0  0.25503  0.33355  0.60010  1.0000
  H   H455      1.0  0.27296  0.63437  0.65638  1.0000
  C   C264      1.0  0.19047  0.42969  0.59819  1.0000
  H   H456      1.0  0.30168  0.57541  0.68118  1.0000
  H   H457      1.0  0.19353  0.42548  0.62800  1.0000
  H   H458      1.0  0.03020  0.61902  0.88466  1.0000
  H   H459      1.0  0.09745  0.58474  0.95773  1.0000
  H   H460      1.0  0.17903  0.41581  0.58641  1.0000
  H   H461      1.0  0.06003  0.60626  0.97409  1.0000
  C   C265      1.0  0.05503  0.62901  0.82034  1.0000
  C   C266      1.0  0.99555  0.64389  0.93802  1.0000
  H   H462      1.0  0.11988  0.41735  0.50551  1.0000
  C   C267      1.0  0.13376  0.32697  0.86214  1.0000
  C   C268      1.0  0.15533  0.33586  0.84945  1.0000
  H   H463      1.0  0.02272  0.61596  0.94683  1.0000
  H   H464      1.0  0.02470  0.64055  0.97746  1.0000
  H   H465      1.0  0.20741  0.48700  0.54052  1.0000
  H   H466      1.0  0.25840  0.61514  0.62622  1.0000
  H   H467      1.0  0.10367  0.61438  0.97372  1.0000
  S   S61       1.0  0.14964  0.33033  0.73669  1.0000
  C   C269      1.0  0.28801  0.58996  0.67531  1.0000
  H   H468      1.0  0.09607  0.38268  0.93840  1.0000
  N   N14       1.0  0.28100  0.64003  0.59838  1.0000
  H   H469      1.0  0.20285  0.64592  0.52062  1.0000
  S   S62       1.0  0.26907  0.34971  0.72668  1.0000
  C   C270      1.0  0.29410  0.60300  0.63934  1.0000
  H   H470      1.0  0.12476  0.37811  0.71327  1.0000
  C   C271      1.0  0.12284  0.64583  0.83530  1.0000
  H   H471      1.0  0.30745  0.34732  0.60700  1.0000
  S   S63       1.0  0.20905  0.33690  0.67563  1.0000
  H   H472      1.0  0.30370  0.64666  0.76000  1.0000
  C   C272      1.0  0.12493  0.64953  0.87385  1.0000
  H   H473      1.0  0.07183  0.62660  0.80439  1.0000
  N   N15       1.0  0.04078  0.64623  0.92369  1.0000
  H   H474      1.0  0.29040  0.38789  0.61261  1.0000
  C   C273      1.0  0.06090  0.63450  0.86074  1.0000
  S   S64       1.0  0.14667  0.64099  0.94263  1.0000
  H   H475      1.0  0.26161  0.62115  0.81002  1.0000
  H   H476      1.0  0.25167  0.62823  0.85627  1.0000
  H   H477      1.0  0.07954  0.64533  0.92426  1.0000
  C   C274      1.0  0.28873  0.35032  0.59760  1.0000
  H   H478      1.0  0.28840  0.35460  0.56751  1.0000
  C   C275      1.0  0.14401  0.32915  0.78515  1.0000
  H   H479      1.0  0.31632  0.32754  0.72285  1.0000
  C   C276      1.0  0.03794  0.63711  0.88454  1.0000
  S   S65       1.0  0.12671  0.32961  0.90993  1.0000
  C   C277      1.0  0.27387  0.32811  0.60617  1.0000
  H   H480      1.0  0.24818  0.33229  0.54048  1.0000
  H   H481      1.0  0.04420  0.64408  0.80758  1.0000
  H   H482      1.0  0.02474  0.64887  0.86901  1.0000
  H   H483      1.0  0.99220  0.64338  0.90770  1.0000
  H   H484      1.0  0.30546  0.65538  0.66219  1.0000
  H   H485      1.0  0.07125  0.65090  0.86103  1.0000
  C   C278      1.0  0.29456  0.59799  0.51324  1.0000
  H   H486      1.0  0.34770  0.65480  0.64362  1.0000
  H   H487      1.0  0.17859  0.65649  0.78676  1.0000
  C   C279      1.0  0.21309  0.65882  0.83531  1.0000
  H   H488      1.0  0.23135  0.36764  0.50252  1.0000
  Fe  Fe33      1.0  0.29867  0.85308  0.06793  1.0000
  S   S66       1.0  0.25995  0.86285  0.05759  1.0000
  S   S67       1.0  0.31506  0.85683  0.12589  1.0000
  H   H489      1.0  0.39243  0.69882  0.46557  1.0000
  C   C280      1.0  0.37897  0.75851  0.17202  1.0000
  C   C281      1.0  0.37929  0.83512  0.09355  1.0000
  H   H490      1.0  0.25632  0.72843  0.27235  1.0000
  H   H491      1.0  0.40021  0.79719  0.26253  1.0000
  H   H492      1.0  0.35717  0.68829  0.21954  1.0000
  H   H493      1.0  0.33353  0.85591  0.20053  1.0000
  C   C282      1.0  0.38983  0.77659  0.19941  1.0000
  H   H494      1.0  0.17164  0.76966  0.13610  1.0000
  H   H495      1.0  0.43418  0.81255  0.16777  1.0000
  S   S68       1.0  0.10426  0.70621  0.06478  1.0000
  Fe  Fe34      1.0  0.35987  0.76939  0.38453  1.0000
  S   S69       1.0  0.39117  0.74319  0.38189  1.0000
  S   S70       1.0  0.34477  0.78356  0.43938  1.0000
  Fe  Fe35      1.0  0.35106  0.76779  0.29854  1.0000
  S   S71       1.0  0.38197  0.74119  0.29158  1.0000
  S   S72       1.0  0.32726  0.77245  0.24666  1.0000
  Fe  Fe36      1.0  0.36801  0.72307  0.34251  1.0000
  S   S73       1.0  0.36385  0.68289  0.34778  1.0000
  Fe  Fe37      1.0  0.40190  0.76411  0.33125  1.0000
  S   S74       1.0  0.43772  0.78083  0.32068  1.0000
  S   S75       1.0  0.33624  0.74822  0.34755  1.0000
  S   S76       1.0  0.37152  0.79191  0.33593  1.0000
  H   H496      1.0  0.36657  0.72219  0.17066  1.0000
  H   H497      1.0  0.15697  0.74903  0.18445  1.0000
  H   H498      1.0  0.38230  0.83715  0.27969  1.0000
  C   C283      1.0  0.48306  0.75469  0.40186  1.0000
  H   H499      1.0  0.47011  0.77185  0.16342  1.0000
  H   H500      1.0  0.28665  0.71945  0.09902  1.0000
  H   H501      1.0  0.28923  0.98604  0.09694  1.0000
  C   C284      1.0  0.24109  0.69229  0.21758  1.0000
  C   C285      1.0  0.46065  0.74181  0.41265  1.0000
  H   H502      1.0  0.35329  0.70319  0.49373  1.0000
  C   C286      1.0  0.27505  0.92903  0.19497  1.0000
  C   C287      1.0  0.47042  0.74278  0.30800  1.0000
  C   C288      1.0  0.46633  0.76761  0.31137  1.0000
  H   H503      1.0  0.14653  0.70923  0.21079  1.0000
  C   C289      1.0  0.25029  0.76926  0.12477  1.0000
  H   H504      1.0  0.45570  0.73096  0.31012  1.0000
  C   C290      1.0  0.25562  0.91988  0.10462  1.0000
  H   H505      1.0  0.27287  0.77836  0.24959  1.0000
  C   C291      1.0  0.35374  0.77405  0.48489  1.0000
  C   C292      1.0  0.21037  0.78580  0.01120  1.0000
  H   H506      1.0  0.46245  0.75141  0.49789  1.0000
  C   C293      1.0  0.18072  0.72114  0.15913  1.0000
  S   S77       1.0  0.29793  0.82076  0.03174  1.0000
  H   H507      1.0  0.40356  0.76673  0.21683  1.0000
  H   H508      1.0  0.40973  0.83009  0.30432  1.0000
  H   H509      1.0  0.23136  0.66876  0.07133  1.0000
  H   H510      1.0  0.42728  0.81099  0.24933  1.0000
  H   H511      1.0  0.16609  0.70981  0.14950  1.0000
  H   H512      1.0  0.24285  0.76796  0.24556  1.0000
  C   C294      1.0  0.26977  0.73992  0.25975  1.0000
  H   H513      1.0  0.26342  0.91632  0.24870  1.0000
  H   H514      1.0  0.26232  0.75463  0.13601  1.0000
  H   H515      1.0  0.19453  0.70806  0.17017  1.0000
  H   H516      1.0  0.21684  0.77440  0.09656  1.0000
  H   H517      1.0  0.27826  0.94710  0.20620  1.0000
  H   H518      1.0  0.42381  0.78064  0.11838  1.0000
  C   C295      1.0  0.31814  0.83328  0.15931  1.0000
  C   C296      1.0  0.31113  0.81004  0.15171  1.0000
  C   C297      1.0  0.31406  0.79176  0.17880  1.0000
  C   C298      1.0  0.32417  0.79634  0.21370  1.0000
  C   C299      1.0  0.33109  0.81960  0.22140  1.0000
  C   C300      1.0  0.32814  0.83796  0.19429  1.0000
  H   H519      1.0  0.30340  0.80618  0.12496  1.0000
  H   H520      1.0  0.30855  0.77397  0.17246  1.0000
  H   H521      1.0  0.33853  0.82351  0.24834  1.0000
  C   C301      1.0  0.22591  0.67403  0.23721  1.0000
  H   H522      1.0  0.40952  0.85117  0.26616  1.0000
  N   N16       1.0  0.29360  0.93843  0.13094  1.0000
  C   C302      1.0  0.29344  0.92211  0.16456  1.0000
  C   C303      1.0  0.30927  0.92651  0.10201  1.0000
  C   C304      1.0  0.37318  0.75796  0.49105  1.0000
  H   H523      1.0  0.29030  0.97145  0.16201  1.0000
  H   H524      1.0  0.33494  0.68741  0.41713  1.0000
  H   H525      1.0  0.25498  0.90691  0.12799  1.0000
  H   H526      1.0  0.38705  0.84636  0.14871  1.0000
  C   C305      1.0  0.33628  0.92435  0.11150  1.0000
  H   H527      1.0  0.32001  0.67138  0.19916  1.0000
  Fe  Fe38      1.0  0.08254  0.68312  0.02651  1.0000
  H   H528      1.0  0.25656  0.92904  0.18406  1.0000
  H   H529      1.0  0.32356  0.70655  0.16028  1.0000
  H   H530      1.0  0.31120  0.92139  0.17839  1.0000
  H   H531      1.0  0.29060  0.90319  0.15629  1.0000
  H   H532      1.0  0.30356  0.90793  0.09669  1.0000
  H   H533      1.0  0.30707  0.93589  0.07486  1.0000
  H   H534      1.0  0.38708  0.79316  0.12670  1.0000
  C   C306      1.0  0.34673  0.67814  0.23990  1.0000
  H   H535      1.0  0.22954  0.93923  0.06911  1.0000
  H   H536      1.0  0.14815  0.73684  0.07888  1.0000
  H   H537      1.0  0.25755  0.95386  0.13383  1.0000
  H   H538      1.0  0.12824  0.77983  0.12389  1.0000
  C   C307      1.0  0.30283  0.96235  0.14236  1.0000
  C   C308      1.0  0.32059  0.67803  0.22799  1.0000
  H   H539      1.0  0.37806  0.82441  0.21418  1.0000
  S   S78       1.0  0.04267  0.67380  0.03341  1.0000
  H   H540      1.0  0.34384  0.94232  0.11427  1.0000
  H   H541      1.0  0.33954  0.91420  0.13774  1.0000
  H   H542      1.0  0.26801  0.69038  0.26108  1.0000
  H   H543      1.0  0.17811  0.70959  0.08779  1.0000
  H   H544      1.0  0.29191  0.68866  0.40395  1.0000
  C   C309      1.0  0.42613  0.79525  0.17510  1.0000
  C   C310      1.0  0.22748  0.75913  0.10904  1.0000
  H   H545      1.0  0.27306  0.89272  0.21759  1.0000
  C   C311      1.0  0.26891  0.94270  0.11489  1.0000
  H   H546      1.0  0.29476  0.91087  0.24023  1.0000
  H   H547      1.0  0.34857  0.68650  0.26755  1.0000
  H   H548      1.0  0.36650  0.80863  0.15559  1.0000
  H   H549      1.0  0.18606  0.74582  0.20566  1.0000
  H   H550      1.0  0.38351  0.75137  0.46778  1.0000
  H   H551      1.0  0.17970  0.76438  0.08957  1.0000
  H   H552      1.0  0.46540  0.72470  0.42744  1.0000
  N   N17       1.0  0.28421  0.70686  0.21354  1.0000
  C   C312      1.0  0.30830  0.70335  0.23196  1.0000
  C   C313      1.0  0.27544  0.73255  0.21920  1.0000
  C   C314      1.0  0.26747  0.68944  0.23040  1.0000
  C   C315      1.0  0.28558  0.70221  0.17239  1.0000
  C   C316      1.0  0.30593  0.71441  0.15149  1.0000
  H   H553      1.0  0.23281  0.74659  0.08655  1.0000
  H   H554      1.0  0.22641  0.67660  0.26774  1.0000
  C   C317      1.0  0.43307  0.77662  0.14508  1.0000
  H   H555      1.0  0.20925  0.76020  0.16129  1.0000
  H   H556      1.0  0.28896  0.74508  0.20938  1.0000
  H   H557      1.0  0.31566  0.70414  0.33935  1.0000
  H   H558      1.0  0.46450  0.76246  0.11659  1.0000
  H   H559      1.0  0.28729  0.68258  0.16675  1.0000
  H   H560      1.0  0.26860  0.70831  0.15858  1.0000
  H   H561      1.0  0.43576  0.78896  0.20068  1.0000
  H   H562      1.0  0.30565  0.73394  0.15681  1.0000
  C   C318      1.0  0.37425  0.73460  0.19101  1.0000
  C   C319      1.0  0.29346  0.67488  0.32586  1.0000
  C   C320      1.0  0.30079  0.98370  0.01452  1.0000
  H   H563      1.0  0.23335  0.71042  0.22395  1.0000
  H   H564      1.0  0.28610  0.73876  0.27728  1.0000
  C   C321      1.0  0.35390  0.70265  0.46306  1.0000
  H   H565      1.0  0.36164  0.76603  0.16112  1.0000
  H   H566      1.0  0.30446  0.69161  0.10265  1.0000
  C   C322      1.0  0.16423  0.76683  0.00526  1.0000
  Fe  Fe39      1.0  0.13119  0.67497  0.06811  1.0000
  H   H567      1.0  0.31858  0.71972  0.09541  1.0000
  N   N18       1.0  0.30795  0.70157  0.45447  1.0000
  C   C323      1.0  0.30698  0.72633  0.43711  1.0000
  C   C324      1.0  0.33219  0.68972  0.44753  1.0000
  C   C325      1.0  0.30237  0.70186  0.49552  1.0000
  C   C326      1.0  0.13086  0.76950  0.09792  1.0000
  H   H568      1.0  0.17539  0.70662  0.23325  1.0000
  C   C327      1.0  0.28190  0.73911  0.43512  1.0000
  H   H569      1.0  0.36960  0.91120  0.08742  1.0000
  C   C328      1.0  0.37732  0.68940  0.45310  1.0000
  H   H570      1.0  0.27138  0.69424  0.44040  1.0000
  C   C329      1.0  0.21318  0.74643  0.13974  1.0000
  C   C330      1.0  0.28348  0.76613  0.42868  1.0000
  C   C331      1.0  0.19012  0.80126  0.00920  1.0000
  H   H571      1.0  0.31372  0.72535  0.40820  1.0000
  H   H572      1.0  0.31918  0.73844  0.45134  1.0000
  H   H573      1.0  0.15439  0.73043  0.24585  1.0000
  N   N19       1.0  0.19044  0.73537  0.12725  1.0000
  H   H574      1.0  0.41174  0.83150  0.12505  1.0000
  H   H575      1.0  0.37976  0.68919  0.42261  1.0000
  H   H576      1.0  0.45780  0.71957  0.49625  1.0000
  C   C332      1.0  0.01159  0.68137  0.02399  1.0000
  H   H577      1.0  0.13967  0.73669  0.12682  1.0000
  H   H578      1.0  0.48676  0.77515  0.45128  1.0000
  H   H579      1.0  0.27163  0.73181  0.41160  1.0000
  H   H580      1.0  0.27169  0.73623  0.46088  1.0000
  H   H581      1.0  0.38318  0.85309  0.08207  1.0000
  H   H582      1.0  0.42896  0.75834  0.15481  1.0000
  C   C333      1.0  0.28974  0.68702  0.43454  1.0000
  H   H583      1.0  0.18258  0.73221  0.00541  1.0000
  H   H584      1.0  0.20715  0.67628  0.22767  1.0000
  H   H585      1.0  0.34689  0.91980  0.05371  1.0000
  Fe  Fe40      1.0  0.27341  0.88549  0.00992  1.0000
  H   H586      1.0  0.23947  0.68924  0.18733  1.0000
  C   C334      1.0  0.14764  0.74757  0.10468  1.0000
  S   S79       1.0  0.23981  0.79627  0.01565  1.0000
  H   H587      1.0  0.26531  0.77454  0.42539  1.0000
  H   H588      1.0  0.29227  0.77456  0.45272  1.0000
  H   H589      1.0  0.29380  0.76977  0.40321  1.0000
  C   C335      1.0  0.16138  0.71949  0.22238  1.0000
  H   H590      1.0  0.30690  0.70636  0.26230  1.0000
  H   H591      1.0  0.32060  0.71721  0.22221  1.0000
  H   H592      1.0  0.35973  0.83441  0.09733  1.0000
  C   C336      1.0  0.40188  0.83434  0.27655  1.0000
  H   H593      1.0  0.19204  0.82049  0.01007  1.0000
  H   H594      1.0  0.37505  0.78139  0.21880  1.0000
  C   C337      1.0  0.40761  0.81355  0.25021  1.0000
  H   H595      1.0  0.38511  0.82128  0.07313  1.0000
  H   H596      1.0  0.39062  0.75463  0.14804  1.0000
  C   C338      1.0  0.25988  0.76589  0.26129  1.0000
  C   C339      1.0  0.39719  0.81904  0.21090  1.0000
  H   H597      1.0  0.39107  0.72612  0.20226  1.0000
  N   N20       1.0  0.39990  0.79909  0.18286  1.0000
  H   H598      1.0  0.44898  0.75350  0.43024  1.0000
  H   H599      1.0  0.40599  0.83541  0.20106  1.0000
  H   H600      1.0  0.36137  0.73732  0.21394  1.0000
  C   C340      1.0  0.31509  0.68504  0.33557  1.0000
  C   C341      1.0  0.30648  0.98067  0.11040  1.0000
  H   H601      1.0  0.25653  0.77095  0.29058  1.0000
  H   H602      1.0  0.45049  0.73754  0.38717  1.0000
  H   H603      1.0  0.25936  0.73690  0.20193  1.0000
  C   C342      1.0  0.30367  0.71102  0.10961  1.0000
  C   C343      1.0  0.21728  0.68305  0.06649  1.0000
  C   C344      1.0  0.17307  0.75529  0.11485  1.0000
  H   H604      1.0  0.21967  0.93411  0.11611  1.0000
  C   C345      1.0  0.38581  0.80692  0.14868  1.0000
  C   C346      1.0  0.48572  0.78268  0.30859  1.0000
  Fe  Fe41      1.0  0.12388  0.71721  0.01312  1.0000
  H   H605      1.0  0.34511  0.89205  0.08001  1.0000
  H   H606      1.0  0.25979  0.77865  0.10231  1.0000
  C   C347      1.0  0.39238  0.83108  0.13054  1.0000
  S   S80       1.0  0.15831  0.66520  0.11440  1.0000
  H   H607      1.0  0.27761  0.68636  0.32235  1.0000
  C   C348      1.0  0.22996  0.92623  0.09266  1.0000
  C   C349      1.0  0.35024  0.91106  0.08117  1.0000
  C   C350      1.0  0.27675  0.91110  0.22729  1.0000
  H   H608      1.0  0.26962  0.95338  0.08875  1.0000
  H   H609      1.0  0.22249  0.69429  0.04253  1.0000
  S   S81       1.0  0.31207  0.87635  0.02163  1.0000
  H   H610      1.0  0.26471  0.91088  0.08106  1.0000
  H   H611      1.0  0.35459  0.72104  0.45142  1.0000
  H   H612      1.0  0.22129  0.90973  0.08343  1.0000
  C   C351      1.0  0.17147  0.73592  0.19274  1.0000
  H   H613      1.0  0.48274  0.80191  0.31113  1.0000
  C   C352      1.0  0.21422  0.69832  0.10130  1.0000
  H   H614      1.0  0.20927  0.68615  0.12422  1.0000
  H   H615      1.0  0.31988  0.95982  0.15808  1.0000
  H   H616      1.0  0.31864  0.97318  0.08895  1.0000
  C   C353      1.0  0.19477  0.71859  0.09518  1.0000
  H   H617      1.0  0.19932  0.72879  0.06990  1.0000
  H   H618      1.0  0.23174  0.70572  0.10787  1.0000
  H   H619      1.0  0.11327  0.76355  0.08821  1.0000
  H   H620      1.0  0.22524  0.73274  0.15359  1.0000
  H   H621      1.0  0.20042  0.67427  0.05967  1.0000
  H   H622      1.0  0.46513  0.79404  0.12686  1.0000
  H   H623      1.0  0.24608  0.78247  0.14697  1.0000
  H   H624      1.0  0.33347  0.67137  0.45990  1.0000
  C   C354      1.0  0.33590  0.67051  0.33925  1.0000
  H   H625      1.0  0.13806  0.78142  0.07624  1.0000
  S   S82       1.0  0.15149  0.68753  0.01849  1.0000
  C   C355      1.0  0.45984  0.77631  0.13763  1.0000
  H   H626      1.0  0.37777  0.67064  0.46381  1.0000
  C   C356      1.0  0.26931  0.95492  0.00756  1.0000
  H   H627      1.0  0.47714  0.77123  0.38652  1.0000
  C   C357      1.0  0.00390  0.70132  0.00242  1.0000
  Fe  Fe42      1.0  0.25980  0.83162  0.01779  1.0000
  H   H628      1.0  0.31161  0.66497  0.24602  1.0000
  H   H629      1.0  0.31958  0.98705  0.01644  1.0000
  C   C358      1.0  0.16722  0.79180  0.00616  1.0000
  C   C359      1.0  0.99404  0.66629  0.03777  1.0000
  H   H630      1.0  0.27347  0.67059  0.22414  1.0000
  H   H631      1.0  0.30673  0.94515  0.00844  1.0000
  C   C360      1.0  0.20738  0.76084  0.00984  1.0000
  C   C361      1.0  0.18452  0.75142  0.00673  1.0000
  C   C362      1.0  0.29353  0.95979  0.01021  1.0000
  H   H632      1.0  0.28904  0.76843  0.00793  1.0000
  H   H633      1.0  0.22289  0.74869  0.01111  1.0000
  C   C363      1.0  0.25262  0.97457  0.00877  1.0000
  H   H634      1.0  0.23383  0.97126  0.00649  1.0000
  C   C364      1.0  0.29006  0.65979  0.44395  1.0000
  H   H635      1.0  0.35429  0.65941  0.24161  1.0000
  H   H636      1.0  0.15169  0.80394  0.00474  1.0000
  H   H637      1.0  0.28292  0.70018  0.50017  1.0000
  Fe  Fe43      1.0  0.30771  0.84448  0.98399  1.0000
  S   S83       1.0  0.26977  0.85475  0.96887  1.0000
  S   S84       1.0  0.33607  0.82669  0.94663  1.0000
  C   C365      1.0  0.27694  0.96454  0.90225  1.0000
  H   H638      1.0  0.39628  0.80553  0.62607  1.0000
  C   C366      1.0  0.05469  0.68783  0.90097  1.0000
  H   H639      1.0  0.36124  0.79160  0.90203  1.0000
  H   H640      1.0  0.30597  0.74329  0.98820  1.0000
  H   H641      1.0  0.42000  0.76830  0.62934  1.0000
  S   S85       1.0  0.10039  0.69648  0.97446  1.0000
  Fe  Fe44      1.0  0.35480  0.77521  0.74160  1.0000
  S   S86       1.0  0.36892  0.74287  0.77346  1.0000
  S   S87       1.0  0.33663  0.80715  0.77159  1.0000
  Fe  Fe45      1.0  0.36651  0.75258  0.66510  1.0000
  S   S88       1.0  0.38022  0.71862  0.69350  1.0000
  S   S89       1.0  0.37539  0.74844  0.60314  1.0000
  Fe  Fe46      1.0  0.34892  0.72208  0.73115  1.0000
  S   S90       1.0  0.33087  0.68855  0.75036  1.0000
  Fe  Fe47      1.0  0.39919  0.74229  0.73278  1.0000
  S   S91       1.0  0.43730  0.72922  0.74585  1.0000
  S   S92       1.0  0.33322  0.75426  0.70037  1.0000
  S   S93       1.0  0.38685  0.77634  0.70356  1.0000
  C   C367      1.0  0.36637  0.75891  0.55821  1.0000
  H   H642      1.0  0.41403  0.81553  0.66474  1.0000
  C   C368      1.0  0.34707  0.77521  0.55220  1.0000
  H   H643      1.0  0.30857  0.66207  0.57702  1.0000
  H   H644      1.0  0.33700  0.78206  0.57558  1.0000
  C   C369      1.0  0.30233  0.68176  0.73428  1.0000
  C   C370      1.0  0.29912  0.77344  0.95008  1.0000
  C   C371      1.0  0.30386  0.76319  0.98901  1.0000
  H   H645      1.0  0.28669  0.79221  0.82337  1.0000
  H   H646      1.0  0.19599  0.77541  0.87556  1.0000
  C   C372      1.0  0.28871  0.69811  0.71256  1.0000
  H   H647      1.0  0.31471  0.76789  0.93303  1.0000
  N   N21       1.0  0.45629  0.76039  0.61176  1.0000
  H   H648      1.0  0.29559  0.71542  0.70571  1.0000
  H   H649      1.0  0.22511  0.68867  0.56587  1.0000
  H   H650      1.0  0.26176  0.76920  0.95481  1.0000
  C   C373      1.0  0.46247  0.74578  0.73507  1.0000
  C   C374      1.0  0.46102  0.77081  0.73176  1.0000
  C   C375      1.0  0.26522  0.80107  0.89786  1.0000
  C   C376      1.0  0.28768  0.98831  0.91279  1.0000
  H   H651      1.0  0.44411  0.78044  0.73578  1.0000
  H   H652      1.0  0.29814  0.79330  0.95207  1.0000
  C   C377      1.0  0.22483  0.76509  0.91392  1.0000
  H   H653      1.0  0.25571  0.70473  0.68273  1.0000
  H   H654      1.0  0.48048  0.80290  0.72289  1.0000
  H   H655      1.0  0.28486  0.95755  0.87611  1.0000
  H   H656      1.0  0.34209  0.68150  0.61529  1.0000
  H   H657      1.0  0.27696  0.74429  0.93357  1.0000
  H   H658      1.0  0.42357  0.72431  0.61360  1.0000
  H   H659      1.0  0.45412  0.77352  0.55521  1.0000
  H   H660      1.0  0.22766  0.75153  0.93647  1.0000
  H   H661      1.0  0.43295  0.74037  0.50413  1.0000
  H   H662      1.0  0.31186  0.73696  0.57432  1.0000
  H   H663      1.0  0.26783  0.84615  0.86321  1.0000
  H   H664      1.0  0.22028  0.66221  0.86347  1.0000
  C   C378      1.0  0.33507  0.82095  0.89807  1.0000
  C   C379      1.0  0.32072  0.83489  0.87362  1.0000
  C   C380      1.0  0.32133  0.83037  0.83512  1.0000
  C   C381      1.0  0.33620  0.81181  0.82051  1.0000
  C   C382      1.0  0.35033  0.79770  0.84506  1.0000
  C   C383      1.0  0.34987  0.80236  0.88350  1.0000
  H   H665      1.0  0.30962  0.84955  0.88429  1.0000
  H   H666      1.0  0.31043  0.84150  0.81644  1.0000
  H   H667      1.0  0.36197  0.78346  0.83435  1.0000
  H   H668      1.0  0.32016  0.76177  0.81246  1.0000
  S   S94       1.0  0.13496  0.75577  0.00201  1.0000
  H   H669      1.0  0.07358  0.68268  0.90674  1.0000
  C   C384      1.0  0.24534  0.76231  0.88532  1.0000
  C   C385      1.0  0.33626  0.67142  0.64005  1.0000
  C   C386      1.0  0.37924  0.75026  0.52738  1.0000
  H   H670      1.0  0.99160  0.66247  0.94785  1.0000
  H   H671      1.0  0.28956  0.71505  0.56740  1.0000
  H   H672      1.0  0.39401  0.73747  0.53168  1.0000
  H   H673      1.0  0.20045  0.74332  0.88274  1.0000
  H   H674      1.0  0.22416  0.78315  0.92676  1.0000
  H   H675      1.0  0.05081  0.68516  0.87111  1.0000
  H   H676      1.0  0.46680  0.73919  0.65987  1.0000
  H   H677      1.0  0.32098  0.70597  0.56834  1.0000
  H   H678      1.0  0.26757  0.67457  0.57743  1.0000
  H   H679      1.0  0.32576  0.79519  0.51139  1.0000
  H   H680      1.0  0.16587  0.67122  0.84734  1.0000
  C   C387      1.0  0.43473  0.80246  0.61754  1.0000
  H   H681      1.0  0.31092  0.68576  0.50944  1.0000
  H   H682      1.0  0.06378  0.72487  0.89123  1.0000
  H   H683      1.0  0.03274  0.72115  0.90132  1.0000
  C   C388      1.0  0.22029  0.67716  0.58972  1.0000
  C   C389      1.0  0.34077  0.78264  0.51573  1.0000
  C   C390      1.0  0.26290  0.66090  0.59861  1.0000
  C   C391      1.0  0.28376  0.77281  0.82776  1.0000
  H   H684      1.0  0.41072  0.83375  0.62339  1.0000
  C   C392      1.0  0.26617  0.69200  0.69957  1.0000
  N   N22       1.0  0.26814  0.77400  0.89599  1.0000
  H   H685      1.0  0.22150  0.68757  0.61578  1.0000
  H   H686      1.0  0.30461  0.77462  0.87658  1.0000
  C   C393      1.0  0.24788  0.81359  0.86930  1.0000
  H   H687      1.0  0.29959  0.76490  0.77414  1.0000
  C   C394      1.0  0.27553  0.76432  0.93386  1.0000
  H   H688      1.0  0.42862  0.75850  0.56961  1.0000
  C   C395      1.0  0.25718  0.66950  0.70804  1.0000
  H   H689      1.0  0.29695  0.73999  0.51061  1.0000
  H   H690      1.0  0.22920  0.80954  0.87584  1.0000
  H   H691      1.0  0.20096  0.67082  0.76240  1.0000
  C   C396      1.0  0.43491  0.72398  0.63888  1.0000
  H   H692      1.0  0.45022  0.81292  0.62607  1.0000
  C   C397      1.0  0.28760  0.76630  0.86926  1.0000
  C   C398      1.0  0.20052  0.76109  0.89634  1.0000
  H   H693      1.0  0.26581  0.76886  0.81750  1.0000
  C   C399      1.0  0.47976  0.77257  0.61447  1.0000
  H   H694      1.0  0.44889  0.68743  0.62923  1.0000
  C   C400      1.0  0.48459  0.73350  0.73012  1.0000
  C   C401      1.0  0.45854  0.73666  0.63221  1.0000
  H   H695      1.0  0.24449  0.84795  0.89769  1.0000
  H   H696      1.0  0.48580  0.71411  0.73245  1.0000
  H   H697      1.0  0.29948  0.68258  0.63563  1.0000
  H   H698      1.0  0.23707  0.84921  0.84910  1.0000
  H   H699      1.0  0.29863  0.73919  0.80464  1.0000
  H   H700      1.0  0.28287  0.80919  0.89520  1.0000
  H   H701      1.0  0.44192  0.77662  0.66182  1.0000
  H   H702      1.0  0.24881  0.74268  0.88101  1.0000
  N   N23       1.0  0.19870  0.68044  0.82075  1.0000
  C   C402      1.0  0.18739  0.67398  0.78423  1.0000
  H   H703      1.0  0.14902  0.70173  0.71817  1.0000
  C   C403      1.0  0.17878  0.68578  0.84790  1.0000
  C   C404      1.0  0.21377  0.70224  0.81793  1.0000
  C   C405      1.0  0.22687  0.70626  0.78070  1.0000
  C   C406      1.0  0.16824  0.69249  0.76902  1.0000
  C   C407      1.0  0.18625  0.68905  0.88905  1.0000
  C   C408      1.0  0.30772  0.72021  0.55946  1.0000
  H   H704      1.0  0.28063  0.95104  0.92464  1.0000
  C   C409      1.0  0.24421  0.72653  0.78393  1.0000
  C   C410      1.0  0.16231  0.68788  0.72840  1.0000
  C   C411      1.0  0.16643  0.70177  0.91133  1.0000
  H   H705      1.0  0.23844  0.76919  0.85826  1.0000
  S   S95       1.0  0.22909  0.66264  0.69027  1.0000
  H   H706      1.0  0.45027  0.69701  0.67715  1.0000
  C   C412      1.0  0.24952  0.84088  0.87001  1.0000
  H   H707      1.0  0.43292  0.80329  0.58690  1.0000
  H   H708      1.0  0.16839  0.70240  0.83944  1.0000
  H   H709      1.0  0.20275  0.71905  0.82247  1.0000
  H   H710      1.0  0.22735  0.70178  0.84060  1.0000
  H   H711      1.0  0.21402  0.71127  0.75818  1.0000
  H   H712      1.0  0.23709  0.69005  0.77164  1.0000
  H   H713      1.0  0.15146  0.69102  0.78489  1.0000
  H   H714      1.0  0.17414  0.71115  0.77156  1.0000
  H   H715      1.0  0.20244  0.69964  0.89145  1.0000
  H   H716      1.0  0.18998  0.67117  0.90225  1.0000
  H   H717      1.0  0.42483  0.73330  0.66131  1.0000
  H   H718      1.0  0.47738  0.80277  0.80651  1.0000
  C   C413      1.0  0.43947  0.69788  0.65119  1.0000
  C   C414      1.0  0.45692  0.73456  0.55154  1.0000
  H   H719      1.0  0.29117  0.74648  0.87148  1.0000
  H   H720      1.0  0.25305  0.72929  0.75685  1.0000
  H   H721      1.0  0.23458  0.74356  0.79165  1.0000
  H   H722      1.0  0.25821  0.72186  0.80495  1.0000
  H   H723      1.0  0.25868  0.80676  0.92573  1.0000
  H   H724      1.0  0.03918  0.67944  0.95409  1.0000
  C   C415      1.0  0.43787  0.77608  0.63159  1.0000
  H   H725      1.0  0.16255  0.72025  0.90052  1.0000
  H   H726      1.0  0.14989  0.69157  0.91013  1.0000
  H   H727      1.0  0.17202  0.70303  0.94082  1.0000
  C   C416      1.0  0.44847  0.75785  0.57184  1.0000
  C   C417      1.0  0.30161  0.75876  0.80342  1.0000
  H   H728      1.0  0.01689  0.71328  0.99162  1.0000
  H   H729      1.0  0.01950  0.67932  0.91536  1.0000
  H   H730      1.0  0.25143  0.80768  0.84063  1.0000
  C   C418      1.0  0.41256  0.81500  0.63402  1.0000
  C   C419      1.0  0.05122  0.71475  0.90842  1.0000
  H   H731      1.0  0.17850  0.68860  0.71095  1.0000
  H   H732      1.0  0.18664  0.76174  0.91820  1.0000
  H   H733      1.0  0.15449  0.67002  0.72555  1.0000
  H   H734      1.0  0.05478  0.71868  0.93807  1.0000
  H   H735      1.0  0.44713  0.71901  0.56199  1.0000
  C   C420      1.0  0.03761  0.67327  0.92493  1.0000
  H   H736      1.0  0.42223  0.68955  0.65673  1.0000
  C   C421      1.0  0.48163  0.78347  0.72437  1.0000
  H   H737      1.0  0.20153  0.67204  0.58604  1.0000
  H   H738      1.0  0.25732  0.96689  0.89887  1.0000
  H   H739      1.0  0.11268  0.66184  0.88778  1.0000
  H   H740      1.0  0.47865  0.79040  0.60041  1.0000
  H   H741      1.0  0.30701  0.98470  0.91818  1.0000
  H   H742      1.0  0.26303  0.67023  0.62576  1.0000
  C   C422      1.0  0.31006  0.66531  0.63668  1.0000
  H   H743      1.0  0.32744  0.73006  0.51163  1.0000
  C   C423      1.0  0.45220  0.73668  0.50989  1.0000
  H   H744      1.0  0.47614  0.73027  0.55558  1.0000
  H   H745      1.0  0.47088  0.72375  0.61812  1.0000
  H   H746      1.0  0.33872  0.68283  0.66482  1.0000
  H   H747      1.0  0.48395  0.77618  0.64416  1.0000
  Fe  Fe48      1.0  0.12732  0.66591  0.98350  1.0000
  C   C424      1.0  0.30923  0.72448  0.51765  1.0000
  H   H748      1.0  0.24917  0.66388  0.81481  1.0000
  S   S96       1.0  0.25885  0.92498  0.00207  1.0000
  H   H749      1.0  0.32055  0.77044  0.00020  1.0000
  C   C425      1.0  0.29319  0.65936  0.74317  1.0000
  Fe  Fe49      1.0  0.66926  0.12802  0.02716  1.0000
  S   S97       1.0  0.64601  0.14679  0.07163  1.0000
  S   S98       1.0  0.70424  0.10589  0.02456  1.0000
  Fe  Fe50      1.0  0.84536  0.30475  0.02419  1.0000
  C   C426      1.0  0.70457  0.29308  0.19452  1.0000
  S   S99       1.0  0.86855  0.27113  0.03010  1.0000
  Fe  Fe51      1.0  0.59747  0.20451  0.35615  1.0000
  S   S100      1.0  0.57747  0.23857  0.33929  1.0000
  S   S101      1.0  0.59451  0.18870  0.41423  1.0000
  Fe  Fe52      1.0  0.61594  0.19526  0.27708  1.0000
  S   S102      1.0  0.59715  0.22862  0.25474  1.0000
  S   S103      1.0  0.64157  0.17044  0.24461  1.0000
  Fe  Fe53      1.0  0.61000  0.24634  0.30633  1.0000
  S   S104      1.0  0.62146  0.28462  0.30137  1.0000
  Fe  Fe54      1.0  0.56590  0.21820  0.28933  1.0000
  S   S105      1.0  0.52878  0.22640  0.26580  1.0000
  S   S106      1.0  0.63113  0.21373  0.32696  1.0000
  S   S107      1.0  0.58363  0.18321  0.30798  1.0000
  C   C427      1.0  0.50287  0.19014  0.29644  1.0000
  H   H750      1.0  0.80481  0.28868  0.16406  1.0000
  H   H751      1.0  0.75818  0.29170  0.16921  1.0000
  C   C428      1.0  0.68712  0.30661  0.41816  1.0000
  C   C429      1.0  0.65202  0.28951  0.30490  1.0000
  C   C430      1.0  0.66784  0.27166  0.31894  1.0000
  C   C431      1.0  0.69228  0.27566  0.32063  1.0000
  C   C432      1.0  0.96744  0.31742  0.06256  1.0000
  H   H752      1.0  0.83985  0.26587  0.14616  1.0000
  H   H753      1.0  0.77334  0.31135  0.12131  1.0000
  H   H754      1.0  0.66132  0.25473  0.32838  1.0000
  C   C433      1.0  0.53204  0.07931  0.20961  1.0000
  H   H755      1.0  0.54049  0.27838  0.35742  1.0000
  H   H756      1.0  0.51102  0.27435  0.40735  1.0000
  C   C434      1.0  0.85624  0.23421  0.12159  1.0000
  C   C435      1.0  0.50251  0.21336  0.28147  1.0000
  C   C436      1.0  0.53514  0.22920  0.45644  1.0000
  H   H757      1.0  0.66971  0.29798  0.21904  1.0000
  H   H758      1.0  0.74392  0.32300  0.48269  1.0000
  C   C437      1.0  0.61268  0.29070  0.40973  1.0000
  H   H759      1.0  0.76081  0.26504  0.19716  1.0000
  H   H760      1.0  0.85581  0.22309  0.14726  1.0000
  C   C438      1.0  0.61344  0.22513  0.45608  1.0000
  C   C439      1.0  0.60158  0.20355  0.45598  1.0000
  C   C440      1.0  0.74864  0.03171  0.01940  1.0000
  H   H761      1.0  0.61825  0.23333  0.43005  1.0000
  C   C441      1.0  0.81179  0.24325  0.12410  1.0000
  C   C442      1.0  0.63536  0.29969  0.42756  1.0000
  H   H762      1.0  0.54654  0.19953  0.40025  1.0000
  C   C443      1.0  0.66064  0.31164  0.29347  1.0000
  H   H763      1.0  0.51949  0.17968  0.29831  1.0000
  C   C444      1.0  0.64654  0.15453  0.11941  1.0000
  C   C445      1.0  0.66308  0.14412  0.14453  1.0000
  C   C446      1.0  0.66163  0.14968  0.18260  1.0000
  C   C447      1.0  0.64381  0.16583  0.19600  1.0000
  C   C448      1.0  0.62768  0.17677  0.17077  1.0000
  C   C449      1.0  0.62896  0.17100  0.13278  1.0000
  H   H764      1.0  0.67665  0.13139  0.13474  1.0000
  H   H765      1.0  0.67420  0.14111  0.20189  1.0000
  H   H766      1.0  0.61393  0.18929  0.18060  1.0000
  H   H767      1.0  0.61609  0.17917  0.11357  1.0000
  H   H768      1.0  0.53464  0.25910  0.49531  1.0000
  H   H769      1.0  0.70452  0.26169  0.33121  1.0000
  H   H770      1.0  0.87389  0.24221  0.11993  1.0000
  C   C450      1.0  0.92755  0.30197  0.06460  1.0000
  H   H771      1.0  0.74317  0.19776  0.17137  1.0000
  C   C451      1.0  0.98612  0.25826  0.00787  1.0000
  C   C452      1.0  0.75771  0.05670  0.00811  1.0000
  H   H772      1.0  0.67049  0.22577  0.48660  1.0000
  H   H773      1.0  0.66982  0.29856  0.16968  1.0000
  H   H774      1.0  0.81300  0.22984  0.14714  1.0000
  C   C453      1.0  0.50730  0.19775  0.40121  1.0000
  H   H775      1.0  0.95209  0.27370  0.08694  1.0000
  H   H776      1.0  0.76611  0.24051  0.09749  1.0000
  H   H777      1.0  0.62919  0.25220  0.48985  1.0000
  H   H778      1.0  0.75274  0.29093  0.10119  1.0000
  H   H779      1.0  0.51566  0.29948  0.35069  1.0000
  H   H780      1.0  0.78727  0.32171  0.05799  1.0000
  H   H781      1.0  0.75238  0.25796  0.13251  1.0000
  C   C454      1.0  0.72942  0.28836  0.42011  1.0000
  H   H782      1.0  0.71337  0.28567  0.22004  1.0000
  H   H783      1.0  0.59773  0.28030  0.21289  1.0000
  C   C455      1.0  0.53999  0.23968  0.49468  1.0000
  H   H784      1.0  0.71349  0.28481  0.17018  1.0000
  H   H785      1.0  0.74827  0.29183  0.41350  1.0000
  H   H786      1.0  0.61691  0.28154  0.38317  1.0000
  C   C456      1.0  0.53721  0.16393  0.38523  1.0000
  H   H787      1.0  0.94845  0.25134  0.01171  1.0000
  H   H788      1.0  0.53248  0.23714  0.38005  1.0000
  C   C457      1.0  0.70099  0.29750  0.30832  1.0000
  H   H789      1.0  0.92931  0.29242  0.03778  1.0000
  H   H790      1.0  0.77930  0.20909  0.13940  1.0000
  N   N24       1.0  0.67037  0.26275  0.19397  1.0000
  C   C458      1.0  0.64396  0.26255  0.20156  1.0000
  C   C459      1.0  0.68420  0.24939  0.22443  1.0000
  C   C460      1.0  0.67739  0.28869  0.19429  1.0000
  C   C461      1.0  0.67644  0.25252  0.15640  1.0000
  C   C462      1.0  0.67014  0.22612  0.14963  1.0000
  C   C463      1.0  0.62747  0.27724  0.17429  1.0000
  C   C464      1.0  0.67256  0.22740  0.24245  1.0000
  C   C465      1.0  0.69028  0.21319  0.26734  1.0000
  C   C466      1.0  0.67414  0.21917  0.10913  1.0000
  C   C467      1.0  0.60126  0.27456  0.18389  1.0000
  H   H791      1.0  0.64038  0.26963  0.22989  1.0000
  H   H792      1.0  0.63754  0.24401  0.20204  1.0000
  H   H793      1.0  0.70226  0.24363  0.21455  1.0000
  H   H794      1.0  0.68729  0.26157  0.24811  1.0000
  H   H795      1.0  0.66812  0.26390  0.13398  1.0000
  H   H796      1.0  0.69586  0.25315  0.15136  1.0000
  H   H797      1.0  0.65127  0.22296  0.15603  1.0000
  H   H798      1.0  0.68188  0.21384  0.16670  1.0000
  H   H799      1.0  0.63088  0.29669  0.17575  1.0000
  H   H800      1.0  0.62998  0.27107  0.14536  1.0000
  H   H801      1.0  0.65737  0.23362  0.26001  1.0000
  H   H802      1.0  0.66562  0.21494  0.22173  1.0000
  H   H803      1.0  0.69742  0.22488  0.28922  1.0000
  H   H804      1.0  0.68120  0.19821  0.28106  1.0000
  H   H805      1.0  0.70523  0.20542  0.25069  1.0000
  H   H806      1.0  0.66193  0.22999  0.09057  1.0000
  H   H807      1.0  0.69286  0.22185  0.10091  1.0000
  H   H808      1.0  0.67043  0.19990  0.10535  1.0000
  H   H809      1.0  0.69638  0.22388  0.45753  1.0000
  H   H810      1.0  0.58986  0.28600  0.16500  1.0000
  C   C468      1.0  0.84408  0.32104  0.17670  1.0000
  N   N25       1.0  0.58913  0.11725  0.21193  1.0000
  C   C469      1.0  0.59609  0.11569  0.17158  1.0000
  C   C470      1.0  0.58007  0.14252  0.22101  1.0000
  C   C471      1.0  0.61137  0.11164  0.23482  1.0000
  C   C472      1.0  0.57104  0.09913  0.22222  1.0000
  H   H811      1.0  0.54128  0.06226  0.20089  1.0000
  C   C473      1.0  0.60624  0.09093  0.15822  1.0000
  C   C474      1.0  0.60947  0.11625  0.27720  1.0000
  C   C475      1.0  0.56575  0.15681  0.19044  1.0000
  C   C476      1.0  0.55384  0.17970  0.20607  1.0000
  H   H812      1.0  0.53323  0.19741  0.35570  1.0000
  C   C477      1.0  0.61226  0.09177  0.11695  1.0000
  C   C478      1.0  0.63326  0.11036  0.29674  1.0000
  H   H813      1.0  0.60969  0.12913  0.16549  1.0000
  H   H814      1.0  0.58090  0.12064  0.15291  1.0000
  H   H815      1.0  0.56915  0.14242  0.24671  1.0000
  H   H816      1.0  0.59525  0.15404  0.22745  1.0000
  H   H817      1.0  0.62636  0.12220  0.22435  1.0000
  H   H818      1.0  0.61730  0.09245  0.23199  1.0000
  H   H819      1.0  0.57889  0.08053  0.21980  1.0000
  H   H820      1.0  0.56618  0.10092  0.25193  1.0000
  H   H821      1.0  0.52343  0.15476  0.36902  1.0000
  H   H822      1.0  0.75164  0.16967  0.03209  1.0000
  H   H823      1.0  0.62294  0.08553  0.17317  1.0000
  H   H824      1.0  0.59309  0.07685  0.16220  1.0000
  H   H825      1.0  0.59600  0.10493  0.29012  1.0000
  H   H826      1.0  0.60465  0.13533  0.28304  1.0000
  H   H827      1.0  0.57797  0.16224  0.16805  1.0000
  H   H828      1.0  0.55174  0.14631  0.17748  1.0000
  H   H829      1.0  0.54070  0.17530  0.22772  1.0000
  H   H830      1.0  0.56736  0.19132  0.21828  1.0000
  H   H831      1.0  0.54434  0.18999  0.18357  1.0000
  C   C479      1.0  0.84641  0.31898  0.13790  1.0000
  H   H832      1.0  0.80925  0.23273  0.09836  1.0000
  H   H833      1.0  0.73550  0.21072  0.12670  1.0000
  H   H834      1.0  0.62623  0.10489  0.11173  1.0000
  H   H835      1.0  0.61918  0.07382  0.10782  1.0000
  H   H836      1.0  0.59623  0.09694  0.10005  1.0000
  H   H837      1.0  0.63152  0.11404  0.32686  1.0000
  H   H838      1.0  0.63872  0.09112  0.29319  1.0000
  H   H839      1.0  0.64736  0.12173  0.28551  1.0000
  H   H840      1.0  0.53668  0.11711  0.20900  1.0000
  H   H841      1.0  0.71661  0.31536  0.38152  1.0000
  C   C480      1.0  0.79087  0.27894  0.09851  1.0000
  N   N26       1.0  0.79084  0.26071  0.12976  1.0000
  C   C481      1.0  0.79361  0.27272  0.16697  1.0000
  C   C482      1.0  0.77042  0.28085  0.18735  1.0000
  H   H842      1.0  0.90812  0.30585  0.06705  1.0000
  C   C483      1.0  0.71384  0.31081  0.41112  1.0000
  C   C484      1.0  0.77049  0.29856  0.09837  1.0000
  C   C485      1.0  0.78105  0.19355  0.02803  1.0000
  C   C486      1.0  0.77583  0.29590  0.22135  1.0000
  H   H843      1.0  0.72388  0.27297  0.40313  1.0000
  H   H844      1.0  0.67897  0.25174  0.45998  1.0000
  C   C487      1.0  0.76853  0.24659  0.12666  1.0000
  H   H845      1.0  0.92285  0.25212  0.12358  1.0000
  H   H846      1.0  0.80745  0.28911  0.09898  1.0000
  H   H847      1.0  0.79080  0.26955  0.07125  1.0000
  H   H848      1.0  0.54989  0.10101  0.17021  1.0000
  H   H849      1.0  0.78009  0.19879  0.05681  1.0000
  C   C488      1.0  0.59559  0.19300  0.49002  1.0000
  C   C489      1.0  0.61970  0.23572  0.48999  1.0000
  H   H850      1.0  0.83844  0.26476  0.09618  1.0000
  H   H851      1.0  0.63051  0.30647  0.45549  1.0000
  C   C490      1.0  0.91660  0.26513  0.10177  1.0000
  H   H852      1.0  0.80365  0.26062  0.18688  1.0000
  S   S108      1.0  0.82015  0.22188  0.02503  1.0000
  C   C491      1.0  0.73288  0.03353  0.05373  1.0000
  H   H853      1.0  0.68568  0.29742  0.44554  1.0000
  C   C492      1.0  0.52115  0.28009  0.35086  1.0000
  H   H854      1.0  0.49122  0.13543  0.20151  1.0000
  H   H855      1.0  0.59954  0.30581  0.40437  1.0000
  H   H856      1.0  0.81186  0.12582  0.01282  1.0000
  H   H857      1.0  0.64793  0.28394  0.43099  1.0000
  C   C493      1.0  0.83667  0.25413  0.12205  1.0000
  H   H858      1.0  0.71679  0.04529  0.04789  1.0000
  H   H859      1.0  0.73091  0.22809  0.16861  1.0000
  C   C494      1.0  0.74277  0.21461  0.15465  1.0000
  H   H860      1.0  0.77474  0.22725  0.17995  1.0000
  H   H861      1.0  0.72846  0.32281  0.19404  1.0000
  C   C495      1.0  0.76793  0.22378  0.15162  1.0000
  H   H862      1.0  0.60443  0.27759  0.42853  1.0000
  H   H863      1.0  0.91334  0.25507  0.07585  1.0000
  H   H864      1.0  0.54602  0.23894  0.43623  1.0000
  H   H865      1.0  0.85406  0.22253  0.09702  1.0000
  H   H866      1.0  0.90897  0.32229  0.12901  1.0000
  S   S109      1.0  0.73181  0.30093  0.30902  1.0000
  H   H867      1.0  0.64708  0.31349  0.37448  1.0000
  C   C496      1.0  0.76490  0.17698  0.01411  1.0000
  H   H868      1.0  0.76392  0.01909  0.02603  1.0000
  C   C497      1.0  0.68516  0.31559  0.29492  1.0000
  H   H869      1.0  0.68232  0.29308  0.39700  1.0000
  H   H870      1.0  0.78329  0.31318  0.21276  1.0000
  C   C498      1.0  0.64604  0.31994  0.40367  1.0000
  H   H871      1.0  0.74243  0.07010  0.00882  1.0000
  H   H872      1.0  0.52833  0.07841  0.23982  1.0000
  H   H873      1.0  0.78869  0.28618  0.24024  1.0000
  H   H874      1.0  0.50134  0.24969  0.45282  1.0000
  C   C499      1.0  0.51283  0.23938  0.37879  1.0000
  H   H875      1.0  0.72831  0.28371  0.45002  1.0000
  H   H876      1.0  0.80121  0.08272  0.01816  1.0000
  H   H877      1.0  0.51477  0.08122  0.19449  1.0000
  H   H878      1.0  0.76656  0.30133  0.03819  1.0000
  H   H879      1.0  0.85638  0.31104  0.19482  1.0000
  C   C500      1.0  0.54716  0.10075  0.20061  1.0000
  N   N27       1.0  0.50127  0.22414  0.40785  1.0000
  H   H880      1.0  0.51800  0.27280  0.32270  1.0000
  H   H881      1.0  0.75919  0.29995  0.23695  1.0000
  H   H882      1.0  0.53767  0.15693  0.41417  1.0000
  H   H883      1.0  0.59625  0.25561  0.18057  1.0000
  C   C501      1.0  0.93542  0.28361  0.09535  1.0000
  H   H884      1.0  0.54138  0.21004  0.45767  1.0000
  H   H885      1.0  0.97093  0.30401  0.04029  1.0000
  C   C502      1.0  0.67880  0.00456  0.01259  1.0000
  C   C503      1.0  0.50822  0.23115  0.44667  1.0000
  C   C504      1.0  0.53217  0.19109  0.38485  1.0000
  H   H886      1.0  0.55488  0.15975  0.37263  1.0000
  H   H887      1.0  0.50536  0.18721  0.42733  1.0000
  H   H888      1.0  0.58648  0.17628  0.49023  1.0000
  H   H889      1.0  0.76945  0.06178  0.03126  1.0000
  H   H890      1.0  0.72691  0.01540  0.06140  1.0000
  H   H891      1.0  0.93888  0.29268  0.12202  1.0000
  H   H892      1.0  0.83943  0.01425  0.01230  1.0000
  H   H893      1.0  0.74283  0.04085  0.07753  1.0000
  H   H894      1.0  0.86057  0.30769  0.12633  1.0000
  C   C505      1.0  0.77006  0.31307  0.06221  1.0000
  H   H895      1.0  0.80244  0.03826  0.02406  1.0000
  H   H896      1.0  0.77589  0.10336  0.01600  1.0000
  H   H897      1.0  0.67243  0.01805  0.03197  1.0000
  H   H898      1.0  0.49320  0.14087  0.25065  1.0000
  H   H899      1.0  0.89972  0.27422  0.11104  1.0000
  H   H900      1.0  0.71709  0.25198  0.49677  1.0000
  H   H901      1.0  0.97313  0.30830  0.08892  1.0000
  C   C506      1.0  0.79866  0.20307  0.00519  1.0000
  H   H902      1.0  0.55936  0.23774  0.50108  1.0000
  C   C507      1.0  0.50682  0.26679  0.37984  1.0000
  H   H903      1.0  0.49954  0.21954  0.46735  1.0000
  C   C508      1.0  0.68578  0.23586  0.47624  1.0000
  C   C509      1.0  0.70903  0.31997  0.19330  1.0000
  H   H904      1.0  0.50779  0.23313  0.35067  1.0000
  H   H905      1.0  0.49444  0.19023  0.38119  1.0000
  H   H906      1.0  0.64837  0.32559  0.28291  1.0000
  N   N28       1.0  0.94120  0.32472  0.06363  1.0000
  H   H907      1.0  0.72028  0.32579  0.42762  1.0000
  S   S110      1.0  0.65076  0.10437  0.98612  1.0000
  H   H908      1.0  0.54866  0.28720  0.70006  1.0000
  H   H909      1.0  0.72364  0.07109  0.88041  1.0000
  H   H910      1.0  0.51549  0.16330  0.74932  1.0000
  C   C510      1.0  0.74599  0.26519  0.56071  1.0000
  H   H911      1.0  0.76633  0.07655  0.89604  1.0000
  Fe  Fe55      1.0  0.66355  0.12968  0.94215  1.0000
  S   S111      1.0  0.63769  0.14832  0.90081  1.0000
  S   S112      1.0  0.69751  0.10798  0.93376  1.0000
  Fe  Fe56      1.0  0.62070  0.19910  0.69720  1.0000
  S   S113      1.0  0.58959  0.21751  0.72490  1.0000
  S   S114      1.0  0.64666  0.17332  0.72832  1.0000
  Fe  Fe57      1.0  0.61066  0.22677  0.62322  1.0000
  S   S115      1.0  0.57890  0.24727  0.64679  1.0000
  S   S116      1.0  0.62374  0.23797  0.56597  1.0000
  Fe  Fe58      1.0  0.60213  0.25095  0.69731  1.0000
  S   S117      1.0  0.60392  0.28441  0.73165  1.0000
  Fe  Fe59      1.0  0.56933  0.21189  0.67173  1.0000
  S   S118      1.0  0.53301  0.19491  0.67113  1.0000
  S   S119      1.0  0.63443  0.23304  0.67268  1.0000
  S   S120      1.0  0.59994  0.19086  0.64517  1.0000
  C   C511      1.0  0.66527  0.20685  0.91360  1.0000
  C   C512      1.0  0.75101  0.05521  0.94151  1.0000
  C   C513      1.0  0.73895  0.27311  0.70478  1.0000
  H   H912      1.0  0.74357  0.03707  0.94289  1.0000
  H   H913      1.0  0.69806  0.28921  0.73670  1.0000
  H   H914      1.0  0.51972  0.19497  0.58884  1.0000
  C   C514      1.0  0.68701  0.19205  0.90013  1.0000
  H   H915      1.0  0.64904  0.28407  0.68947  1.0000
  S   S121      1.0  0.85553  0.26003  0.94192  1.0000
  H   H916      1.0  0.54220  0.20734  0.85526  1.0000
  C   C515      1.0  0.97212  0.29326  0.95578  1.0000
  C   C516      1.0  0.73691  0.28765  0.89050  1.0000
  C   C517      1.0  0.64635  0.30122  0.70292  1.0000
  Fe  Fe60      1.0  0.71344  0.13114  0.97772  1.0000
  C   C518      1.0  0.53273  0.16480  0.76419  1.0000
  H   H917      1.0  0.82995  0.28792  0.83981  1.0000
  H   H918      1.0  0.49243  0.16291  0.60788  1.0000
  C   C519      1.0  0.61407  0.22491  0.52406  1.0000
  H   H919      1.0  0.76957  0.29489  0.56862  1.0000
  C   C520      1.0  0.60170  0.20366  0.52391  1.0000
  H   H920      1.0  0.63473  0.27871  0.80129  1.0000
  H   H921      1.0  0.59731  0.19513  0.54990  1.0000
  C   C521      1.0  0.50443  0.20906  0.67681  1.0000
  C   C522      1.0  0.50015  0.23378  0.67174  1.0000
  H   H922      1.0  0.51444  0.24481  0.66278  1.0000
  H   H923      1.0  0.68410  0.25914  0.82747  1.0000
  C   C523      1.0  0.71172  0.28437  0.75837  1.0000
  C   C524      1.0  0.78435  0.17860  0.95468  1.0000
  H   H924      1.0  0.68451  0.27807  0.51672  1.0000
  C   C525      1.0  0.62590  0.30571  0.72451  1.0000
  H   H925      1.0  0.78321  0.26888  0.54673  1.0000
  H   H926      1.0  0.79742  0.03963  0.93895  1.0000
  H   H927      1.0  0.72955  0.03904  0.87702  1.0000
  C   C526      1.0  0.73660  0.28733  0.74078  1.0000
  H   H928      1.0  0.64853  0.31733  0.61335  1.0000
  H   H929      1.0  0.74337  0.05927  0.84517  1.0000
  C   C527      1.0  0.72318  0.28885  0.82335  1.0000
  H   H930      1.0  0.55593  0.26196  0.75556  1.0000
  H   H931      1.0  0.73759  0.25358  0.71035  1.0000
  H   H932      1.0  0.54238  0.24573  0.71866  1.0000
  C   C528      1.0  0.49186  0.16955  0.57875  1.0000
  C   C529      1.0  0.64094  0.15501  0.85294  1.0000
  C   C530      1.0  0.65795  0.14308  0.83077  1.0000
  C   C531      1.0  0.65933  0.14871  0.79262  1.0000
  C   C532      1.0  0.64394  0.16645  0.77631  1.0000
  C   C533      1.0  0.62711  0.17849  0.79863  1.0000
  C   C534      1.0  0.62554  0.17266  0.83660  1.0000
  H   H933      1.0  0.66955  0.12909  0.84282  1.0000
  H   H934      1.0  0.67219  0.13906  0.77551  1.0000
  H   H935      1.0  0.61516  0.19215  0.78662  1.0000
  H   H936      1.0  0.61222  0.18183  0.85347  1.0000
  C   C535      1.0  0.50102  0.23071  0.81599  1.0000
  H   H937      1.0  0.51258  0.26970  0.78112  1.0000
  C   C536      1.0  0.53917  0.25985  0.73978  1.0000
  N   N29       1.0  0.69959  0.26745  0.57000  1.0000
  C   C537      1.0  0.70458  0.24533  0.59384  1.0000
  C   C538      1.0  0.72232  0.28055  0.56326  1.0000
  C   C539      1.0  0.68281  0.28412  0.59135  1.0000
  C   C540      1.0  0.68762  0.26154  0.53385  1.0000
  C   C541      1.0  0.78042  0.08247  0.96519  1.0000
  C   C542      1.0  0.68319  0.22926  0.60117  1.0000
  C   C543      1.0  0.67607  0.30865  0.57236  1.0000
  C   C544      1.0  0.53370  0.28346  0.71898  1.0000
  Fe  Fe61      1.0  0.83291  0.29468  0.94161  1.0000
  H   H938      1.0  0.53168  0.29859  0.73876  1.0000
  C   C545      1.0  0.69037  0.20804  0.62658  1.0000
  H   H939      1.0  0.66892  0.22628  0.91368  1.0000
  H   H940      1.0  0.71201  0.25069  0.62116  1.0000
  H   H941      1.0  0.71842  0.23318  0.58148  1.0000
  C   C546      1.0  0.68905  0.01181  0.97919  1.0000
  H   H942      1.0  0.56102  0.23132  0.79929  1.0000
  H   H943      1.0  0.69048  0.28777  0.61927  1.0000
  H   H944      1.0  0.66552  0.27573  0.59649  1.0000
  H   H945      1.0  0.66951  0.25489  0.53900  1.0000
  C   C547      1.0  0.70134  0.24346  0.50867  1.0000
  H   H946      1.0  0.70723  0.22690  0.52393  1.0000
  H   H947      1.0  0.72489  0.27911  0.68456  1.0000
  H   H948      1.0  0.66844  0.23938  0.61485  1.0000
  H   H949      1.0  0.67642  0.22179  0.57487  1.0000
  H   H950      1.0  0.66356  0.30596  0.54892  1.0000
  H   H951      1.0  0.73126  0.26901  0.89496  1.0000
  C   C548      1.0  0.76660  0.28035  0.54838  1.0000
  H   H952      1.0  0.57173  0.22158  0.89956  1.0000
  H   H953      1.0  0.71047  0.26481  0.76368  1.0000
  H   H954      1.0  0.73570  0.06815  0.94645  1.0000
  C   C549      1.0  0.82452  0.01414  0.99194  1.0000
  H   H955      1.0  0.73966  0.30640  0.73423  1.0000
  S   S122      1.0  0.81556  0.28657  0.99604  1.0000
  C   C550      1.0  0.81626  0.30016  0.82844  1.0000
  H   H956      1.0  0.70458  0.19651  0.61365  1.0000
  H   H957      1.0  0.69669  0.21449  0.65383  1.0000
  H   H958      1.0  0.67467  0.19695  0.63142  1.0000
  H   H959      1.0  0.75581  0.28729  0.88143  1.0000
  H   H960      1.0  0.64534  0.27685  0.84879  1.0000
  H   H961      1.0  0.73808  0.02352  0.99727  1.0000
  N   N30       1.0  0.71590  0.18807  0.84339  1.0000
  C   C551      1.0  0.72136  0.16318  0.85898  1.0000
  C   C552      1.0  0.69274  0.19829  0.85918  1.0000
  C   C553      1.0  0.71288  0.18590  0.80177  1.0000
  C   C554      1.0  0.73613  0.20452  0.85011  1.0000
  C   C555      1.0  0.74199  0.21021  0.89093  1.0000
  C   C556      1.0  0.74431  0.14995  0.84465  1.0000
  C   C557      1.0  0.70026  0.20775  0.78149  1.0000
  H   H962      1.0  0.53041  0.16532  0.57605  1.0000
  C   C558      1.0  0.64699  0.26874  0.82083  1.0000
  C   C559      1.0  0.76517  0.22355  0.89391  1.0000
  C   C560      1.0  0.74571  0.12374  0.85770  1.0000
  C   C561      1.0  0.70342  0.20627  0.73950  1.0000
  H   H963      1.0  0.70604  0.15165  0.85339  1.0000
  H   H964      1.0  0.72318  0.16337  0.88963  1.0000
  H   H965      1.0  0.69165  0.21818  0.85580  1.0000
  H   H966      1.0  0.67734  0.19145  0.84337  1.0000
  H   H967      1.0  0.70248  0.16994  0.79487  1.0000
  H   H968      1.0  0.73048  0.18278  0.78824  1.0000
  H   H969      1.0  0.75270  0.19724  0.83680  1.0000
  H   H970      1.0  0.73247  0.22220  0.83637  1.0000
  H   H971      1.0  0.74408  0.19366  0.90803  1.0000
  H   H972      1.0  0.72763  0.22211  0.90263  1.0000
  H   H973      1.0  0.74501  0.14973  0.81398  1.0000
  H   H974      1.0  0.76030  0.15873  0.85545  1.0000
  H   H975      1.0  0.70724  0.22498  0.79073  1.0000
  H   H976      1.0  0.68079  0.20820  0.78692  1.0000
  H   H977      1.0  0.58465  0.21902  0.85411  1.0000
  C   C562      1.0  0.53168  0.18621  0.79048  1.0000
  H   H978      1.0  0.75661  0.27611  0.69225  1.0000
  S   S123      1.0  0.74862  0.14650  0.95900  1.0000
  H   H979      1.0  0.54220  0.21181  0.75028  1.0000
  H   H980      1.0  0.78056  0.21174  0.88535  1.0000
  H   H981      1.0  0.76448  0.23998  0.87623  1.0000
  H   H982      1.0  0.76810  0.22897  0.92312  1.0000
  H   H983      1.0  0.76248  0.11480  0.84775  1.0000
  H   H984      1.0  0.74555  0.12260  0.88843  1.0000
  H   H985      1.0  0.73044  0.11396  0.84652  1.0000
  H   H986      1.0  0.72244  0.20778  0.73202  1.0000
  H   H987      1.0  0.69697  0.18900  0.72893  1.0000
  H   H988      1.0  0.69284  0.22117  0.72578  1.0000
  H   H989      1.0  0.51739  0.18527  0.54115  1.0000
  H   H990      1.0  0.64146  0.24984  0.82252  1.0000
  C   C563      1.0  0.76667  0.16918  0.97739  1.0000
  H   H991      1.0  0.96694  0.30690  0.93544  1.0000
  H   H992      1.0  0.54928  0.18649  0.80456  1.0000
  H   H993      1.0  0.75111  0.28055  0.75957  1.0000
  H   H994      1.0  0.77225  0.04462  0.89256  1.0000
  H   H995      1.0  0.67320  0.25987  0.78014  1.0000
  H   H996      1.0  0.70194  0.19503  0.91940  1.0000
  H   H997      1.0  0.82337  0.29050  0.77155  1.0000
  H   H998      1.0  0.53331  0.23638  0.87258  1.0000
  C   C564      1.0  0.51627  0.17947  0.57060  1.0000
  H   H999      1.0  0.72549  0.29350  0.58607  1.0000
  H   H1000     1.0  0.54713  0.16676  0.74350  1.0000
  C   C565      1.0  0.57111  0.22908  0.87092  1.0000
  C   C566      1.0  0.73751  0.05690  0.87427  1.0000
  H   H1001     1.0  0.51151  0.20760  0.74988  1.0000
  C   C567      1.0  0.67266  0.26929  0.80717  1.0000
  C   C568      1.0  0.68063  0.29548  0.80261  1.0000
  H   H1002     1.0  0.76660  0.09564  0.95404  1.0000
  H   H1003     1.0  0.57566  0.24829  0.87200  1.0000
  H   H1004     1.0  0.64957  0.20382  0.89561  1.0000
  H   H1005     1.0  0.76291  0.28848  0.52061  1.0000
  H   H1006     1.0  0.54620  0.25707  0.81834  1.0000
  C   C569      1.0  0.54624  0.22659  0.85434  1.0000
  H   H1007     1.0  0.78619  0.17240  0.92646  1.0000
  H   H1008     1.0  0.74202  0.29130  0.81535  1.0000
  S   S124      1.0  0.80581  0.31315  0.90131  1.0000
  H   H1009     1.0  0.68283  0.17279  0.90238  1.0000
  N   N31       1.0  0.52268  0.23233  0.79159  1.0000
  C   C570      1.0  0.54462  0.23733  0.81447  1.0000
  C   C571      1.0  0.51811  0.25331  0.76525  1.0000
  C   C572      1.0  0.52675  0.20998  0.76886  1.0000
  H   H1010     1.0  0.51761  0.18300  0.81109  1.0000
  S   S125      1.0  0.86131  0.31531  0.96981  1.0000
  Fe  Fe62      1.0  0.88351  0.28049  0.97394  1.0000
  S   S126      1.0  0.68011  0.15417  0.98313  1.0000
  H   H1011     1.0  0.70524  0.99883  0.92871  1.0000
  C   C573      1.0  0.69724  0.99367  0.95461  1.0000
  H   H1012     1.0  0.81370  0.20248  0.95054  1.0000
  N   N32       1.0  0.70653  0.29851  0.79322  1.0000
  C   C574      1.0  0.81250  0.30169  0.78974  1.0000
  H   H1013     1.0  0.51714  0.28243  0.70218  1.0000
  H   H1014     1.0  0.50351  0.21616  0.83697  1.0000
  Fe  Fe63      1.0  0.68610  0.08369  0.98060  1.0000
  C   C575      1.0  0.75878  0.05870  0.90062  1.0000
  H   H1015     1.0  0.75081  0.25753  0.58845  1.0000
  H   H1016     1.0  0.72061  0.29178  0.53759  1.0000
  S   S127      1.0  0.69263  0.04298  0.96702  1.0000
  H   H1017     1.0  0.53024  0.23000  0.51650  1.0000
  H   H1018     1.0  0.74466  0.25018  0.54100  1.0000
  H   H1019     1.0  0.53652  0.14795  0.78021  1.0000
  C   C576      1.0  0.79999  0.19570  0.96824  1.0000
  H   H1020     1.0  0.72172  0.26913  0.82672  1.0000
  S   S128      1.0  0.79076  0.31863  0.72552  1.0000
  S   S129      1.0  0.92345  0.28601  0.95999  1.0000
  C   C577      1.0  0.95433  0.27967  0.97236  1.0000
  H   H1021     1.0  0.49849  0.24760  0.83214  1.0000
  C   C578      1.0  0.80716  0.11510  0.98818  1.0000
  H   H1022     1.0  0.69184  0.31762  0.56149  1.0000
  C   C579      1.0  0.66331  0.31914  0.69882  1.0000
  H   H1023     1.0  0.50312  0.24986  0.74610  1.0000
  H   H1024     1.0  0.67909  0.31570  0.68244  1.0000
  H   H1025     1.0  0.66086  0.20123  0.94228  1.0000
  C   C580      1.0  0.80224  0.31437  0.85230  1.0000
  H   H1026     1.0  0.82096  0.05251  0.99027  1.0000
  H   H1027     1.0  0.73580  0.29724  0.91738  1.0000
  C   C581      1.0  0.72079  0.30070  0.86186  1.0000
  H   H1028     1.0  0.70231  0.30050  0.87232  1.0000
  C   C582      1.0  0.71082  0.32469  0.78519  1.0000
  H   H1029     1.0  0.79447  0.08132  0.94353  1.0000
  H   H1030     1.0  0.66910  0.30411  0.78052  1.0000
  H   H1031     1.0  0.67561  0.30504  0.82839  1.0000
  H   H1032     1.0  0.48935  0.15435  0.55971  1.0000
  C   C583      1.0  0.79496  0.31767  0.77441  1.0000
  H   H1033     1.0  0.78030  0.02042  0.96616  1.0000
  H   H1034     1.0  0.82384  0.10733  0.97596  1.0000
  H   H1035     1.0  0.72663  0.31947  0.86031  1.0000
  H   H1036     1.0  0.83216  0.01252  0.96367  1.0000
  H   H1037     1.0  0.79827  0.12735  0.96750  1.0000
  N   N33       1.0  0.76995  0.05809  0.97097  1.0000
  C   C584      1.0  0.78868  0.03819  0.96639  1.0000
  C   C585      1.0  0.80917  0.03733  0.99527  1.0000
  C   C586      1.0  0.79079  0.09512  0.99961  1.0000
  Fe  Fe64      1.0  0.83915  0.25323  0.99820  1.0000
  H   H1038     1.0  0.81380  0.99825  0.99786  1.0000
  C   C587      1.0  0.96164  0.26210  0.99863  1.0000
  H   H1039     1.0  0.48874  0.17579  0.69195  1.0000
  C   C588      1.0  0.66363  0.32593  0.59948  1.0000
  Fe  Fe65      1.0  0.76415  0.59839  0.36880  1.0000
  S   S130      1.0  0.73832  0.57426  0.34132  1.0000
  S   S131      1.0  0.75598  0.60946  0.42836  1.0000
  Fe  Fe66      1.0  0.78686  0.61137  0.29273  1.0000
  S   S132      1.0  0.76198  0.58864  0.26116  1.0000
  S   S133      1.0  0.81518  0.63328  0.26458  1.0000
  Fe  Fe67      1.0  0.73362  0.60410  0.29898  1.0000
  S   S134      1.0  0.69674  0.61739  0.27987  1.0000
  Fe  Fe68      1.0  0.76932  0.56118  0.30652  1.0000
  S   S135      1.0  0.78451  0.52356  0.29380  1.0000
  S   S136      1.0  0.75809  0.62865  0.32773  1.0000
  S   S137      1.0  0.79571  0.58346  0.33696  1.0000
  Fe  Fe69      1.0  0.77847  0.36925  0.35509  1.0000
  S   S138      1.0  0.73988  0.37049  0.33922  1.0000
  S   S139      1.0  0.78852  0.38236  0.41263  1.0000
  Fe  Fe70      1.0  0.79399  0.35545  0.27463  1.0000
  S   S140      1.0  0.75618  0.35724  0.25376  1.0000
  H   H1040     1.0  0.69110  0.60469  0.40895  1.0000
  Fe  Fe71      1.0  0.75193  0.39073  0.28880  1.0000
  S   S141      1.0  0.73105  0.42568  0.27572  1.0000
  H   H1041     1.0  0.73291  0.56404  0.47303  1.0000
  C   C589      1.0  0.84846  0.64409  0.16618  1.0000
  S   S142      1.0  0.79040  0.39053  0.30569  1.0000
  H   H1042     1.0  0.64465  0.36381  0.36757  1.0000
  C   C590      1.0  0.76868  0.49710  0.28722  1.0000
  C   C591      1.0  0.78160  0.47594  0.27776  1.0000
  C   C592      1.0  0.77020  0.45409  0.27396  1.0000
  C   C593      1.0  0.74565  0.45318  0.27922  1.0000
  C   C594      1.0  0.73253  0.47453  0.28750  1.0000
  C   C595      1.0  0.74403  0.49639  0.29191  1.0000
  H   H1043     1.0  0.80059  0.47637  0.27351  1.0000
  H   H1044     1.0  0.78040  0.43795  0.26660  1.0000
  H   H1045     1.0  0.71346  0.47408  0.29107  1.0000
  H   H1046     1.0  0.73384  0.51262  0.29891  1.0000
  H   H1047     1.0  0.86370  0.49914  0.19302  1.0000
  H   H1048     1.0  0.85112  0.53308  0.14805  1.0000
  H   H1049     1.0  0.69615  0.35247  0.39384  1.0000
  H   H1050     1.0  0.84256  0.43313  0.30217  1.0000
  H   H1051     1.0  0.82796  0.45322  0.45894  1.0000
  C   C596      1.0  0.83291  0.56132  0.22909  1.0000
  C   C597      1.0  0.77516  0.37041  0.45273  1.0000
  C   C598      1.0  0.76294  0.34909  0.45134  1.0000
  H   H1052     1.0  0.70991  0.62622  0.45064  1.0000
  H   H1053     1.0  0.85384  0.65220  0.22403  1.0000
  H   H1054     1.0  0.72200  0.64470  0.39604  1.0000
  C   C599      1.0  0.90724  0.35950  0.14323  1.0000
  C   C600      1.0  0.82638  0.33645  0.19227  1.0000
  H   H1055     1.0  0.83992  0.57652  0.13568  1.0000
  H   H1056     1.0  0.79617  0.57712  0.45187  1.0000
  H   H1057     1.0  0.84411  0.48563  0.26965  1.0000
  C   C601      1.0  0.82177  0.63299  0.21645  1.0000
  C   C602      1.0  0.80734  0.62189  0.19048  1.0000
  C   C603      1.0  0.83134  0.33276  0.11427  1.0000
  H   H1058     1.0  0.79150  0.61325  0.19956  1.0000
  C   C604      1.0  0.78574  0.54289  0.19408  1.0000
  H   H1059     1.0  0.77331  0.45905  0.45393  1.0000
  C   C605      1.0  0.69637  0.64057  0.45759  1.0000
  H   H1060     1.0  0.78690  0.39852  0.48838  1.0000
  H   H1061     1.0  0.79706  0.36139  0.18013  1.0000
  H   H1062     1.0  0.87274  0.58017  0.29689  1.0000
  C   C606      1.0  0.66706  0.33991  0.45355  1.0000
  H   H1063     1.0  0.78989  0.53173  0.41998  1.0000
  H   H1064     1.0  0.76420  0.54626  0.14359  1.0000
  H   H1065     1.0  0.82995  0.45371  0.39909  1.0000
  C   C607      1.0  0.67825  0.34599  0.38717  1.0000
  H   H1066     1.0  0.74757  0.54792  0.18619  1.0000
  C   C608      1.0  0.81366  0.62161  0.15268  1.0000
  H   H1067     1.0  0.65247  0.35404  0.45271  1.0000
  H   H1068     1.0  0.77533  0.42756  0.37217  1.0000
  C   C609      1.0  0.77053  0.49963  0.40685  1.0000
  C   C610      1.0  0.81417  0.44549  0.38652  1.0000
  H   H1069     1.0  0.90415  0.36131  0.04224  1.0000
  C   C611      1.0  0.67375  0.64068  0.39783  1.0000
  H   H1070     1.0  0.75431  0.49582  0.39052  1.0000
  H   H1071     1.0  0.87631  0.55886  0.10618  1.0000
  H   H1072     1.0  0.80269  0.61253  0.13291  1.0000
  C   C612      1.0  0.85268  0.54612  0.17117  1.0000
  H   H1073     1.0  0.76716  0.49649  0.43668  1.0000
  C   C613      1.0  0.81338  0.34780  0.12983  1.0000
  H   H1074     1.0  0.74135  0.46180  0.41528  1.0000
  C   C614      1.0  0.80944  0.54962  0.17542  1.0000
  H   H1075     1.0  0.85641  0.43855  0.34646  1.0000
  H   H1076     1.0  0.83020  0.58007  0.21869  1.0000
  C   C615      1.0  0.74687  0.44463  0.40199  1.0000
  H   H1077     1.0  0.86860  0.47104  0.24547  1.0000
  C   C616      1.0  0.87758  0.57184  0.12928  1.0000
  N   N34       1.0  0.79130  0.45732  0.40067  1.0000
  H   H1078     1.0  0.71038  0.43454  0.39308  1.0000
  H   H1079     1.0  0.76424  0.57318  0.17155  1.0000
  H   H1080     1.0  0.78453  0.54978  0.22261  1.0000
  C   C617      1.0  0.85511  0.50431  0.21966  1.0000
  H   H1081     1.0  0.89671  0.34177  0.09371  1.0000
  H   H1082     1.0  0.74074  0.62125  0.50144  1.0000
  C   C618      1.0  0.77498  0.52637  0.40188  1.0000
  H   H1083     1.0  0.65152  0.59710  0.38248  1.0000
  H   H1084     1.0  0.89392  0.56749  0.14591  1.0000
  H   H1085     1.0  0.80867  0.49130  0.40311  1.0000
  H   H1086     1.0  0.79218  0.48722  0.36211  1.0000
  H   H1087     1.0  0.87213  0.55883  0.23731  1.0000
  C   C619      1.0  0.83107  0.51821  0.21166  1.0000
  H   H1088     1.0  0.67504  0.58502  0.35332  1.0000
  H   H1089     1.0  0.86991  0.54109  0.18478  1.0000
  H   H1090     1.0  0.66111  0.40145  0.34668  1.0000
  H   H1091     1.0  0.81779  0.55894  0.24833  1.0000
  S   S143      1.0  0.83625  0.33432  0.06578  1.0000
  C   C620      1.0  0.85557  0.55994  0.25375  1.0000
  H   H1092     1.0  0.82070  0.46564  0.33501  1.0000
  H   H1093     1.0  0.81523  0.42612  0.39484  1.0000
  H   H1094     1.0  0.80186  0.35877  0.11180  1.0000
  C   C621      1.0  0.79185  0.48391  0.39258  1.0000
  H   H1095     1.0  0.73150  0.42083  0.36148  1.0000
  C   C622      1.0  0.66638  0.60184  0.36404  1.0000
  C   C623      1.0  0.85703  0.58215  0.27812  1.0000
  C   C624      1.0  0.66190  0.36869  0.37994  1.0000
  C   C625      1.0  0.84231  0.64407  0.20404  1.0000
  H   H1096     1.0  0.66981  0.65098  0.37178  1.0000
  C   C626      1.0  0.67341  0.38572  0.35252  1.0000
  H   H1097     1.0  0.80283  0.43991  0.32861  1.0000
  C   C627      1.0  0.68953  0.35061  0.47081  1.0000
  H   H1098     1.0  0.75493  0.53981  0.47841  1.0000
  H   H1099     1.0  0.80781  0.56919  0.16891  1.0000
  C   C628      1.0  0.81066  0.34937  0.16858  1.0000
  H   H1100     1.0  0.76182  0.33955  0.42542  1.0000
  H   H1101     1.0  0.86777  0.51502  0.23537  1.0000
  C   C629      1.0  0.84025  0.43188  0.33270  1.0000
  H   H1102     1.0  0.82002  0.51769  0.23718  1.0000
  C   C630      1.0  0.93644  0.34042  0.09707  1.0000
  C   C631      1.0  0.85544  0.57137  0.15362  1.0000
  C   C632      1.0  0.78721  0.58405  0.47624  1.0000
  H   H1103     1.0  0.65852  0.37880  0.40587  1.0000
  H   H1104     1.0  0.78420  0.52310  0.19551  1.0000
  H   H1105     1.0  0.76672  0.45623  0.35399  1.0000
  C   C633      1.0  0.76418  0.55324  0.17236  1.0000
  C   C634      1.0  0.85133  0.48126  0.24177  1.0000
  C   C635      1.0  0.79020  0.45196  0.44177  1.0000
  H   H1106     1.0  0.67736  0.37648  0.32590  1.0000
  C   C636      1.0  0.76738  0.59993  0.47223  1.0000
  H   H1107     1.0  0.69021  0.39240  0.36421  1.0000
  H   H1108     1.0  0.82193  0.50686  0.19108  1.0000
  H   H1109     1.0  0.85895  0.59850  0.26070  1.0000
  H   H1110     1.0  0.85500  0.54409  0.27254  1.0000
  C   C637      1.0  0.81811  0.44685  0.34403  1.0000
  C   C638      1.0  0.72657  0.43759  0.37651  1.0000
  H   H1111     1.0  0.69994  0.61866  0.36643  1.0000
  S   S144      1.0  0.82541  0.33994  0.24118  1.0000
  H   H1112     1.0  0.87907  0.59010  0.11712  1.0000
  H   H1113     1.0  0.83879  0.46969  0.22698  1.0000
  H   H1114     1.0  0.74897  0.43053  0.42392  1.0000
  N   N35       1.0  0.83202  0.54378  0.19739  1.0000
  H   H1115     1.0  0.88931  0.35807  0.15573  1.0000
  H   H1116     1.0  0.84081  0.58455  0.29529  1.0000
  H   H1117     1.0  0.85730  0.58524  0.17526  1.0000
  H   H1118     1.0  0.81002  0.54037  0.14810  1.0000
  H   H1119     1.0  0.83834  0.41267  0.34023  1.0000
  H   H1120     1.0  0.98363  0.34454  0.02716  1.0000
  H   H1121     1.0  0.75874  0.53730  0.40923  1.0000
  H   H1122     1.0  0.94550  0.35480  0.02609  1.0000
  H   H1123     1.0  0.72230  0.45212  0.35601  1.0000
  H   H1124     1.0  0.77931  0.53053  0.37263  1.0000
  H   H1125     1.0  0.70546  0.65215  0.47779  1.0000
  C   C639      1.0  0.77062  0.44641  0.38050  1.0000
  C   C640      1.0  0.83413  0.63289  0.14024  1.0000
  H   H1126     1.0  0.69886  0.36230  0.45119  1.0000
  H   H1127     1.0  0.63244  0.33503  0.40358  1.0000
  Fe  Fe72      1.0  0.74831  0.33720  0.30631  1.0000
  H   H1128     1.0  0.65064  0.64255  0.27852  1.0000
  H   H1129     1.0  0.79019  0.43213  0.44621  1.0000
  S   S145      1.0  0.84280  0.62967  0.09327  1.0000
  N   N36       1.0  0.68904  0.65492  0.42341  1.0000
  H   H1130     1.0  0.65912  0.61245  0.34000  1.0000
  C   C641      1.0  0.91119  0.33971  0.11456  1.0000
  C   C642      1.0  0.77713  0.38229  0.48683  1.0000
  H   H1131     1.0  0.93992  0.35948  0.09015  1.0000
  C   C643      1.0  0.68469  0.61601  0.38525  1.0000
  H   H1132     1.0  0.65603  0.63792  0.41041  1.0000
  H   H1133     1.0  0.81127  0.48151  0.46312  1.0000
  H   H1134     1.0  0.66676  0.61582  0.46153  1.0000
  C   C644      1.0  0.66379  0.65525  0.28633  1.0000
  C   C645      1.0  0.93525  0.33822  0.02808  1.0000
  H   H1135     1.0  0.72468  0.53372  0.46446  1.0000
  H   H1136     1.0  0.90809  0.37749  0.12992  1.0000
  C   C646      1.0  0.68791  0.64758  0.28907  1.0000
  C   C647      1.0  0.75279  0.33980  0.48373  1.0000
  C   C648      1.0  0.90898  0.34692  0.02221  1.0000
  S   S146      1.0  0.88052  0.64683  0.00392  1.0000
  H   H1137     1.0  0.68052  0.33667  0.36023  1.0000
  H   H1138     1.0  0.92081  0.35771  0.16572  1.0000
  C   C649      1.0  0.73582  0.54506  0.48218  1.0000
  H   H1139     1.0  0.94918  0.33555  0.11999  1.0000
  H   H1140     1.0  0.89662  0.33209  0.02524  1.0000
  S   S147      1.0  0.78621  0.33427  0.32625  1.0000
  N   N37       1.0  0.67004  0.32839  0.41604  1.0000
  H   H1141     1.0  0.70192  0.33576  0.48034  1.0000
  H   H1142     1.0  0.72332  0.65887  0.29984  1.0000
  H   H1143     1.0  0.69183  0.33254  0.28563  1.0000
  H   H1144     1.0  0.67171  0.38168  0.49667  1.0000
  C   C650      1.0  0.81042  0.46173  0.46617  1.0000
  C   C651      1.0  0.98489  0.33790  0.05626  1.0000
  H   H1145     1.0  0.98099  0.35311  0.07529  1.0000
  H   H1146     1.0  0.86468  0.65207  0.15719  1.0000
  C   C652      1.0  0.67605  0.62877  0.47911  1.0000
  H   H1147     1.0  0.77211  0.65383  0.11140  1.0000
  Fe  Fe73      1.0  0.85607  0.65715  0.05133  1.0000
  H   H1148     1.0  0.70152  0.32834  0.16748  1.0000
  H   H1149     1.0  0.70089  0.32915  0.21765  1.0000
  H   H1150     1.0  0.75578  0.32744  0.06327  1.0000
  H   H1151     1.0  0.66280  0.64256  0.48897  1.0000
  H   H1152     1.0  0.95639  0.65910  0.04121  1.0000
  H   H1153     1.0  0.66118  0.32656  0.47426  1.0000
  H   H1154     1.0  0.94069  0.32701  0.00382  1.0000
  C   C653      1.0  0.67470  0.65121  0.70873  1.0000
  Fe  Fe74      1.0  0.77840  0.61223  0.71866  1.0000
  S   S148      1.0  0.74021  0.60432  0.73094  1.0000
  C   C654      1.0  0.73802  0.44135  0.57703  1.0000
  Fe  Fe75      1.0  0.77573  0.58986  0.64023  1.0000
  S   S149      1.0  0.73775  0.58049  0.64725  1.0000
  S   S150      1.0  0.79645  0.57964  0.58830  1.0000
  Fe  Fe76      1.0  0.73223  0.61702  0.67260  1.0000
  C   C655      1.0  0.79578  0.57764  0.51200  1.0000
  Fe  Fe77      1.0  0.74910  0.56820  0.70443  1.0000
  S   S151      1.0  0.73564  0.53278  0.72610  1.0000
  S   S152      1.0  0.76975  0.62717  0.66161  1.0000
  S   S153      1.0  0.78777  0.57531  0.69609  1.0000
  Fe  Fe78      1.0  0.76565  0.34432  0.69291  1.0000
  S   S154      1.0  0.74639  0.37620  0.71769  1.0000
  H   H1155     1.0  0.76948  0.44797  0.76756  1.0000
  Fe  Fe79      1.0  0.74427  0.35498  0.61488  1.0000
  S   S155      1.0  0.72317  0.38754  0.63451  1.0000
  H   H1156     1.0  0.82194  0.36468  0.80122  1.0000
  Fe  Fe80      1.0  0.75634  0.39633  0.66606  1.0000
  S   S156      1.0  0.77492  0.43194  0.66416  1.0000
  Fe  Fe81      1.0  0.71508  0.36448  0.68402  1.0000
  S   S157      1.0  0.67903  0.36546  0.71111  1.0000
  S   S158      1.0  0.77807  0.36492  0.64312  1.0000
  H   H1157     1.0  0.85894  0.36950  0.83833  1.0000
  C   C656      1.0  0.75425  0.35194  0.51759  1.0000
  C   C657      1.0  0.76656  0.37321  0.51912  1.0000
  C   C658      1.0  0.72655  0.48548  0.58520  1.0000
  H   H1158     1.0  0.76802  0.38259  0.54514  1.0000
  H   H1159     1.0  0.77734  0.53209  0.55231  1.0000
  H   H1160     1.0  0.83487  0.58152  0.64845  1.0000
  H   H1161     1.0  0.92963  0.63303  0.68135  1.0000
  C   C659      1.0  0.80920  0.62022  0.86168  1.0000
  H   H1162     1.0  0.76792  0.34479  0.78683  1.0000
  C   C660      1.0  0.78112  0.33210  0.79823  1.0000
  H   H1163     1.0  0.86582  0.58784  0.64662  1.0000
  C   C661      1.0  0.78441  0.58677  0.54389  1.0000
  C   C662      1.0  0.76425  0.60213  0.53981  1.0000
  H   H1164     1.0  0.65655  0.34220  0.58449  1.0000
  H   H1165     1.0  0.75540  0.60938  0.56411  1.0000
  C   C663      1.0  0.69620  0.34375  0.80791  1.0000
  C   C664      1.0  0.74673  0.50480  0.70886  1.0000
  C   C665      1.0  0.73236  0.48475  0.71032  1.0000
  C   C666      1.0  0.74055  0.46234  0.69634  1.0000
  C   C667      1.0  0.76345  0.45969  0.68157  1.0000
  C   C668      1.0  0.77792  0.47963  0.68061  1.0000
  C   C669      1.0  0.76956  0.50214  0.69384  1.0000
  H   H1166     1.0  0.71469  0.48665  0.72199  1.0000
  H   H1167     1.0  0.72923  0.44712  0.69726  1.0000
  H   H1168     1.0  0.79577  0.47762  0.66973  1.0000
  H   H1169     1.0  0.78086  0.51737  0.69282  1.0000
  C   C670      1.0  0.68587  0.61494  0.51309  1.0000
  N   N38       1.0  0.84709  0.63405  0.64966  1.0000
  C   C671      1.0  0.80240  0.61962  0.82397  1.0000
  C   C672      1.0  0.81083  0.63652  0.79895  1.0000
  C   C673      1.0  0.80916  0.39576  0.74551  1.0000
  H   H1170     1.0  0.84991  0.36746  0.68503  1.0000
  H   H1171     1.0  0.80019  0.49885  0.61199  1.0000
  H   H1172     1.0  0.81439  0.62489  0.62185  1.0000
  H   H1173     1.0  0.83950  0.57189  0.71693  1.0000
  C   C674      1.0  0.85480  0.57138  0.69756  1.0000
  H   H1174     1.0  0.74782  0.46914  0.53972  1.0000
  H   H1175     1.0  0.77729  0.50017  0.55533  1.0000
  S   S159      1.0  0.80285  0.63666  0.75105  1.0000
  H   H1176     1.0  0.87585  0.65504  0.62937  1.0000
  N   N39       1.0  0.80909  0.41276  0.77797  1.0000
  H   H1177     1.0  0.84133  0.38297  0.87534  1.0000
  C   C675      1.0  0.81607  0.45737  0.79338  1.0000
  C   C676      1.0  0.91647  0.63816  0.65925  1.0000
  H   H1178     1.0  0.77368  0.34136  0.85519  1.0000
  H   H1179     1.0  0.83748  0.35222  0.86248  1.0000
  C   C677      1.0  0.62275  0.32786  0.74211  1.0000
  H   H1180     1.0  0.69986  0.37229  0.51748  1.0000
  C   C678      1.0  0.70710  0.36835  0.80565  1.0000
  H   H1181     1.0  0.82313  0.38455  0.67237  1.0000
  S   S160      1.0  0.70439  0.64331  0.64816  1.0000
  H   H1182     1.0  0.88731  0.63926  0.69730  1.0000
  C   C679      1.0  0.63927  0.34571  0.73747  1.0000
  C   C680      1.0  0.72911  0.54261  0.52295  1.0000
  H   H1183     1.0  0.88638  0.36424  0.98000  1.0000
  H   H1184     1.0  0.84457  0.40390  0.72295  1.0000
  C   C681      1.0  0.70519  0.52283  0.63532  1.0000
  H   H1185     1.0  0.82431  0.61453  0.68615  1.0000
  H   H1186     1.0  0.87800  0.62454  0.61615  1.0000
  C   C682      1.0  0.82187  0.37832  0.82343  1.0000
  C   C683      1.0  0.65950  0.34161  0.71570  1.0000
  H   H1187     1.0  0.63622  0.36293  0.75071  1.0000
  H   H1188     1.0  0.74479  0.50645  0.52172  1.0000
  H   H1189     1.0  0.68953  0.55903  0.64354  1.0000
  H   H1190     1.0  0.83087  0.45438  0.81368  1.0000
  H   H1191     1.0  0.84895  0.65439  0.72268  1.0000
  S   S161      1.0  0.83219  0.63725  0.92297  1.0000
  H   H1192     1.0  0.79995  0.37900  0.75254  1.0000
  H   H1193     1.0  0.69586  0.38169  0.82110  1.0000
  H   H1194     1.0  0.72529  0.36759  0.81798  1.0000
  H   H1195     1.0  0.70802  0.37449  0.77638  1.0000
  H   H1196     1.0  0.73006  0.32813  0.78845  1.0000
  H   H1197     1.0  0.79070  0.60603  0.81428  1.0000
  H   H1198     1.0  0.66811  0.53620  0.63556  1.0000
  C   C684      1.0  0.70933  0.52602  0.59314  1.0000
  H   H1199     1.0  0.84039  0.61074  0.60311  1.0000
  C   C685      1.0  0.83284  0.65466  0.85000  1.0000
  H   H1200     1.0  0.79859  0.40388  0.72209  1.0000
  H   H1201     1.0  0.71152  0.54562  0.58884  1.0000
  H   H1202     1.0  0.65134  0.65872  0.75504  1.0000
  H   H1203     1.0  0.72668  0.48206  0.61564  1.0000
  H   H1204     1.0  0.81449  0.51842  0.57982  1.0000
  H   H1205     1.0  0.84440  0.37686  0.75042  1.0000
  C   C686      1.0  0.79834  0.51627  0.59692  1.0000
  H   H1206     1.0  0.81940  0.49602  0.79620  1.0000
  C   C687      1.0  0.77625  0.51672  0.57194  1.0000
  H   H1207     1.0  0.85308  0.61764  0.70402  1.0000
  H   H1208     1.0  0.67774  0.34558  0.79664  1.0000
  H   H1209     1.0  0.83114  0.62001  0.53891  1.0000
  H   H1210     1.0  0.76420  0.42126  0.74202  1.0000
  H   H1211     1.0  0.69882  0.60040  0.50461  1.0000
  C   C688      1.0  0.75299  0.51958  0.59493  1.0000
  C   C689      1.0  0.83332  0.62796  0.61501  1.0000
  C   C690      1.0  0.80634  0.45622  0.50720  1.0000
  C   C691      1.0  0.74539  0.46709  0.57000  1.0000
  H   H1212     1.0  0.72164  0.52657  0.65080  1.0000
  H   H1213     1.0  0.71353  0.50782  0.52332  1.0000
  H   H1214     1.0  0.80285  0.63370  0.55288  1.0000
  H   H1215     1.0  0.68339  0.53774  0.67959  1.0000
  H   H1216     1.0  0.79721  0.53103  0.61744  1.0000
  H   H1217     1.0  0.67404  0.35504  0.52578  1.0000
  N   N40       1.0  0.73024  0.51171  0.57699  1.0000
  H   H1218     1.0  0.68498  0.63707  0.72300  1.0000
  C   C692      1.0  0.82446  0.63767  0.87499  1.0000
  C   C693      1.0  0.83408  0.38814  0.72999  1.0000
  C   C694      1.0  0.82619  0.40383  0.80789  1.0000
  H   H1219     1.0  0.85761  0.55271  0.68737  1.0000
  C   C695      1.0  0.78428  0.41445  0.79389  1.0000
  H   H1220     1.0  0.69488  0.33899  0.83759  1.0000
  H   H1221     1.0  0.80447  0.37812  0.83779  1.0000
  H   H1222     1.0  0.80263  0.60697  0.88073  1.0000
  C   C696      1.0  0.76528  0.42876  0.77023  1.0000
  C   C697      1.0  0.81909  0.48180  0.77479  1.0000
  H   H1223     1.0  0.83524  0.43572  0.75406  1.0000
  H   H1224     1.0  0.71085  0.55078  0.52614  1.0000
  H   H1225     1.0  0.78924  0.46470  0.51657  1.0000
  C   C698      1.0  0.74065  0.42794  0.78771  1.0000
  H   H1226     1.0  0.82529  0.41607  0.83214  1.0000
  H   H1227     1.0  0.76264  0.46904  0.58464  1.0000
  H   H1228     1.0  0.80611  0.43650  0.51203  1.0000
  H   H1229     1.0  0.80581  0.44291  0.73960  1.0000
  H   H1230     1.0  0.78441  0.42252  0.82205  1.0000
  H   H1231     1.0  0.77751  0.39613  0.79819  1.0000
  H   H1232     1.0  0.90914  0.34384  0.96194  1.0000
  S   S162      1.0  0.73360  0.33129  0.66240  1.0000
  H   H1233     1.0  0.75151  0.53893  0.60242  1.0000
  H   H1234     1.0  0.75237  0.42846  0.56780  1.0000
  C   C699      1.0  0.84113  0.37040  0.85158  1.0000
  H   H1235     1.0  0.72143  0.43768  0.56155  1.0000
  H   H1236     1.0  0.79914  0.45850  0.80896  1.0000
  C   C700      1.0  0.84994  0.58846  0.66474  1.0000
  C   C701      1.0  0.68532  0.54004  0.64912  1.0000
  C   C702      1.0  0.83191  0.37345  0.69467  1.0000
  H   H1237     1.0  0.82152  0.35727  0.69990  1.0000
  C   C703      1.0  0.81665  0.43694  0.76429  1.0000
  H   H1238     1.0  0.69979  0.50441  0.64221  1.0000
  C   C704      1.0  0.84336  0.61440  0.67781  1.0000
  S   S163      1.0  0.73986  0.34010  0.55681  1.0000
  C   C705      1.0  0.97785  0.62777  0.95698  1.0000
  H   H1239     1.0  0.83604  0.48188  0.75910  1.0000
  H   H1240     1.0  0.80395  0.48615  0.75556  1.0000
  H   H1241     1.0  0.74072  0.43604  0.81576  1.0000
  H   H1242     1.0  0.72746  0.43828  0.77017  1.0000
  H   H1243     1.0  0.73504  0.40915  0.78978  1.0000
  H   H1244     1.0  0.67106  0.60670  0.52816  1.0000
  H   H1245     1.0  0.84492  0.40432  0.79809  1.0000
  H   H1246     1.0  0.87103  0.57643  0.71289  1.0000
  H   H1247     1.0  0.74144  0.55324  0.53973  1.0000
  C   C706      1.0  0.72960  0.51586  0.53557  1.0000
  H   H1248     1.0  0.69248  0.52169  0.57860  1.0000
  H   H1249     1.0  0.75585  0.51002  0.62186  1.0000
  H   H1250     1.0  0.70869  0.48047  0.57490  1.0000
  H   H1251     1.0  0.73510  0.43828  0.60711  1.0000
  C   C707      1.0  0.68035  0.65735  0.67218  1.0000
  C   C708      1.0  0.89177  0.63049  0.67070  1.0000
  C   C709      1.0  0.75596  0.60884  0.50418  1.0000
  H   H1252     1.0  0.97936  0.60928  0.94570  1.0000
  C   C710      1.0  0.87299  0.63650  0.63976  1.0000
  C   C711      1.0  0.90522  0.35768  0.98337  1.0000
  C   C712      1.0  0.78454  0.33020  0.83695  1.0000
  H   H1253     1.0  0.81698  0.65538  0.67005  1.0000
  H   H1254     1.0  0.69483  0.62720  0.53240  1.0000
  H   H1255     1.0  0.98110  0.62704  0.98739  1.0000
  H   H1256     1.0  0.82286  0.65037  0.52491  1.0000
  H   H1257     1.0  0.81144  0.56580  0.51496  1.0000
  H   H1258     1.0  0.82097  0.46341  0.52415  1.0000
  H   H1259     1.0  0.89311  0.61085  0.67612  1.0000
  C   C713      1.0  0.82190  0.63701  0.54781  1.0000
  H   H1260     1.0  0.92210  0.62914  0.63317  1.0000
  C   C714      1.0  0.82601  0.65408  0.81224  1.0000
  H   H1261     1.0  0.77678  0.63422  0.94339  1.0000
  C   C715      1.0  0.76941  0.64292  0.96872  1.0000
  C   C716      1.0  0.83336  0.64672  0.58288  1.0000
  H   H1262     1.0  0.70654  0.32921  0.75563  1.0000
  H   H1263     1.0  0.60714  0.33147  0.75894  1.0000
  C   C717      1.0  0.68327  0.36581  0.50474  1.0000
  H   H1264     1.0  0.95940  0.63515  0.95204  1.0000
  H   H1265     1.0  0.76310  0.65670  0.81632  1.0000
  H   H1266     1.0  0.75497  0.63187  0.97953  1.0000
  H   H1267     1.0  0.91688  0.37304  0.97896  1.0000
  H   H1268     1.0  0.85176  0.65160  0.57597  1.0000
  H   H1269     1.0  0.78369  0.64335  0.99008  1.0000
  H   H1270     1.0  0.67650  0.33176  0.62075  1.0000
  C   C718      1.0  0.83631  0.65737  0.66438  1.0000
  H   H1271     1.0  0.91650  0.65795  0.65520  1.0000
  H   H1272     1.0  0.76874  0.68019  0.08200  1.0000
  S   S164      1.0  0.86868  0.69497  0.05576  1.0000
  C   C719      1.0  0.50904  0.77307  0.30328  1.0000
  Fe  Fe82      1.0  0.67450  0.84018  0.02566  1.0000
  S   S165      1.0  0.65452  0.81643  0.06611  1.0000
  S   S166      1.0  0.70718  0.86214  0.03113  1.0000
  Fe  Fe83      1.0  0.63037  0.74560  0.31118  1.0000
  S   S167      1.0  0.63579  0.78444  0.32288  1.0000
  S   S168      1.0  0.66648  0.72608  0.31301  1.0000
  Fe  Fe84      1.0  0.57678  0.75513  0.30176  1.0000
  S   S169      1.0  0.57905  0.79480  0.31158  1.0000
  S   S170      1.0  0.54235  0.73534  0.29428  1.0000
  Fe  Fe85      1.0  0.61141  0.79225  0.27450  1.0000
  S   S171      1.0  0.62464  0.82172  0.23621  1.0000
  Fe  Fe86      1.0  0.60359  0.78329  0.35884  1.0000
  S   S172      1.0  0.60260  0.80229  0.41461  1.0000
  S   S173      1.0  0.60738  0.75331  0.26089  1.0000
  S   S174      1.0  0.59985  0.74381  0.35093  1.0000
  C   C720      1.0  0.51322  0.74825  0.30033  1.0000
  S   S175      1.0  0.82661  0.66845  0.01258  1.0000
  H   H1273     1.0  0.52379  0.78487  0.30145  1.0000
  H   H1274     1.0  0.63804  0.68509  0.29194  1.0000
  C   C721      1.0  0.78138  0.66944  0.09995  1.0000
  H   H1275     1.0  0.67404  0.72354  0.11429  1.0000
  C   C722      1.0  0.67365  0.69567  0.30399  1.0000
  C   C723      1.0  0.69764  0.68801  0.30647  1.0000
  C   C724      1.0  0.66854  0.69594  0.40444  1.0000
  H   H1276     1.0  0.59795  0.86660  0.21498  1.0000
  H   H1277     1.0  0.52066  0.71873  0.41847  1.0000
  H   H1278     1.0  0.71092  0.70066  0.31398  1.0000
  H   H1279     1.0  0.86181  0.69411  0.22481  1.0000
  H   H1280     1.0  0.52157  0.84170  0.38316  1.0000
  C   C725      1.0  0.60224  0.78711  0.45799  1.0000
  C   C726      1.0  0.59861  0.95181  0.05292  1.0000
  C   C727      1.0  0.53555  0.82928  0.37158  1.0000
  H   H1281     1.0  0.55201  0.83933  0.36753  1.0000
  H   H1282     1.0  0.80601  0.74692  0.18837  1.0000
  C   C728      1.0  0.80419  0.76276  0.11203  1.0000
  C   C729      1.0  0.64825  0.81692  0.11436  1.0000
  C   C730      1.0  0.65837  0.83322  0.13849  1.0000
  C   C731      1.0  0.65130  0.83415  0.17593  1.0000
  C   C732      1.0  0.63465  0.81829  0.18995  1.0000
  C   C733      1.0  0.62534  0.80127  0.16622  1.0000
  C   C734      1.0  0.63191  0.80080  0.12855  1.0000
  H   H1283     1.0  0.67146  0.84524  0.12825  1.0000
  H   H1284     1.0  0.65873  0.84726  0.19420  1.0000
  H   H1285     1.0  0.61240  0.78908  0.17656  1.0000
  H   H1286     1.0  0.62389  0.78816  0.11014  1.0000
  C   C735      1.0  0.53750  0.75301  0.40700  1.0000
  H   H1287     1.0  0.55348  0.71154  0.37189  1.0000
  H   H1288     1.0  0.77498  0.69001  0.14903  1.0000
  H   H1289     1.0  0.88595  0.71387  0.21804  1.0000
  H   H1290     1.0  0.50413  0.80564  0.41563  1.0000
  C   C736      1.0  0.79053  0.68463  0.13173  1.0000
  H   H1291     1.0  0.57199  0.88540  0.20283  1.0000
  H   H1292     1.0  0.55294  0.78185  0.45869  1.0000
  H   H1293     1.0  0.73513  0.66933  0.44933  1.0000
  C   C737      1.0  0.65662  0.67928  0.29392  1.0000
  H   H1294     1.0  0.54272  0.72620  0.45235  1.0000
  H   H1295     1.0  0.82486  0.77720  0.06655  1.0000
  H   H1296     1.0  0.59304  0.89527  0.23686  1.0000
  H   H1297     1.0  0.79522  0.69367  0.20258  1.0000
  H   H1298     1.0  0.82711  0.79345  0.10965  1.0000
  H   H1299     1.0  0.69026  0.77699  0.28747  1.0000
  H   H1300     1.0  0.60391  0.83472  0.04151  1.0000
  H   H1301     1.0  0.55625  0.75876  0.40630  1.0000
  H   H1302     1.0  0.55548  0.69203  0.41201  1.0000
  C   C738      1.0  0.53445  0.77642  0.46398  1.0000
  H   H1303     1.0  0.81583  0.71168  0.22618  1.0000
  C   C739      1.0  0.51846  0.79345  0.40432  1.0000
  C   C740      1.0  0.79872  0.71230  0.21055  1.0000
  C   C741      1.0  0.59136  0.86880  0.06553  1.0000
  H   H1304     1.0  0.63736  0.71202  0.43224  1.0000
  H   H1305     1.0  0.58083  0.88491  0.05568  1.0000
  H   H1306     1.0  0.76206  0.75424  0.04083  1.0000
  C   C742      1.0  0.82395  0.74391  0.12441  1.0000
  N   N41       1.0  0.52202  0.77108  0.42794  1.0000
  H   H1307     1.0  0.80042  0.79654  0.08161  1.0000
  C   C743      1.0  0.67491  0.67715  0.43538  1.0000
  S   S176      1.0  0.68213  0.93052  0.00953  1.0000
  H   H1308     1.0  0.53672  0.75995  0.48142  1.0000
  C   C744      1.0  0.74971  0.68319  0.39930  1.0000
  C   C745      1.0  0.54085  0.80817  0.39808  1.0000
  Fe  Fe87      1.0  0.89196  0.68532  0.00597  1.0000
  H   H1309     1.0  0.63158  0.68739  0.21921  1.0000
  H   H1310     1.0  0.74195  0.79231  0.01866  1.0000
  H   H1311     1.0  0.65916  0.76888  0.24072  1.0000
  H   H1312     1.0  0.57487  0.71680  0.40857  1.0000
  H   H1313     1.0  0.88127  0.69031  0.18513  1.0000
  C   C746      1.0  0.71120  0.66125  0.40283  1.0000
  H   H1314     1.0  0.60666  0.96099  0.02887  1.0000
  H   H1315     1.0  0.65018  0.73077  0.39741  1.0000
  H   H1316     1.0  0.79649  0.66244  0.08288  1.0000
  H   H1317     1.0  0.76148  0.72111  0.22349  1.0000
  H   H1318     1.0  0.78151  0.73375  0.16632  1.0000
  C   C747      1.0  0.59345  0.85129  0.03313  1.0000
  C   C748      1.0  0.96942  0.67095  0.03025  1.0000
  C   C749      1.0  0.75930  0.78682  0.00810  1.0000
  C   C750      1.0  0.72500  0.67761  0.20428  1.0000
  C   C751      1.0  0.59868  0.75092  0.49532  1.0000
  H   H1319     1.0  0.52961  0.82277  0.34412  1.0000
  H   H1320     1.0  0.67471  0.78567  0.20639  1.0000
  H   H1321     1.0  0.80305  0.67303  0.14829  1.0000
  C   C752      1.0  0.77918  0.72063  0.23741  1.0000
  H   H1322     1.0  0.68435  0.68645  0.45800  1.0000
  H   H1323     1.0  0.79099  0.75507  0.09326  1.0000
  H   H1324     1.0  0.70651  0.66954  0.37558  1.0000
  H   H1325     1.0  0.68173  0.74868  0.05898  1.0000
  H   H1326     1.0  0.66493  0.72667  0.44160  1.0000
  N   N42       1.0  0.81574  0.72189  0.14477  1.0000
  H   H1327     1.0  0.78780  0.71810  0.10342  1.0000
  H   H1328     1.0  0.79449  0.77028  0.13630  1.0000
  H   H1329     1.0  0.61898  0.68428  0.17353  1.0000
  H   H1330     1.0  0.60224  0.85974  0.00912  1.0000
  C   C753      1.0  0.96173  0.69085  0.00859  1.0000
  C   C754      1.0  0.80244  0.70726  0.11691  1.0000
  H   H1331     1.0  0.81461  0.70160  0.09393  1.0000
  H   H1332     1.0  0.83450  0.73843  0.09949  1.0000
  H   H1333     1.0  0.83609  0.75421  0.14203  1.0000
  C   C755      1.0  0.77082  0.76525  0.02070  1.0000
  C   C756      1.0  0.67686  0.97980  0.02115  1.0000
  C   C757      1.0  0.79998  0.72971  0.17668  1.0000
  H   H1334     1.0  0.59670  0.96489  0.07592  1.0000
  H   H1335     1.0  0.84751  0.69992  0.13299  1.0000
  C   C758      1.0  0.81490  0.78374  0.09128  1.0000
  H   H1336     1.0  0.70619  0.79395  0.25312  1.0000
  H   H1337     1.0  0.84673  0.73355  0.20054  1.0000
  H   H1338     1.0  0.74205  0.68472  0.19459  1.0000
  H   H1339     1.0  0.57543  0.84612  0.02425  1.0000
  C   C759      1.0  0.83760  0.70729  0.15736  1.0000
  H   H1340     1.0  0.68767  0.77385  0.08816  1.0000
  H   H1341     1.0  0.71705  0.66688  0.18188  1.0000
  C   C760      1.0  0.87217  0.70364  0.20357  1.0000
  C   C761      1.0  0.52194  0.79567  0.48883  1.0000
  H   H1342     1.0  0.54742  0.81564  0.42450  1.0000
  H   H1343     1.0  0.51637  0.81210  0.47300  1.0000
  H   H1344     1.0  0.68475  0.70278  0.39136  1.0000
  H   H1345     1.0  0.83258  0.69120  0.17314  1.0000
  H   H1346     1.0  0.58139  0.85973  0.08768  1.0000
  H   H1347     1.0  0.65739  0.68811  0.38253  1.0000
  H   H1348     1.0  0.86727  0.73138  0.16254  1.0000
  H   H1349     1.0  0.58074  0.94592  0.04448  1.0000
  H   H1350     1.0  0.65821  0.76190  0.08671  1.0000
  H   H1351     1.0  0.60002  0.75165  0.43540  1.0000
  H   H1352     1.0  0.61335  0.71169  0.19884  1.0000
  C   C762      1.0  0.65440  0.71760  0.42007  1.0000
  C   C763      1.0  0.85578  0.72089  0.18108  1.0000
  H   H1353     1.0  0.61628  0.91819  0.04044  1.0000
  H   H1354     1.0  0.51195  0.78865  0.37631  1.0000
  C   C764      1.0  0.70473  0.66416  0.29890  1.0000
  N   N43       1.0  0.61690  0.89379  0.11031  1.0000
  C   C765      1.0  0.61633  0.87555  0.07960  1.0000
  C   C766      1.0  0.64234  0.89747  0.12247  1.0000
  C   C767      1.0  0.60369  0.88363  0.14290  1.0000
  C   C768      1.0  0.60462  0.91738  0.09908  1.0000
  C   C769      1.0  0.61467  0.93022  0.06467  1.0000
  C   C770      1.0  0.55665  0.71092  0.40236  1.0000
  C   C771      1.0  0.60542  0.89749  0.18003  1.0000
  C   C772      1.0  0.66192  0.89576  0.09229  1.0000
  C   C773      1.0  0.68553  0.90468  0.10691  1.0000
  H   H1355     1.0  0.77873  0.70789  0.26125  1.0000
  Fe  Fe88      1.0  0.83991  0.70567  0.01372  1.0000
  C   C774      1.0  0.59118  0.88542  0.21040  1.0000
  H   H1356     1.0  0.62582  0.85864  0.08882  1.0000
  H   H1357     1.0  0.62622  0.88148  0.05503  1.0000
  H   H1358     1.0  0.64357  0.91506  0.13671  1.0000
  H   H1359     1.0  0.64816  0.88366  0.14351  1.0000
  H   H1360     1.0  0.61014  0.86470  0.14858  1.0000
  H   H1361     1.0  0.58435  0.88284  0.13647  1.0000
  H   H1362     1.0  0.58525  0.91509  0.09460  1.0000
  H   H1363     1.0  0.60556  0.93053  0.12199  1.0000
  C   C775      1.0  0.72822  0.67794  0.42336  1.0000
  H   H1364     1.0  0.63237  0.93725  0.07139  1.0000
  H   H1365     1.0  0.70363  0.73452  0.11412  1.0000
  H   H1366     1.0  0.66898  0.97465  0.04716  1.0000
  H   H1367     1.0  0.59817  0.91622  0.17703  1.0000
  H   H1368     1.0  0.62411  0.89794  0.19004  1.0000
  H   H1369     1.0  0.66497  0.87678  0.08368  1.0000
  H   H1370     1.0  0.65702  0.90624  0.06713  1.0000
  H   H1371     1.0  0.68353  0.92388  0.11488  1.0000
  H   H1372     1.0  0.69186  0.89374  0.13119  1.0000
  H   H1373     1.0  0.69920  0.90319  0.08486  1.0000
  H   H1374     1.0  0.71915  0.69538  0.43025  1.0000
  H   H1375     1.0  0.71612  0.70734  0.23949  1.0000
  C   C776      1.0  0.60036  0.76220  0.46040  1.0000
  C   C777      1.0  0.79347  0.75782  0.00749  1.0000
  H   H1376     1.0  0.69122  0.68985  0.22570  1.0000
  H   H1377     1.0  0.78270  0.73877  0.24821  1.0000
  H   H1378     1.0  0.67688  0.80417  0.26770  1.0000
  H   H1379     1.0  0.74388  0.69193  0.37276  1.0000
  H   H1380     1.0  0.55526  0.79672  0.38575  1.0000
  N   N44       1.0  0.68366  0.73558  0.19021  1.0000
  C   C778      1.0  0.70232  0.71579  0.18337  1.0000
  C   C779      1.0  0.68057  0.75163  0.15616  1.0000
  C   C780      1.0  0.69254  0.75068  0.22168  1.0000
  C   C781      1.0  0.66014  0.72589  0.20180  1.0000
  C   C782      1.0  0.64911  0.70743  0.17569  1.0000
  C   C783      1.0  0.70771  0.69808  0.21599  1.0000
  C   C784      1.0  0.67702  0.77362  0.23086  1.0000
  C   C785      1.0  0.68448  0.73978  0.11766  1.0000
  C   C786      1.0  0.67759  0.75717  0.08607  1.0000
  C   C787      1.0  0.62691  0.69714  0.19298  1.0000
  H   H1381     1.0  0.76150  0.69542  0.41423  1.0000
  C   C788      1.0  0.68842  0.78799  0.26167  1.0000
  H   H1382     1.0  0.71944  0.72379  0.17548  1.0000
  H   H1383     1.0  0.69736  0.70458  0.15950  1.0000
  H   H1384     1.0  0.66263  0.76095  0.15600  1.0000
  H   H1385     1.0  0.69342  0.76636  0.15686  1.0000
  H   H1386     1.0  0.71093  0.75639  0.21580  1.0000
  H   H1387     1.0  0.69381  0.74005  0.24790  1.0000
  H   H1388     1.0  0.66156  0.71781  0.23012  1.0000
  H   H1389     1.0  0.64645  0.74078  0.20434  1.0000
  H   H1390     1.0  0.66167  0.69206  0.16996  1.0000
  H   H1391     1.0  0.64345  0.71632  0.14928  1.0000
  H   H1392     1.0  0.53207  0.75229  0.37727  1.0000
  H   H1393     1.0  0.50594  0.78826  0.50186  1.0000
  S   S177      1.0  0.80706  0.73055  0.02524  1.0000
  C   C789      1.0  0.53818  0.72686  0.42241  1.0000
  H   H1394     1.0  0.65770  0.67211  0.44769  1.0000
  H   H1395     1.0  0.49343  0.74286  0.38279  1.0000
  H   H1396     1.0  0.59706  0.73166  0.49690  1.0000
  C   C790      1.0  0.49794  0.76148  0.43632  1.0000
  H   H1397     1.0  0.49681  0.71395  0.29995  1.0000
  C   C791      1.0  0.49376  0.73319  0.30235  1.0000
  H   H1398     1.0  0.72891  0.66540  0.22827  1.0000
  H   H1399     1.0  0.60416  0.81982  0.48923  1.0000
  C   C792      1.0  0.60274  0.80053  0.49086  1.0000
  H   H1400     1.0  0.49970  0.74578  0.45555  1.0000
  H   H1401     1.0  0.76011  0.66627  0.39325  1.0000
  H   H1402     1.0  0.58098  0.76617  0.81380  1.0000
  S   S178      1.0  0.86343  0.69861  0.96410  1.0000
  C   C793      1.0  0.50505  0.74613  0.72158  1.0000
  H   H1403     1.0  0.64158  0.87838  0.82592  1.0000
  H   H1404     1.0  0.82279  0.66325  0.59023  1.0000
  H   H1405     1.0  0.78474  0.73901  0.90098  1.0000
  H   H1406     1.0  0.56563  0.68401  0.76187  1.0000
  H   H1407     1.0  0.78698  0.67446  0.86621  1.0000
  H   H1408     1.0  0.68328  0.78564  0.61680  1.0000
  H   H1409     1.0  0.68908  0.73576  0.79584  1.0000
  H   H1410     1.0  0.75205  0.67609  0.98580  1.0000
  H   H1411     1.0  0.72512  0.80741  0.77579  1.0000
  H   H1412     1.0  0.67594  0.77323  0.68072  1.0000
  Fe  Fe89      1.0  0.71892  0.84387  0.97810  1.0000
  Fe  Fe90      1.0  0.66989  0.85054  0.94136  1.0000
  S   S179      1.0  0.64183  0.84462  0.89630  1.0000
  S   S180      1.0  0.70218  0.87328  0.94107  1.0000
  Fe  Fe91      1.0  0.59752  0.76074  0.63169  1.0000
  S   S181      1.0  0.57358  0.73814  0.66633  1.0000
  S   S182      1.0  0.59638  0.74901  0.57114  1.0000
  Fe  Fe92      1.0  0.61798  0.78496  0.70208  1.0000
  S   S183      1.0  0.59511  0.76404  0.73962  1.0000
  S   S184      1.0  0.64672  0.80694  0.72941  1.0000
  Fe  Fe93      1.0  0.60535  0.73242  0.70402  1.0000
  S   S185      1.0  0.61910  0.69794  0.73197  1.0000
  Fe  Fe94      1.0  0.56579  0.77197  0.69810  1.0000
  S   S186      1.0  0.52952  0.78798  0.71442  1.0000
  S   S187      1.0  0.62966  0.75284  0.66805  1.0000
  S   S188      1.0  0.58806  0.79522  0.66179  1.0000
  C   C794      1.0  0.59915  0.76433  0.52821  1.0000
  C   C795      1.0  0.53736  0.74054  0.86529  1.0000
  H   H1413     1.0  0.73781  0.67595  0.82819  1.0000
  H   H1414     1.0  0.79214  0.67333  0.92898  1.0000
  H   H1415     1.0  0.57465  0.79369  0.86437  1.0000
  C   C796      1.0  0.50376  0.77121  0.71973  1.0000
  H   H1416     1.0  0.52191  0.73653  0.71740  1.0000
  H   H1417     1.0  0.67258  0.75565  0.61715  1.0000
  H   H1418     1.0  0.83271  0.70408  0.69176  1.0000
  C   C797      1.0  0.66675  0.67558  0.65389  1.0000
  C   C798      1.0  0.64782  0.68780  0.67191  1.0000
  C   C799      1.0  0.64224  0.68193  0.70849  1.0000
  C   C800      1.0  0.76739  0.67605  0.86773  1.0000
  H   H1419     1.0  0.83732  0.67197  0.64344  1.0000
  H   H1420     1.0  0.67085  0.68028  0.62554  1.0000
  H   H1421     1.0  0.63733  0.70154  0.65718  1.0000
  H   H1422     1.0  0.81533  0.68500  0.72104  1.0000
  H   H1423     1.0  0.61644  0.77620  0.85665  1.0000
  H   H1424     1.0  0.65230  0.76320  0.79700  1.0000
  H   H1425     1.0  0.51947  0.70545  0.91177  1.0000
  H   H1426     1.0  0.72515  0.89728  0.86611  1.0000
  C   C801      1.0  0.64433  0.83194  0.85127  1.0000
  C   C802      1.0  0.62349  0.82498  0.83318  1.0000
  C   C803      1.0  0.62412  0.81649  0.79644  1.0000
  C   C804      1.0  0.64551  0.81566  0.77678  1.0000
  C   C805      1.0  0.66635  0.82282  0.79474  1.0000
  C   C806      1.0  0.66587  0.83057  0.83195  1.0000
  H   H1427     1.0  0.60668  0.82636  0.84759  1.0000
  H   H1428     1.0  0.60788  0.81138  0.78290  1.0000
  H   H1429     1.0  0.68290  0.82256  0.77966  1.0000
  H   H1430     1.0  0.68200  0.83615  0.84528  1.0000
  H   H1431     1.0  0.63480  0.73832  0.78254  1.0000
  H   H1432     1.0  0.72668  0.69671  0.67783  1.0000
  H   H1433     1.0  0.61561  0.93893  0.93992  1.0000
  H   H1434     1.0  0.74308  0.79303  0.74051  1.0000
  H   H1435     1.0  0.62073  0.92784  0.87419  1.0000
  H   H1436     1.0  0.62538  0.89634  0.88102  1.0000
  H   H1437     1.0  0.70728  0.77683  0.67325  1.0000
  H   H1438     1.0  0.76154  0.66015  0.88336  1.0000
  H   H1439     1.0  0.64997  0.73722  0.82669  1.0000
  H   H1440     1.0  0.61882  0.88592  0.75088  1.0000
  H   H1441     1.0  0.61338  0.90686  0.94774  1.0000
  H   H1442     1.0  0.49809  0.73078  0.91047  1.0000
  C   C807      1.0  0.57304  0.75808  0.83888  1.0000
  C   C808      1.0  0.60130  0.78921  0.52586  1.0000
  H   H1443     1.0  0.65648  0.98715  0.82394  1.0000
  H   H1444     1.0  0.53667  0.78950  0.85143  1.0000
  H   H1445     1.0  0.60624  0.86869  0.78808  1.0000
  C   C809      1.0  0.54512  0.73979  0.79656  1.0000
  N   N45       1.0  0.65213  0.91261  0.84691  1.0000
  C   C810      1.0  0.67547  0.90034  0.85875  1.0000
  C   C811      1.0  0.63488  0.91352  0.87904  1.0000
  H   H1446     1.0  0.67122  0.71159  0.78098  1.0000
  C   C812      1.0  0.65544  0.93741  0.83118  1.0000
  C   C813      1.0  0.66740  0.95551  0.85699  1.0000
  C   C814      1.0  0.69465  0.89692  0.82825  1.0000
  C   C815      1.0  0.64539  0.91689  0.91853  1.0000
  C   C816      1.0  0.53853  0.80329  0.51992  1.0000
  C   C817      1.0  0.71778  0.88563  0.84435  1.0000
  H   H1447     1.0  0.67210  0.88219  0.87029  1.0000
  H   H1448     1.0  0.68393  0.91003  0.88174  1.0000
  H   H1449     1.0  0.65276  0.89774  0.79133  1.0000
  H   H1450     1.0  0.66558  0.93631  0.80479  1.0000
  H   H1451     1.0  0.63792  0.94606  0.82331  1.0000
  H   H1452     1.0  0.68438  0.94809  0.86899  1.0000
  H   H1453     1.0  0.65506  0.96084  0.87968  1.0000
  H   H1454     1.0  0.68865  0.88466  0.80629  1.0000
  H   H1455     1.0  0.69892  0.91438  0.81549  1.0000
  H   H1456     1.0  0.65528  0.90014  0.92728  1.0000
  H   H1457     1.0  0.65792  0.93162  0.92007  1.0000
  H   H1458     1.0  0.63380  0.92376  0.97483  1.0000
  H   H1459     1.0  0.84470  0.66809  0.85971  1.0000
  C   C818      1.0  0.84793  0.66763  0.69960  1.0000
  H   H1460     1.0  0.70574  0.74263  0.94490  1.0000
  H   H1461     1.0  0.71464  0.86765  0.85652  1.0000
  H   H1462     1.0  0.73120  0.88334  0.82204  1.0000
  H   H1463     1.0  0.53513  0.69518  0.76562  1.0000
  C   C819      1.0  0.75245  0.72015  0.94640  1.0000
  H   H1464     1.0  0.70389  0.76036  0.61005  1.0000
  C   C820      1.0  0.74329  0.74493  0.93076  1.0000
  C   C821      1.0  0.62572  0.92192  0.94686  1.0000
  C   C822      1.0  0.72090  0.75421  0.95086  1.0000
  H   H1465     1.0  0.74332  0.67666  0.75368  1.0000
  H   H1466     1.0  0.73649  0.70942  0.95125  1.0000
  H   H1467     1.0  0.75974  0.71463  0.86606  1.0000
  H   H1468     1.0  0.75570  0.66917  0.70931  1.0000
  H   H1469     1.0  0.74451  0.71227  0.71104  1.0000
  H   H1470     1.0  0.73899  0.74399  0.90076  1.0000
  H   H1471     1.0  0.75708  0.75842  0.93470  1.0000
  H   H1472     1.0  0.97379  0.72145  0.97816  1.0000
  H   H1473     1.0  0.74210  0.78010  0.78677  1.0000
  H   H1474     1.0  0.78944  0.69053  0.96945  1.0000
  H   H1475     1.0  0.50019  0.81588  0.83432  1.0000
  C   C823      1.0  0.65563  0.66347  0.72680  1.0000
  N   N46       1.0  0.69977  0.73488  0.72134  1.0000
  C   C824      1.0  0.67544  0.73917  0.73814  1.0000
  C   C825      1.0  0.69791  0.73928  0.68000  1.0000
  C   C826      1.0  0.70687  0.70863  0.72724  1.0000
  C   C827      1.0  0.71852  0.75002  0.73875  1.0000
  C   C828      1.0  0.71022  0.77525  0.75320  1.0000
  C   C829      1.0  0.67314  0.73137  0.77936  1.0000
  C   C830      1.0  0.73010  0.69942  0.70789  1.0000
  C   C831      1.0  0.69203  0.76544  0.66713  1.0000
  C   C832      1.0  0.68772  0.76675  0.62522  1.0000
  C   C833      1.0  0.73151  0.78975  0.76474  1.0000
  C   C834      1.0  0.65120  0.74333  0.79742  1.0000
  Fe  Fe95      1.0  0.85111  0.66064  0.96525  1.0000
  H   H1476     1.0  0.66196  0.72918  0.72241  1.0000
  H   H1477     1.0  0.66927  0.75827  0.73544  1.0000
  H   H1478     1.0  0.71498  0.73434  0.66612  1.0000
  H   H1479     1.0  0.68440  0.72746  0.66774  1.0000
  H   H1480     1.0  0.69238  0.69719  0.71754  1.0000
  H   H1481     1.0  0.70913  0.70453  0.75733  1.0000
  H   H1482     1.0  0.72704  0.74051  0.76301  1.0000
  H   H1483     1.0  0.73328  0.75253  0.71880  1.0000
  H   H1484     1.0  0.69872  0.77360  0.77789  1.0000
  H   H1485     1.0  0.69983  0.78591  0.73226  1.0000
  H   H1486     1.0  0.52783  0.76976  0.63841  1.0000
  C   C835      1.0  0.64164  0.89750  0.81672  1.0000
  H   H1487     1.0  0.58316  0.74074  0.84391  1.0000
  C   C836      1.0  0.75837  0.69972  0.88659  1.0000
  C   C837      1.0  0.60697  0.88689  0.77542  1.0000
  H   H1488     1.0  0.73888  0.69785  0.89050  1.0000
  H   H1489     1.0  0.80570  0.70773  0.86411  1.0000
  H   H1490     1.0  0.79836  0.72807  0.94284  1.0000
  N   N47       1.0  0.77028  0.70627  0.92268  1.0000
  C   C838      1.0  0.49691  0.80330  0.81127  1.0000
  H   H1491     1.0  0.50037  0.75995  0.56656  1.0000
  H   H1492     1.0  0.76017  0.72334  0.97445  1.0000
  H   H1493     1.0  0.61533  0.92277  0.79018  1.0000
  C   C839      1.0  0.79085  0.72229  0.91584  1.0000
  H   H1494     1.0  0.84672  0.72133  0.87377  1.0000
  H   H1495     1.0  0.68596  0.97461  0.81352  1.0000
  C   C840      1.0  0.79285  0.79378  0.96853  1.0000
  H   H1496     1.0  0.55163  0.72885  0.87858  1.0000
  C   C841      1.0  0.81176  0.71168  0.89264  1.0000
  C   C842      1.0  0.83139  0.72973  0.88889  1.0000
  H   H1497     1.0  0.54974  0.75125  0.77242  1.0000
  H   H1498     1.0  0.54589  0.78738  0.53563  1.0000
  H   H1499     1.0  0.54217  0.78766  0.80292  1.0000
  H   H1500     1.0  0.72402  0.75461  0.98128  1.0000
  H   H1501     1.0  0.60320  0.90519  0.82711  1.0000
  H   H1502     1.0  0.50176  0.73269  0.84166  1.0000
  H   H1503     1.0  0.60165  0.79973  0.55093  1.0000
  C   C843      1.0  0.50696  0.77805  0.82080  1.0000
  C   C844      1.0  0.69523  0.96889  0.96312  1.0000
  H   H1504     1.0  0.82475  0.74592  0.87319  1.0000
  C   C845      1.0  0.51632  0.72383  0.85818  1.0000
  C   C846      1.0  0.57896  0.77461  0.87186  1.0000
  C   C847      1.0  0.50177  0.75929  0.59727  1.0000
  H   H1505     1.0  0.83772  0.73536  0.91661  1.0000
  C   C848      1.0  0.77916  0.68462  0.94491  1.0000
  C   C849      1.0  0.50569  0.71528  0.89462  1.0000
  C   C850      1.0  0.52474  0.77133  0.60805  1.0000
  S   S189      1.0  0.93075  0.69773  0.99751  1.0000
  H   H1506     1.0  0.81982  0.69516  0.90570  1.0000
  H   H1507     1.0  0.58875  0.89260  0.76592  1.0000
  C   C851      1.0  0.73916  0.67521  0.72377  1.0000
  H   H1508     1.0  0.84248  0.69690  0.73844  1.0000
  H   H1509     1.0  0.50516  0.81014  0.78556  1.0000
  H   H1510     1.0  0.56068  0.70588  0.82052  1.0000
  H   H1511     1.0  0.74466  0.66697  0.93973  1.0000
  C   C852      1.0  0.97930  0.70593  0.99480  1.0000
  H   H1512     1.0  0.54016  0.76231  0.59393  1.0000
  C   C853      1.0  0.61592  0.90480  0.80371  1.0000
  H   H1513     1.0  0.53177  0.75363  0.88710  1.0000
  H   H1514     1.0  0.56883  0.76997  0.89704  1.0000
  H   H1515     1.0  0.58000  0.72102  0.78950  1.0000
  H   H1516     1.0  0.50199  0.76606  0.79798  1.0000
  N   N48       1.0  0.54697  0.75375  0.83215  1.0000
  H   H1517     1.0  0.55574  0.71008  0.73552  1.0000
  C   C854      1.0  0.55383  0.70052  0.76239  1.0000
  H   H1518     1.0  0.52253  0.70761  0.84276  1.0000
  C   C855      1.0  0.75758  0.67437  0.82831  1.0000
  H   H1519     1.0  0.71605  0.77279  0.94125  1.0000
  C   C856      1.0  0.56121  0.71646  0.79440  1.0000
  H   H1520     1.0  0.52652  0.73503  0.79088  1.0000
  H   H1521     1.0  0.82188  0.76688  0.97091  1.0000
  C   C857      1.0  0.53425  0.77799  0.82681  1.0000
  H   H1522     1.0  0.52389  0.79064  0.60008  1.0000
  C   C858      1.0  0.80442  0.77221  0.98120  1.0000
  C   C859      1.0  0.60552  0.77264  0.88153  1.0000
  H   H1523     1.0  0.61053  0.75444  0.89256  1.0000
  H   H1524     1.0  0.86608  0.67350  0.69316  1.0000
  H   H1525     1.0  0.60968  0.78608  0.90299  1.0000
  H   H1526     1.0  0.50385  0.74036  0.60670  1.0000
  H   H1527     1.0  0.80155  0.80486  0.94838  1.0000
  C   C860      1.0  0.67299  0.97853  0.83603  1.0000
  S   S190      1.0  0.75645  0.82866  0.96508  1.0000
  H   H1528     1.0  0.49812  0.77237  0.84666  1.0000
  S   S191      1.0  0.68743  0.82050  0.97473  1.0000
  H   H1529     1.0  0.83265  0.66726  0.79321  1.0000
  C   C861      1.0  0.83368  0.68977  0.71340  1.0000
  H   H1530     1.0  0.70170  0.95540  0.94384  1.0000
  H   H1531     1.0  0.52866  0.81538  0.53933  1.0000
  H   H1532     1.0  0.76478  0.68870  0.81056  1.0000
  C   C862      1.0  0.75954  0.66833  0.95984  1.0000
  C   C863      1.0  0.77025  0.80126  0.98190  1.0000
  S   S192      1.0  0.65479  0.86877  0.99206  1.0000
  H   H1533     1.0  0.72567  0.66144  0.71991  1.0000
  H   H1534     1.0  0.55354  0.81319  0.50821  1.0000
  C   C864      1.0  0.68506  0.96166  0.99663  1.0000
  Fe  Fe96      1.0  0.68806  0.89012  0.99380  1.0000
  H   H1535     1.0  0.49114  0.70293  0.88866  1.0000
  H   H1536     1.0  0.68091  0.99142  0.85547  1.0000
