data_image0
_chemical_formula_structural       C3H2SC2H2C2H7CFeHCH2C5H5CH2CHCHC2SCH4NH4CHC2HCH2FeCH2SH2S2H2CHC3H5CHC2H4CH2SHC2FeH4NHSNHCSHCFeS2FeS2FeSFeS3C6H4C3H2C5H3CH6C2H2CH2CHSH6NC7H2C3H14CHC2H5FeH2FeCNCH2CH3CH6CHC2H2FeHCSH4CNHC2H5CH3CH6C3HCHC4HC3HCHC2HFeHSCH5CH2CH2CH2CH3CH4NH4CSH3C2SHC2HFeS2HC2FeS2FeS2FeHFeS3C6H4C2H3CHCH3C3HCH4CH3CHCSH3C3H2CH3CH3C2NH3C3H2CH4CHCHCH2CH3C2HCH4SHC2H4C2H7CHNH2NH6C2H2FeH2CH3CHC2H2CH3CHC2NCHCH2CHCHCSCHSFeSFeHCS2CNC6H4C6H4CH2CH4NC3H5CHCH7C2H4CH4C2H10C2H3CH2C2HCH5C2H3SCSH3C2N2CHC2HC2HSHC2H11CH2SHCHCH4CHCHCH5CH3SH2SH3CHCHCSFeSHSFeSCH7C5HSH4CH3CH5CH6CH3CSC4HC4H12CSHFeHCHCH4CH3CHC2H5CHCH2C2H3FeHCH3CFeH2CFeSFeS2FeS2FeSFeS3FeS2H3CHCH2C6H4C6H4C2H3CH4CHC2HNCHC4H2CHCH2C2HCH4CH2SH12C2HC2H3CHC2H6C2HCH2C4H3C4NC2H2NHC2H3CH4C2H7CH5CH2CHCH5CHCH7C2HNC3HSHCH12CH7C5H2CH4SH2SFeHSH2SFeS2FeS2FeHFeHS2HCSH2CH4CH4CHC6H2CNC2H5C2H3C2H4CS2HCHCH3C2HCH2C4H4CFeH5FeH4C3H6CH3C2FeS3CH4CH2FeCSH3SHFeS2FeS2FeS2FeSFeS3C5H2C3H7C6H3C3H4C3HCH5NHCNC2HC3H6CH6CH9CHCH3CH6CH2C2H4SHC3HC2H6CH4C3HCNFeNH3CH3CH3CHCHCHC2HCH2CHC2HC2H3C2H3CH6C2H3SH5CH4CHNHSH2SHCH2C4HCH4CHCHSH3FeS2FeS2FeHFeS3FeS2HFeHFeCS2C2SC3H2C6H4CHC6H4CHCFeCNHC3HC2HCH2CHCH12CHCHNH4CH3SHC3HCH3CH6C2HSH2CH7CH2CHC7HCH8CHC4HCHNHSHFeHCH7CH7CH2CSH2CSH3CHSC2H3C3H2C2NCH3CFeH3SH2C2H2CH3CH3FeSHCHNCHFeHCH4C2H2C2H2C4H2C2HCHCH3CH2C2SH4CHC2H3C2H6CH3C2H4CH2CHCSH2CHCHS2FeSH2FeS2H3CH2S2HFeHC3FeHC3H4C2HCH2FeHCHCHNH2CS2HFeH2C2H3CSCHC4HNCHCHC4HCH10CH13FeHCH8CHC
_chemical_formula_sum              "C576 H1024 S128 Fe64 N32"
_cell_length_a       35.7675
_cell_length_b       35.6419
_cell_length_c       46.0459
_cell_angle_alpha    89.5774
_cell_angle_beta     90.4726
_cell_angle_gamma    89.2298

_space_group_name_H-M_alt    "P 1"
_space_group_IT_number       1

loop_
  _space_group_symop_operation_xyz
  'x, y, z'

loop_
  _atom_site_type_symbol
  _atom_site_label
  _atom_site_symmetry_multiplicity
  _atom_site_fract_x
  _atom_site_fract_y
  _atom_site_fract_z
  _atom_site_occupancy
  C   C1        1.0  0.49522  0.37202  0.12101  1.0000
  C   C2        1.0  0.28831  0.08871  0.31687  1.0000
  C   C3        1.0  0.45413  0.05532  0.03206  1.0000
  H   H1        1.0  0.32955  0.26322  0.33919  1.0000
  H   H2        1.0  0.44749  0.44480  0.05876  1.0000
  S   S1        1.0  0.47658  0.09868  0.14135  1.0000
  C   C4        1.0  0.49655  0.35157  0.09197  1.0000
  C   C5        1.0  0.03977  0.48233  0.33555  1.0000
  H   H3        1.0  0.35249  0.09549  0.34143  1.0000
  H   H4        1.0  0.39441  0.49501  0.02565  1.0000
  C   C6        1.0  0.40717  0.14618  0.33572  1.0000
  C   C7        1.0  0.49094  0.22956  0.10267  1.0000
  H   H5        1.0  0.02363  0.43906  0.28721  1.0000
  H   H6        1.0  0.38065  0.08045  0.31271  1.0000
  H   H7        1.0  0.44290  0.09855  0.32214  1.0000
  H   H8        1.0  0.39752  0.09411  0.26826  1.0000
  H   H9        1.0  0.48236  0.29884  0.11046  1.0000
  H   H10       1.0  0.29084  0.06464  0.33223  1.0000
  H   H11       1.0  0.33342  0.15931  0.34722  1.0000
  C   C8        1.0  0.45189  0.02370  0.29563  1.0000
  Fe  Fe1       1.0  0.47824  0.04526  0.16705  1.0000
  H   H12       1.0  0.46903  0.35609  0.08109  1.0000
  C   C9        1.0  0.38420  0.15094  0.28464  1.0000
  H   H13       1.0  0.32092  0.21908  0.04856  1.0000
  H   H14       1.0  0.47606  0.17712  0.12298  1.0000
  C   C10       1.0  0.43689  0.28507  0.06028  1.0000
  C   C11       1.0  0.40968  0.12253  0.26858  1.0000
  C   C12       1.0  0.04110  0.49385  0.30303  1.0000
  C   C13       1.0  0.31526  0.24445  0.03498  1.0000
  C   C14       1.0  0.49921  0.42400  0.04054  1.0000
  H   H15       1.0  0.43246  0.29779  0.08186  1.0000
  H   H16       1.0  0.47680  0.32225  0.03983  1.0000
  H   H17       1.0  0.46172  0.23995  0.10314  1.0000
  H   H18       1.0  0.42542  0.16902  0.32768  1.0000
  H   H19       1.0  0.50334  0.05238  0.28713  1.0000
  C   C15       1.0  0.45998  0.42690  0.04253  1.0000
  H   H20       1.0  0.43774  0.12121  0.27885  1.0000
  H   H21       1.0  0.43272  0.25431  0.06185  1.0000
  C   C16       1.0  0.43953  0.02907  0.23522  1.0000
  H   H22       1.0  0.31824  0.16552  0.31066  1.0000
  C   C17       1.0  0.10215  0.50961  0.34721  1.0000
  H   H23       1.0  0.31884  0.11292  0.28137  1.0000
  C   C18       1.0  0.35344  0.20971  0.32597  1.0000
  C   C19       1.0  0.47219  0.04345  0.24752  1.0000
  S   S2        1.0  0.46773  0.08503  0.06058  1.0000
  C   C20       1.0  0.45960  0.01644  0.03370  1.0000
  H   H24       1.0  0.17896  0.49977  0.34579  1.0000
  H   H25       1.0  0.32916  0.06503  0.28828  1.0000
  H   H26       1.0  0.38810  0.13481  0.22498  1.0000
  H   H27       1.0  0.42802  0.16260  0.23564  1.0000
  N   N1        1.0  0.37392  0.14100  0.31550  1.0000
  H   H28       1.0  0.49759  0.47326  0.12388  1.0000
  H   H29       1.0  0.16130  0.49217  0.30945  1.0000
  H   H30       1.0  0.37890  0.21456  0.33926  1.0000
  H   H31       1.0  0.06989  0.49069  0.29448  1.0000
  C   C21       1.0  0.43691  0.40719  0.02327  1.0000
  H   H32       1.0  0.32408  0.46725  0.33820  1.0000
  C   C22       1.0  0.35893  0.10172  0.31822  1.0000
  C   C23       1.0  0.47821  0.04096  0.27770  1.0000
  H   H33       1.0  0.17101  0.20019  0.02920  1.0000
  C   C24       1.0  0.41521  0.13442  0.23694  1.0000
  H   H34       1.0  0.43416  0.11405  0.22607  1.0000
  H   H35       1.0  0.30974  0.26858  0.04954  1.0000
  Fe  Fe2       1.0  0.49314  0.06393  0.10307  1.0000
  C   C25       1.0  0.16345  0.48000  0.33171  1.0000
  H   H36       1.0  0.46808  0.49689  0.16834  1.0000
  H   H37       1.0  0.25743  0.23208  0.02929  1.0000
  S   S3        1.0  0.10258  0.46995  0.02558  1.0000
  H   H38       1.0  0.48938  0.40231  0.11705  1.0000
  H   H39       1.0  0.37861  0.29498  0.04910  1.0000
  S   S4        1.0  0.46092  0.01935  0.33318  1.0000
  S   S5        1.0  0.43137  0.03018  0.19747  1.0000
  H   H40       1.0  0.35834  0.22053  0.30367  1.0000
  H   H41       1.0  0.47272  0.36061  0.13487  1.0000
  C   C26       1.0  0.12454  0.47256  0.34385  1.0000
  H   H42       1.0  0.35875  0.15586  0.27104  1.0000
  C   C27       1.0  0.34319  0.16751  0.32512  1.0000
  C   C28       1.0  0.48982  0.18677  0.10281  1.0000
  C   C29       1.0  0.32410  0.09243  0.29912  1.0000
  H   H43       1.0  0.39886  0.17827  0.28397  1.0000
  H   H44       1.0  0.49266  0.05664  0.23382  1.0000
  H   H45       1.0  0.01762  0.47699  0.26153  1.0000
  H   H46       1.0  0.11041  0.45293  0.32892  1.0000
  H   H47       1.0  0.26427  0.08348  0.30211  1.0000
  C   C30       1.0  0.50504  0.30908  0.09639  1.0000
  H   H48       1.0  0.34041  0.25060  0.02185  1.0000
  C   C31       1.0  0.47632  0.29297  0.04832  1.0000
  C   C32       1.0  0.01550  0.46912  0.28482  1.0000
  H   H49       1.0  0.47357  0.17641  0.08390  1.0000
  H   H50       1.0  0.04913  0.45258  0.33627  1.0000
  H   H51       1.0  0.28232  0.11450  0.32944  1.0000
  H   H52       1.0  0.17971  0.45327  0.33062  1.0000
  C   C33       1.0  0.32181  0.23313  0.33913  1.0000
  H   H53       1.0  0.29558  0.23013  0.32631  1.0000
  H   H54       1.0  0.50485  0.23843  0.12314  1.0000
  S   S6        1.0  0.38779  0.41274  0.02492  1.0000
  H   H55       1.0  0.47908  0.27510  0.02876  1.0000
  C   C34       1.0  0.43248  0.11144  0.34228  1.0000
  C   C35       1.0  0.40652  0.30091  0.03996  1.0000
  Fe  Fe3       1.0  0.03905  0.47479  0.02457  1.0000
  H   H56       1.0  0.40896  0.33179  0.03783  1.0000
  H   H57       1.0  0.48394  0.14236  0.34936  1.0000
  H   H58       1.0  0.18191  0.46596  0.02229  1.0000
  H   H59       1.0  0.50555  0.22764  0.05700  1.0000
  N   N2        1.0  0.50866  0.28618  0.06901  1.0000
  H   H60       1.0  0.40847  0.28804  0.01809  1.0000
  S   S7        1.0  0.08754  0.44153  0.53155  1.0000
  N   N3        1.0  0.20555  0.47992  0.44369  1.0000
  H   H61       1.0  0.12238  0.45718  0.65948  1.0000
  C   C36       1.0  0.34122  0.07887  0.48770  1.0000
  S   S8        1.0  0.30187  0.08083  0.39606  1.0000
  H   H62       1.0  0.28365  0.47106  0.45290  1.0000
  C   C37       1.0  0.49683  0.46106  0.41911  1.0000
  Fe  Fe4       1.0  0.33267  0.29033  0.44207  1.0000
  S   S9        1.0  0.30828  0.30446  0.48560  1.0000
  S   S10       1.0  0.36714  0.23788  0.43288  1.0000
  Fe  Fe5       1.0  0.32101  0.37118  0.41944  1.0000
  S   S11       1.0  0.29737  0.39148  0.46148  1.0000
  S   S12       1.0  0.32677  0.40662  0.37912  1.0000
  Fe  Fe6       1.0  0.34327  0.35639  0.48243  1.0000
  S   S13       1.0  0.37897  0.37602  0.52028  1.0000
  Fe  Fe7       1.0  0.26463  0.33822  0.46043  1.0000
  S   S14       1.0  0.20103  0.33739  0.46179  1.0000
  S   S15       1.0  0.36921  0.34087  0.44015  1.0000
  S   S16       1.0  0.28653  0.31934  0.41699  1.0000
  C   C38       1.0  0.31991  0.12474  0.40566  1.0000
  C   C39       1.0  0.35836  0.13087  0.40577  1.0000
  C   C40       1.0  0.37218  0.16623  0.41311  1.0000
  C   C41       1.0  0.34780  0.19546  0.42104  1.0000
  C   C42       1.0  0.30926  0.18957  0.42062  1.0000
  C   C43       1.0  0.29536  0.15426  0.41280  1.0000
  H   H63       1.0  0.37743  0.10851  0.39989  1.0000
  H   H64       1.0  0.40193  0.17101  0.41257  1.0000
  H   H65       1.0  0.29022  0.21202  0.42661  1.0000
  H   H66       1.0  0.26550  0.14969  0.41258  1.0000
  C   C44       1.0  0.48401  0.35815  0.48987  1.0000
  C   C45       1.0  0.44504  0.35960  0.49222  1.0000
  C   C46       1.0  0.42821  0.37228  0.51765  1.0000
  H   H67       1.0  0.47981  0.30346  0.63264  1.0000
  H   H68       1.0  0.42824  0.35098  0.47420  1.0000
  C   C47       1.0  0.11904  0.41334  0.51147  1.0000
  C   C48       1.0  0.18292  0.38996  0.50390  1.0000
  C   C49       1.0  0.17055  0.36785  0.48084  1.0000
  C   C50       1.0  0.13252  0.36917  0.47287  1.0000
  C   C51       1.0  0.10690  0.39198  0.48797  1.0000
  H   H69       1.0  0.12274  0.35202  0.45515  1.0000
  H   H70       1.0  0.07763  0.39233  0.48186  1.0000
  H   H71       1.0  0.44373  0.34560  0.40389  1.0000
  C   C52       1.0  0.33214  0.45507  0.38373  1.0000
  H   H72       1.0  0.12835  0.45892  0.36534  1.0000
  H   H73       1.0  0.34208  0.45185  0.42985  1.0000
  H   H74       1.0  0.46302  0.22509  0.55394  1.0000
  H   H75       1.0  0.16153  0.44931  0.46508  1.0000
  H   H76       1.0  0.34090  0.04783  0.44713  1.0000
  H   H77       1.0  0.21940  0.42072  0.44750  1.0000
  C   C53       1.0  0.45106  0.38273  0.54115  1.0000
  C   C54       1.0  0.49035  0.38084  0.53896  1.0000
  H   H78       1.0  0.43834  0.39257  0.56097  1.0000
  H   H79       1.0  0.24690  0.44472  0.42206  1.0000
  C   C55       1.0  0.15716  0.41242  0.51928  1.0000
  H   H80       1.0  0.16676  0.42887  0.53745  1.0000
  H   H81       1.0  0.21208  0.38898  0.51033  1.0000
  C   C56       1.0  0.32961  0.47887  0.35943  1.0000
  H   H82       1.0  0.42037  0.24295  0.49527  1.0000
  S   S17       1.0  0.48142  0.08240  0.62686  1.0000
  H   H83       1.0  0.28980  0.46551  0.50637  1.0000
  H   H84       1.0  0.14694  0.47351  0.43321  1.0000
  H   H85       1.0  0.47956  0.21595  0.51864  1.0000
  H   H86       1.0  0.49212  0.17768  0.47579  1.0000
  H   H87       1.0  0.23759  0.40922  0.37764  1.0000
  H   H88       1.0  0.33420  0.07249  0.51054  1.0000
  N   N4        1.0  0.39449  0.12360  0.50381  1.0000
  C   C57       1.0  0.39304  0.11013  0.53495  1.0000
  C   C58       1.0  0.38195  0.09224  0.48425  1.0000
  C   C59       1.0  0.43495  0.13134  0.49693  1.0000
  C   C60       1.0  0.37162  0.15895  0.49826  1.0000
  C   C61       1.0  0.33575  0.16473  0.51653  1.0000
  C   C62       1.0  0.41189  0.13595  0.55765  1.0000
  C   C63       1.0  0.44350  0.14374  0.46535  1.0000
  H   H89       1.0  0.23266  0.48951  0.38298  1.0000
  H   H90       1.0  0.50506  0.40636  0.44136  1.0000
  C   C64       1.0  0.31321  0.19880  0.50561  1.0000
  C   C65       1.0  0.39938  0.12659  0.58848  1.0000
  C   C66       1.0  0.48476  0.15343  0.46200  1.0000
  H   H91       1.0  0.40695  0.08202  0.53712  1.0000
  H   H92       1.0  0.36387  0.10547  0.54188  1.0000
  H   H93       1.0  0.38387  0.10055  0.46105  1.0000
  H   H94       1.0  0.40092  0.06740  0.48713  1.0000
  H   H95       1.0  0.45262  0.10625  0.50197  1.0000
  H   H96       1.0  0.44568  0.15415  0.51087  1.0000
  H   H97       1.0  0.38872  0.18430  0.50211  1.0000
  H   H98       1.0  0.36340  0.16079  0.47492  1.0000
  H   H99       1.0  0.34310  0.16991  0.53959  1.0000
  H   H100      1.0  0.31729  0.14012  0.51589  1.0000
  H   H101      1.0  0.44276  0.13189  0.55704  1.0000
  H   H102      1.0  0.40554  0.16601  0.55315  1.0000
  H   H103      1.0  0.42672  0.16907  0.45940  1.0000
  H   H104      1.0  0.43770  0.12104  0.44967  1.0000
  C   C67       1.0  0.34423  0.50901  0.41407  1.0000
  H   H105      1.0  0.22095  0.37396  0.40272  1.0000
  C   C68       1.0  0.05934  0.49047  0.38705  1.0000
  C   C69       1.0  0.21800  0.44317  0.43051  1.0000
  H   H106      1.0  0.49288  0.33217  0.60204  1.0000
  H   H107      1.0  0.33059  0.22439  0.50603  1.0000
  H   H108      1.0  0.30311  0.19422  0.48306  1.0000
  H   H109      1.0  0.28852  0.20348  0.51967  1.0000
  H   H110      1.0  0.36900  0.13245  0.59093  1.0000
  Fe  Fe8       1.0  0.34168  0.03160  0.39006  1.0000
  H   H111      1.0  0.41493  0.14403  0.60428  1.0000
  H   H112      1.0  0.50968  0.44690  0.46457  1.0000
  Fe  Fe9       1.0  0.50562  0.04812  0.59103  1.0000
  C   C70       1.0  0.27078  0.49310  0.46633  1.0000
  N   N5        1.0  0.45464  0.46160  0.41755  1.0000
  C   C71       1.0  0.43897  0.42285  0.41323  1.0000
  H   H113      1.0  0.50225  0.24644  0.60767  1.0000
  H   H114      1.0  0.41674  0.08996  0.35457  1.0000
  C   C72       1.0  0.42899  0.45337  0.47045  1.0000
  H   H115      1.0  0.41289  0.48128  0.38630  1.0000
  H   H116      1.0  0.40783  0.42456  0.41204  1.0000
  H   H117      1.0  0.44524  0.40422  0.43210  1.0000
  C   C73       1.0  0.05607  0.44724  0.39086  1.0000
  H   H118      1.0  0.45838  0.47591  0.37173  1.0000
  H   H119      1.0  0.40488  0.43528  0.46490  1.0000
  H   H120      1.0  0.47394  0.28326  0.50442  1.0000
  H   H121      1.0  0.39775  0.15572  0.35741  1.0000
  H   H122      1.0  0.44627  0.34775  0.36484  1.0000
  H   H123      1.0  0.02771  0.43839  0.38383  1.0000
  C   C74       1.0  0.21239  0.39780  0.38836  1.0000
  H   H124      1.0  0.45702  0.29486  0.54000  1.0000
  C   C75       1.0  0.44310  0.48521  0.39141  1.0000
  C   C76       1.0  0.48006  0.23722  0.53614  1.0000
  H   H125      1.0  0.32157  0.10063  0.47893  1.0000
  H   H126      1.0  0.40467  0.28866  0.50636  1.0000
  Fe  Fe10      1.0  0.02675  0.45163  0.51798  1.0000
  H   H127      1.0  0.45710  0.13371  0.38197  1.0000
  C   C77       1.0  0.05701  0.47322  0.63615  1.0000
  S   S18       1.0  0.40188  0.02974  0.40416  1.0000
  H   H128      1.0  0.31680  0.22429  0.36194  1.0000
  H   H129      1.0  0.45280  0.43492  0.47658  1.0000
  H   H130      1.0  0.39385  0.49480  0.49225  1.0000
  H   H131      1.0  0.40525  0.09655  0.59361  1.0000
  C   C78       1.0  0.06120  0.43522  0.42261  1.0000
  N   N6        1.0  0.06197  0.50605  0.35639  1.0000
  H   H132      1.0  0.18376  0.45108  0.39098  1.0000
  C   C79       1.0  0.45256  0.40164  0.38589  1.0000
  C   C80       1.0  0.41817  0.47607  0.49719  1.0000
  H   H133      1.0  0.12783  0.44904  0.62193  1.0000
  H   H134      1.0  0.41103  0.49336  0.43905  1.0000
  H   H135      1.0  0.50284  0.12895  0.46806  1.0000
  H   H136      1.0  0.07502  0.41840  0.61875  1.0000
  H   H137      1.0  0.04199  0.45125  0.43691  1.0000
  C   C81       1.0  0.22859  0.48642  0.47080  1.0000
  H   H138      1.0  0.05491  0.40492  0.42501  1.0000
  H   H139      1.0  0.26651  0.50448  0.40885  1.0000
  H   H140      1.0  0.16705  0.41559  0.41541  1.0000
  C   C82       1.0  0.10627  0.50898  0.47078  1.0000
  H   H141      1.0  0.46578  0.27068  0.58755  1.0000
  H   H142      1.0  0.50858  0.16328  0.53438  1.0000
  H   H143      1.0  0.42332  0.12243  0.66447  1.0000
  H   H144      1.0  0.48342  0.39815  0.38617  1.0000
  H   H145      1.0  0.05183  0.44831  0.59248  1.0000
  H   H146      1.0  0.50882  0.45324  0.39773  1.0000
  C   C83       1.0  0.47325  0.03166  0.49231  1.0000
  C   C84       1.0  0.16526  0.47589  0.45272  1.0000
  C   C85       1.0  0.43577  0.36250  0.38437  1.0000
  H   H147      1.0  0.05639  0.46170  0.65864  1.0000
  C   C86       1.0  0.14895  0.50812  0.47150  1.0000
  H   H148      1.0  0.44388  0.41670  0.36572  1.0000
  C   C87       1.0  0.16368  0.49203  0.63787  1.0000
  C   C88       1.0  0.33956  0.47015  0.41108  1.0000
  C   C89       1.0  0.01537  0.41938  0.62146  1.0000
  C   C90       1.0  0.12547  0.47186  0.63821  1.0000
  H   H149      1.0  0.07677  0.43143  0.37791  1.0000
  C   C91       1.0  0.46628  0.12178  0.36094  1.0000
  C   C92       1.0  0.41953  0.26270  0.51381  1.0000
  C   C93       1.0  0.49948  0.30580  0.61420  1.0000
  H   H150      1.0  0.48343  0.09614  0.36548  1.0000
  C   C94       1.0  0.05213  0.43934  0.61556  1.0000
  H   H151      1.0  0.49031  0.16104  0.43901  1.0000
  C   C95       1.0  0.45919  0.27225  0.52367  1.0000
  C   C96       1.0  0.19254  0.42818  0.40594  1.0000
  H   H152      1.0  0.40342  0.25032  0.53194  1.0000
  Fe  Fe11      1.0  0.48190  0.02900  0.65279  1.0000
  H   H153      1.0  0.09043  0.43950  0.42988  1.0000
  S   S19       1.0  0.49250  0.06234  0.54425  1.0000
  C   C97       1.0  0.49550  0.27181  0.59444  1.0000
  H   H154      1.0  0.50782  0.38923  0.55701  1.0000
  H   H155      1.0  0.49104  0.05266  0.48277  1.0000
  H   H156      1.0  0.19322  0.38709  0.37135  1.0000
  H   H157      1.0  0.32199  0.49868  0.49133  1.0000
  H   H158      1.0  0.22534  0.46235  0.48620  1.0000
  C   C98       1.0  0.43819  0.47949  0.44441  1.0000
  H   H159      1.0  0.49656  0.34832  0.46998  1.0000
  H   H160      1.0  0.40479  0.36453  0.38268  1.0000
  C   C99       1.0  0.50680  0.36887  0.51310  1.0000
  H   H161      1.0  0.45652  0.50234  0.45236  1.0000
  H   H162      1.0  0.44209  0.49312  0.50471  1.0000
  C   C100      1.0  0.46980  0.02923  0.52256  1.0000
  H   H163      1.0  0.19696  0.44090  0.63203  1.0000
  H   H164      1.0  0.41034  0.45670  0.51508  1.0000
  C   C101      1.0  0.29196  0.49321  0.49529  1.0000
  H   H165      1.0  0.03386  0.50180  0.39796  1.0000
  H   H166      1.0  0.03151  0.49123  0.63431  1.0000
  H   H167      1.0  0.15782  0.50385  0.49452  1.0000
  C   C102      1.0  0.33466  0.04310  0.47040  1.0000
  H   H168      1.0  0.08345  0.49998  0.40038  1.0000
  H   H169      1.0  0.22247  0.48009  0.64623  1.0000
  H   H170      1.0  0.09502  0.48089  0.47602  1.0000
  H   H171      1.0  0.50747  0.48966  0.42335  1.0000
  N   N7        1.0  0.09161  0.49624  0.63170  1.0000
  H   H172      1.0  0.10043  0.48668  0.58573  1.0000
  H   H173      1.0  0.30493  0.03480  0.47211  1.0000
  H   H174      1.0  0.19117  0.45483  0.66952  1.0000
  H   H175      1.0  0.35257  0.01967  0.47883  1.0000
  C   C103      1.0  0.19541  0.46519  0.64698  1.0000
  S   S20       1.0  0.01216  0.50542  0.49440  1.0000
  H   H176      1.0  0.01229  0.39554  0.60625  1.0000
  H   H177      1.0  0.21858  0.51170  0.48254  1.0000
  H   H178      1.0  0.16998  0.50241  0.61569  1.0000
  C   C104      1.0  0.23880  0.51121  0.39941  1.0000
  C   C105      1.0  0.09415  0.51022  0.60078  1.0000
  S   S21       1.0  0.43261  0.01610  0.68114  1.0000
  H   H179      1.0  0.01490  0.40830  0.64407  1.0000
  C   C106      1.0  0.20792  0.51286  0.42286  1.0000
  C   C107      1.0  0.17075  0.48756  0.90932  1.0000
  H   H180      1.0  0.45192  0.18091  0.78161  1.0000
  Fe  Fe12      1.0  0.36375  0.06718  0.87692  1.0000
  S   S22       1.0  0.42473  0.05704  0.88721  1.0000
  S   S23       1.0  0.33552  0.12407  0.87199  1.0000
  H   H181      1.0  0.47888  0.11664  0.69566  1.0000
  C   C108      1.0  0.13259  0.43519  0.01090  1.0000
  C   C109      1.0  0.51016  0.10868  0.76202  1.0000
  Fe  Fe13      1.0  0.34731  0.31377  0.95510  1.0000
  S   S24       1.0  0.32247  0.33234  0.99730  1.0000
  S   S25       1.0  0.37596  0.25676  0.95697  1.0000
  Fe  Fe14      1.0  0.32945  0.38986  0.92622  1.0000
  S   S26       1.0  0.30404  0.41379  0.96655  1.0000
  S   S27       1.0  0.33226  0.42164  0.88370  1.0000
  Fe  Fe15      1.0  0.35327  0.38578  0.98937  1.0000
  H   H182      1.0  0.45375  0.45602  0.89141  1.0000
  Fe  Fe16      1.0  0.27600  0.35793  0.97025  1.0000
  S   S28       1.0  0.21420  0.34619  0.97558  1.0000
  S   S29       1.0  0.38045  0.36609  0.94850  1.0000
  S   S30       1.0  0.29886  0.33529  0.92849  1.0000
  C   C110      1.0  0.34963  0.16136  0.89426  1.0000
  C   C111      1.0  0.37343  0.15524  0.91811  1.0000
  C   C112      1.0  0.38187  0.18501  0.93680  1.0000
  C   C113      1.0  0.36681  0.22107  0.93168  1.0000
  C   C114      1.0  0.34388  0.22743  0.90735  1.0000
  C   C115      1.0  0.33514  0.19757  0.88879  1.0000
  H   H183      1.0  0.38461  0.12741  0.92255  1.0000
  H   H184      1.0  0.39969  0.17995  0.95557  1.0000
  H   H185      1.0  0.33243  0.25519  0.90309  1.0000
  H   H186      1.0  0.31676  0.20244  0.87033  1.0000
  C   C116      1.0  0.45979  0.39924  0.90565  1.0000
  C   C117      1.0  0.46902  0.15477  0.78480  1.0000
  H   H187      1.0  0.26227  0.09160  0.93593  1.0000
  H   H188      1.0  0.09829  0.46055  0.95556  1.0000
  H   H189      1.0  0.43624  0.36737  0.98847  1.0000
  C   C118      1.0  0.11036  0.47080  0.93488  1.0000
  H   H190      1.0  0.42144  0.11543  0.78819  1.0000
  C   C119      1.0  0.18323  0.38115  0.98872  1.0000
  H   H191      1.0  0.41097  0.12245  0.84046  1.0000
  H   H192      1.0  0.45925  0.16333  0.69711  1.0000
  H   H193      1.0  0.47519  0.38975  0.88613  1.0000
  C   C120      1.0  0.44479  0.12604  0.80168  1.0000
  C   C121      1.0  0.28146  0.23856  0.01510  1.0000
  C   C122      1.0  0.33252  0.47096  0.88508  1.0000
  H   H194      1.0  0.25068  0.44491  0.88281  1.0000
  C   C123      1.0  0.33286  0.48959  0.91166  1.0000
  H   H195      1.0  0.22617  0.49533  0.84235  1.0000
  H   H196      1.0  0.25225  0.15943  0.93585  1.0000
  H   H197      1.0  0.16231  0.44137  0.94151  1.0000
  H   H198      1.0  0.27581  0.26526  0.00335  1.0000
  C   C124      1.0  0.19659  0.41412  0.00104  1.0000
  H   H199      1.0  0.49047  0.48016  0.71874  1.0000
  H   H200      1.0  0.44346  0.10069  0.74219  1.0000
  H   H201      1.0  0.22638  0.41861  0.00259  1.0000
  C   C125      1.0  0.45125  0.13018  0.73728  1.0000
  H   H202      1.0  0.44982  0.15374  0.84370  1.0000
  C   C126      1.0  0.25808  0.23342  0.95093  1.0000
  S   S31       1.0  0.34304  0.01960  0.90466  1.0000
  H   H203      1.0  0.49212  0.16225  0.79990  1.0000
  H   H204      1.0  0.06664  0.50249  0.84639  1.0000
  H   H205      1.0  0.49429  0.08444  0.77056  1.0000
  C   C127      1.0  0.23538  0.22831  0.92236  1.0000
  C   C128      1.0  0.42766  0.14371  0.82873  1.0000
  C   C129      1.0  0.22307  0.37548  0.88492  1.0000
  H   H206      1.0  0.21029  0.28452  0.92272  1.0000
  H   H207      1.0  0.25919  0.12229  0.98467  1.0000
  C   C130      1.0  0.22595  0.26586  0.90772  1.0000
  H   H208      1.0  0.24672  0.25840  0.96226  1.0000
  H   H209      1.0  0.28677  0.24192  0.94473  1.0000
  H   H210      1.0  0.11016  0.49114  0.82885  1.0000
  C   C131      1.0  0.46625  0.44105  0.91038  1.0000
  H   H211      1.0  0.29186  0.18065  0.00845  1.0000
  H   H212      1.0  0.41720  0.44917  0.93600  1.0000
  H   H213      1.0  0.48433  0.19821  0.73894  1.0000
  C   C132      1.0  0.49490  0.50413  0.94903  1.0000
  C   C133      1.0  0.45512  0.13366  0.70377  1.0000
  N   N8        1.0  0.48422  0.14159  0.75600  1.0000
  H   H214      1.0  0.31146  0.10240  0.93395  1.0000
  H   H215      1.0  0.25203  0.21153  0.90670  1.0000
  H   H216      1.0  0.20890  0.21337  0.92640  1.0000
  C   C134      1.0  0.42357  0.02659  0.76831  1.0000
  C   C135      1.0  0.44762  0.45459  0.93869  1.0000
  C   C136      1.0  0.50423  0.17416  0.74218  1.0000
  H   H217      1.0  0.22275  0.45829  0.94849  1.0000
  H   H218      1.0  0.20843  0.37591  0.86356  1.0000
  C   C137      1.0  0.33179  0.49193  0.85917  1.0000
  H   H219      1.0  0.10094  0.45214  0.91712  1.0000
  H   H220      1.0  0.43531  0.10159  0.00501  1.0000
  H   H221      1.0  0.40869  0.16751  0.82271  1.0000
  H   H222      1.0  0.29907  0.17403  0.94089  1.0000
  C   C138      1.0  0.49236  0.38168  0.00012  1.0000
  H   H223      1.0  0.20834  0.26115  0.88815  1.0000
  C   C139      1.0  0.28799  0.09665  0.94892  1.0000
  H   H224      1.0  0.50915  0.48430  0.99346  1.0000
  C   C140      1.0  0.45338  0.38390  0.00258  1.0000
  H   H225      1.0  0.47496  0.50692  0.76384  1.0000
  H   H226      1.0  0.49154  0.03171  0.93780  1.0000
  C   C141      1.0  0.28216  0.12948  0.96967  1.0000
  H   H227      1.0  0.31678  0.20982  0.98400  1.0000
  H   H228      1.0  0.29503  0.07076  0.96150  1.0000
  H   H229      1.0  0.42606  0.14754  0.74257  1.0000
  C   C142      1.0  0.15303  0.47057  0.93713  1.0000
  C   C143      1.0  0.23389  0.47999  0.93364  1.0000
  H   H230      1.0  0.21637  0.34891  0.89635  1.0000
  C   C144      1.0  0.27330  0.16648  0.95281  1.0000
  H   H231      1.0  0.41923  0.06177  0.96279  1.0000
  H   H232      1.0  0.22655  0.17403  0.00438  1.0000
  H   H233      1.0  0.33371  0.47371  0.93169  1.0000
  H   H234      1.0  0.17978  0.40648  0.90577  1.0000
  S   S32       1.0  0.36388  0.03292  0.83615  1.0000
  H   H235      1.0  0.20661  0.17081  0.96928  1.0000
  C   C145      1.0  0.43945  0.07149  0.00642  1.0000
  C   C146      1.0  0.43040  0.04901  0.98247  1.0000
  H   H236      1.0  0.38608  0.46727  0.97542  1.0000
  H   H237      1.0  0.28111  0.49884  0.97974  1.0000
  H   H238      1.0  0.20478  0.44649  0.86753  1.0000
  H   H239      1.0  0.45689  0.43561  0.95669  1.0000
  C   C147      1.0  0.22041  0.44630  0.88850  1.0000
  C   C148      1.0  0.21048  0.40870  0.90339  1.0000
  H   H240      1.0  0.25375  0.37617  0.88134  1.0000
  H   H241      1.0  0.42958  0.39400  0.90196  1.0000
  H   H242      1.0  0.33153  0.47763  0.83851  1.0000
  H   H243      1.0  0.26318  0.47072  0.92960  1.0000
  H   H244      1.0  0.22428  0.40543  0.92493  1.0000
  H   H245      1.0  0.08933  0.39779  0.99703  1.0000
  H   H246      1.0  0.25195  0.27982  0.90074  1.0000
  C   C149      1.0  0.39389  0.49707  0.97821  1.0000
  H   H247      1.0  0.23461  0.49184  0.99387  1.0000
  N   N9        1.0  0.25987  0.19940  0.97069  1.0000
  H   H248      1.0  0.38886  0.03715  0.73049  1.0000
  H   H249      1.0  0.49689  0.44527  0.91095  1.0000
  N   N10       1.0  0.21238  0.48172  0.90530  1.0000
  H   H250      1.0  0.13388  0.35000  0.97772  1.0000
  H   H251      1.0  0.30853  0.13213  0.98237  1.0000
  H   H252      1.0  0.18410  0.23552  0.96907  1.0000
  H   H253      1.0  0.46990  0.38245  0.92466  1.0000
  H   H254      1.0  0.09953  0.49963  0.93081  1.0000
  H   H255      1.0  0.14241  0.23518  0.01094  1.0000
  C   C150      1.0  0.22239  0.19006  0.98372  1.0000
  C   C151      1.0  0.14442  0.37548  0.98721  1.0000
  H   H256      1.0  0.46210  0.10167  0.80909  1.0000
  H   H257      1.0  0.32261  0.03937  0.76798  1.0000
  Fe  Fe17      1.0  0.42322  0.01945  0.84816  1.0000
  H   H258      1.0  0.16078  0.48732  0.95644  1.0000
  H   H259      1.0  0.44873  0.48123  0.99255  1.0000
  C   C152      1.0  0.11913  0.40247  0.99814  1.0000
  H   H260      1.0  0.15524  0.47663  0.89015  1.0000
  H   H261      1.0  0.41276  0.09181  0.69446  1.0000
  H   H262      1.0  0.20878  0.24657  0.00159  1.0000
  C   C153      1.0  0.25241  0.51101  0.98107  1.0000
  H   H263      1.0  0.07075  0.50289  0.69223  1.0000
  C   C154      1.0  0.41947  0.12105  0.68835  1.0000
  C   C155      1.0  0.17136  0.44086  0.01223  1.0000
  H   H264      1.0  0.27744  0.02662  0.75309  1.0000
  H   H265      1.0  0.28300  0.03468  0.79152  1.0000
  C   C156      1.0  0.28885  0.20572  0.99410  1.0000
  H   H266      1.0  0.39549  0.13960  0.69409  1.0000
  H   H267      1.0  0.40288  0.03681  0.78330  1.0000
  H   H268      1.0  0.12065  0.50695  0.68991  1.0000
  C   C157      1.0  0.19518  0.22349  0.98976  1.0000
  H   H269      1.0  0.14615  0.18866  0.99602  1.0000
  C   C158      1.0  0.16168  0.21091  0.00758  1.0000
  C   C159      1.0  0.41574  0.02697  0.73836  1.0000
  N   N11       1.0  0.45385  0.49502  0.94670  1.0000
  C   C160      1.0  0.43692  0.50142  0.97626  1.0000
  H   H270      1.0  0.34916  0.50379  0.00937  1.0000
  C   C161      1.0  0.29681  0.02312  0.77192  1.0000
  H   H271      1.0  0.50895  0.50140  0.92778  1.0000
  H   H272      1.0  0.50473  0.36426  0.98350  1.0000
  C   C162      1.0  0.08810  0.51310  0.83119  1.0000
  H   H273      1.0  0.25843  0.51266  0.88696  1.0000
  C   C163      1.0  0.44301  0.01542  0.71852  1.0000
  H   H274      1.0  0.40901  0.50761  0.91593  1.0000
  C   C164      1.0  0.45845  0.01389  0.77857  1.0000
  S   S33       1.0  0.47010  0.01469  0.81578  1.0000
  C   C165      1.0  0.37943  0.50999  0.00769  1.0000
  H   H275      1.0  0.11640  0.58294  0.12169  1.0000
  S   S34       1.0  0.05238  0.67106  0.25424  1.0000
  Fe  Fe18      1.0  0.32369  0.66408  0.30437  1.0000
  S   S35       1.0  0.35514  0.67998  0.26379  1.0000
  Fe  Fe19      1.0  0.24976  0.63512  0.32734  1.0000
  H   H276      1.0  0.09819  0.54126  0.22796  1.0000
  C   C166      1.0  0.44896  0.77694  0.28562  1.0000
  S   S36       1.0  0.26787  0.69220  0.31245  1.0000
  S   S37       1.0  0.30371  0.60599  0.31538  1.0000
  C   C167      1.0  0.39404  0.86737  0.30245  1.0000
  N   N12       1.0  0.49644  0.56430  0.19966  1.0000
  C   C168      1.0  0.09158  0.65388  0.27397  1.0000
  C   C169      1.0  0.12756  0.66630  0.26699  1.0000
  C   C170      1.0  0.15911  0.65263  0.28247  1.0000
  C   C171      1.0  0.15471  0.62656  0.30499  1.0000
  C   C172      1.0  0.11879  0.61427  0.31190  1.0000
  C   C173      1.0  0.08736  0.62793  0.29653  1.0000
  H   H277      1.0  0.13106  0.68622  0.24942  1.0000
  H   H278      1.0  0.18686  0.66134  0.27652  1.0000
  H   H279      1.0  0.49975  0.96922  0.21983  1.0000
  H   H280      1.0  0.05986  0.61855  0.30224  1.0000
  C   C174      1.0  0.40404  0.67343  0.26522  1.0000
  C   C175      1.0  0.42127  0.65534  0.28890  1.0000
  C   C176      1.0  0.46032  0.65070  0.28978  1.0000
  C   C177      1.0  0.38834  0.90099  0.02980  1.0000
  C   C178      1.0  0.46521  0.68223  0.24330  1.0000
  C   C179      1.0  0.42608  0.68668  0.24234  1.0000
  H   H281      1.0  0.40452  0.64469  0.30650  1.0000
  H   H282      1.0  0.38650  0.75580  0.26168  1.0000
  H   H283      1.0  0.29768  0.84182  0.30893  1.0000
  H   H284      1.0  0.41286  0.70057  0.22390  1.0000
  C   C180      1.0  0.34833  0.80328  0.26048  1.0000
  H   H285      1.0  0.36444  0.86303  0.29651  1.0000
  H   H286      1.0  0.44424  0.74627  0.28881  1.0000
  C   C181      1.0  0.02528  0.63489  0.16681  1.0000
  H   H287      1.0  0.32369  0.75571  0.23814  1.0000
  H   H288      1.0  0.05000  0.60289  0.11682  1.0000
  H   H289      1.0  0.44851  0.90310  0.23401  1.0000
  H   H290      1.0  0.29818  0.79940  0.23389  1.0000
  N   N13       1.0  0.41246  0.79862  0.28754  1.0000
  C   C182      1.0  0.38859  0.78697  0.26203  1.0000
  C   C183      1.0  0.45859  0.92630  0.22007  1.0000
  C   C184      1.0  0.32658  0.78651  0.23508  1.0000
  H   H291      1.0  0.33251  0.79682  0.28041  1.0000
  H   H292      1.0  0.47346  0.63667  0.30820  1.0000
  H   H293      1.0  0.48384  0.66908  0.15964  1.0000
  H   H294      1.0  0.36765  0.80357  0.31877  1.0000
  H   H295      1.0  0.13047  0.72946  0.30441  1.0000
  C   C185      1.0  0.12693  0.75485  0.31813  1.0000
  H   H296      1.0  0.40180  0.79507  0.24116  1.0000
  C   C186      1.0  0.42077  0.84018  0.28620  1.0000
  H   H297      1.0  0.48200  0.69274  0.22569  1.0000
  H   H298      1.0  0.34098  0.79204  0.21422  1.0000
  H   H299      1.0  0.43662  0.61839  0.20681  1.0000
  H   H300      1.0  0.08453  0.74966  0.26646  1.0000
  H   H301      1.0  0.28741  0.77723  0.32784  1.0000
  H   H302      1.0  0.35989  0.90739  0.03809  1.0000
  H   H303      1.0  0.45769  0.76462  0.23949  1.0000
  C   C187      1.0  0.49719  0.64865  0.14470  1.0000
  C   C188      1.0  0.08507  0.53586  0.10687  1.0000
  H   H304      1.0  0.12689  0.73107  0.17649  1.0000
  H   H305      1.0  0.03562  0.56919  0.14242  1.0000
  H   H306      1.0  0.45984  0.60402  0.15373  1.0000
  H   H307      1.0  0.34897  0.83404  0.25685  1.0000
  C   C189      1.0  0.18001  0.73120  0.34710  1.0000
  H   H308      1.0  0.47107  0.00378  0.05333  1.0000
  H   H309      1.0  0.47078  0.81141  0.24927  1.0000
  H   H310      1.0  0.39886  0.99598  0.29680  1.0000
  H   H311      1.0  0.38388  0.75727  0.31362  1.0000
  C   C190      1.0  0.29839  0.83640  0.33206  1.0000
  C   C191      1.0  0.48242  0.66433  0.26711  1.0000
  H   H312      1.0  0.42183  0.84982  0.26317  1.0000
  H   H313      1.0  0.44915  0.84580  0.29523  1.0000
  H   H314      1.0  0.21973  0.77990  0.31908  1.0000
  H   H315      1.0  0.10393  0.67090  0.19496  1.0000
  H   H316      1.0  0.37963  0.58219  0.19507  1.0000
  H   H317      1.0  0.12583  0.79991  0.28450  1.0000
  H   H318      1.0  0.37580  0.60614  0.22924  1.0000
  H   H319      1.0  0.43297  0.91427  0.30136  1.0000
  H   H320      1.0  0.47821  0.53457  0.14371  1.0000
  H   H321      1.0  0.44866  0.53227  0.21307  1.0000
  C   C192      1.0  0.19478  0.75364  0.28182  1.0000
  C   C193      1.0  0.49057  0.94692  0.23496  1.0000
  H   H322      1.0  0.48506  0.65299  0.12264  1.0000
  H   H323      1.0  0.06519  0.57216  0.24596  1.0000
  H   H324      1.0  0.11532  0.59421  0.32930  1.0000
  C   C194      1.0  0.22681  0.76673  0.26260  1.0000
  H   H325      1.0  0.46786  0.91488  0.19891  1.0000
  H   H326      1.0  0.15240  0.69265  0.16042  1.0000
  C   C195      1.0  0.29231  0.80000  0.34271  1.0000
  C   C196      1.0  0.06832  0.54993  0.22931  1.0000
  H   H327      1.0  0.02789  0.68143  0.13467  1.0000
  C   C197      1.0  0.39350  0.78687  0.31526  1.0000
  H   H328      1.0  0.11664  0.71773  0.13961  1.0000
  H   H329      1.0  0.46830  0.78522  0.30344  1.0000
  H   H330      1.0  0.44147  0.59313  0.24075  1.0000
  H   H331      1.0  0.16877  0.75485  0.26854  1.0000
  H   H332      1.0  0.20027  0.72402  0.28780  1.0000
  C   C198      1.0  0.49039  0.60846  0.15484  1.0000
  C   C199      1.0  0.47070  0.78178  0.25680  1.0000
  H   H333      1.0  0.49797  0.62511  0.20000  1.0000
  H   H334      1.0  0.44137  0.55696  0.18013  1.0000
  H   H335      1.0  0.10628  0.58961  0.18771  1.0000
  S   S38       1.0  0.31447  0.91068  0.33696  1.0000
  C   C200      1.0  0.05388  0.56404  0.19981  1.0000
  S   S39       1.0  0.48896  0.00943  0.12778  1.0000
  H   H336      1.0  0.22890  0.74843  0.24325  1.0000
  H   H337      1.0  0.22182  0.79611  0.25517  1.0000
  H   H338      1.0  0.25386  0.76501  0.27463  1.0000
  C   C201      1.0  0.49098  0.51359  0.15871  1.0000
  C   C202      1.0  0.10685  0.78614  0.30006  1.0000
  N   N14       1.0  0.16372  0.76540  0.33180  1.0000
  N   N15       1.0  0.06295  0.61687  0.16143  1.0000
  C   C203      1.0  0.05867  0.58866  0.13744  1.0000
  H   H339      1.0  0.33286  0.53577  0.34351  1.0000
  C   C204      1.0  0.09126  0.64557  0.15240  1.0000
  C   C205      1.0  0.07639  0.59840  0.18930  1.0000
  H   H340      1.0  0.50147  0.58817  0.24280  1.0000
  C   C206      1.0  0.45464  0.55934  0.20184  1.0000
  C   C207      1.0  0.09517  0.67987  0.17278  1.0000
  H   H341      1.0  0.18253  0.70731  0.33178  1.0000
  S   S40       1.0  0.35301  0.00897  0.34571  1.0000
  H   H342      1.0  0.05409  0.75603  0.29724  1.0000
  C   C208      1.0  0.09393  0.56484  0.13021  1.0000
  C   C209      1.0  0.12462  0.70689  0.16152  1.0000
  H   H343      1.0  0.11081  0.51976  0.10129  1.0000
  H   H344      1.0  0.39669  0.86341  0.32631  1.0000
  H   H345      1.0  0.40502  0.88746  0.04755  1.0000
  H   H346      1.0  0.05918  0.79322  0.27086  1.0000
  H   H347      1.0  0.08522  0.65601  0.12997  1.0000
  H   H348      1.0  0.11955  0.63232  0.15121  1.0000
  H   H349      1.0  0.43494  0.94615  0.21581  1.0000
  H   H350      1.0  0.07560  0.61892  0.20738  1.0000
  H   H351      1.0  0.06847  0.69587  0.17444  1.0000
  H   H352      1.0  0.47899  0.96041  0.25460  1.0000
  H   H353      1.0  0.06391  0.51578  0.11479  1.0000
  C   C210      1.0  0.43267  0.59090  0.21770  1.0000
  H   H354      1.0  0.43482  0.81499  0.34343  1.0000
  H   H355      1.0  0.07420  0.54980  0.08677  1.0000
  S   S41       1.0  0.19313  0.60728  0.32440  1.0000
  H   H356      1.0  0.09545  0.80801  0.31472  1.0000
  C   C211      1.0  0.07419  0.77021  0.28266  1.0000
  H   H357      1.0  0.04891  0.55910  0.33473  1.0000
  C   C212      1.0  0.41284  0.01265  0.25327  1.0000
  H   H358      1.0  0.02394  0.57134  0.20246  1.0000
  H   H359      1.0  0.43713  0.76454  0.34452  1.0000
  H   H360      1.0  0.38491  0.55633  0.22897  1.0000
  H   H361      1.0  0.39832  0.91481  0.27235  1.0000
  C   C213      1.0  0.40340  0.90829  0.29568  1.0000
  H   H362      1.0  0.40197  0.92767  0.02368  1.0000
  C   C214      1.0  0.19127  0.77834  0.30927  1.0000
  H   H363      1.0  0.10666  0.74646  0.33507  1.0000
  C   C215      1.0  0.39072  0.58323  0.21764  1.0000
  H   H364      1.0  0.14793  0.82290  0.34073  1.0000
  H   H365      1.0  0.38527  0.92722  0.30864  1.0000
  H   H366      1.0  0.10479  0.54944  0.14957  1.0000
  H   H367      1.0  0.46189  0.53882  0.34822  1.0000
  H   H368      1.0  0.18473  0.80754  0.30187  1.0000
  C   C216      1.0  0.50632  0.60133  0.18578  1.0000
  H   H369      1.0  0.03176  0.52318  0.29956  1.0000
  H   H370      1.0  0.02606  0.65217  0.18687  1.0000
  H   H371      1.0  0.05610  0.54047  0.18429  1.0000
  S   S42       1.0  0.34719  0.67561  0.34873  1.0000
  H   H372      1.0  0.38755  0.00142  0.24387  1.0000
  H   H373      1.0  0.10392  0.52562  0.32640  1.0000
  S   S43       1.0  0.02273  0.53596  0.02227  1.0000
  H   H374      1.0  0.51147  0.89934  0.25967  1.0000
  H   H375      1.0  0.50470  0.58969  0.13921  1.0000
  H   H376      1.0  0.05177  0.52537  0.23622  1.0000
  C   C217      1.0  0.41778  0.78920  0.34325  1.0000
  H   H377      1.0  0.50229  0.53824  0.24211  1.0000
  C   C218      1.0  0.41911  0.00973  0.28333  1.0000
  H   H378      1.0  0.51014  0.87042  0.17366  1.0000
  C   C219      1.0  0.51132  0.76881  0.26018  1.0000
  S   S44       1.0  0.40622  0.94867  0.46408  1.0000
  Fe  Fe20      1.0  0.38936  0.97140  0.41975  1.0000
  S   S45       1.0  0.28054  0.74904  0.38664  1.0000
  H   H379      1.0  0.13344  0.79075  0.36749  1.0000
  S   S46       1.0  0.34979  0.58095  0.39392  1.0000
  Fe  Fe21      1.0  0.34487  0.95194  0.36541  1.0000
  S   S47       1.0  0.40530  0.94360  0.37780  1.0000
  C   C220      1.0  0.48482  0.86049  0.46795  1.0000
  H   H380      1.0  0.48843  0.94662  0.56345  1.0000
  H   H381      1.0  0.41186  0.78800  0.39017  1.0000
  H   H382      1.0  0.27502  0.52080  0.45573  1.0000
  H   H383      1.0  0.47903  0.86516  0.52545  1.0000
  H   H384      1.0  0.49523  0.58133  0.63280  1.0000
  H   H385      1.0  0.15277  0.73853  0.38982  1.0000
  H   H386      1.0  0.46267  0.88170  0.46262  1.0000
  C   C221      1.0  0.42772  0.97700  0.51666  1.0000
  C   C222      1.0  0.29157  0.79344  0.37266  1.0000
  C   C223      1.0  0.29807  0.82307  0.39184  1.0000
  C   C224      1.0  0.30600  0.85908  0.38113  1.0000
  C   C225      1.0  0.49507  0.88949  0.51748  1.0000
  H   H387      1.0  0.40980  0.95601  0.52606  1.0000
  S   S48       1.0  0.32799  0.97494  0.40866  1.0000
  H   H388      1.0  0.29737  0.81809  0.41504  1.0000
  H   H389      1.0  0.31148  0.88175  0.39601  1.0000
  H   H390      1.0  0.45661  0.00905  0.45093  1.0000
  H   H391      1.0  0.43368  0.73180  0.64238  1.0000
  C   C226      1.0  0.05909  0.57264  0.37946  1.0000
  H   H392      1.0  0.11102  0.55074  0.64567  1.0000
  H   H393      1.0  0.04497  0.62368  0.35493  1.0000
  H   H394      1.0  0.46726  0.86451  0.57491  1.0000
  C   C227      1.0  0.30590  0.86582  0.35120  1.0000
  H   H395      1.0  0.43846  0.93738  0.60284  1.0000
  H   H396      1.0  0.08951  0.57732  0.37735  1.0000
  H   H397      1.0  0.18121  0.51696  0.41055  1.0000
  H   H398      1.0  0.47945  0.71495  0.63213  1.0000
  H   H399      1.0  0.04081  0.56124  0.54972  1.0000
  C   C228      1.0  0.17843  0.68425  0.38885  1.0000
  H   H400      1.0  0.37598  0.81461  0.37131  1.0000
  H   H401      1.0  0.37545  0.76380  0.37082  1.0000
  H   H402      1.0  0.25225  0.57041  0.39845  1.0000
  H   H403      1.0  0.09573  0.52921  0.48712  1.0000
  H   H404      1.0  0.50601  0.73500  0.67869  1.0000
  H   H405      1.0  0.28077  0.51550  0.50968  1.0000
  C   C229      1.0  0.46235  0.89517  0.57409  1.0000
  H   H406      1.0  0.44370  0.00035  0.55807  1.0000
  H   H407      1.0  0.49570  0.53146  0.67222  1.0000
  H   H408      1.0  0.09579  0.51804  0.44908  1.0000
  C   C230      1.0  0.44703  0.00186  0.53476  1.0000
  S   S49       1.0  0.49986  0.99358  0.61515  1.0000
  C   C231      1.0  0.49835  0.91717  0.56672  1.0000
  C   C232      1.0  0.15706  0.79711  0.35275  1.0000
  C   C233      1.0  0.24149  0.54875  0.38346  1.0000
  C   C234      1.0  0.44633  0.90712  0.60334  1.0000
  H   H409      1.0  0.47166  0.83533  0.47766  1.0000
  C   C235      1.0  0.47910  0.74783  0.67154  1.0000
  C   C236      1.0  0.05937  0.53189  0.58881  1.0000
  C   C237      1.0  0.06607  0.54599  0.55789  1.0000
  C   C238      1.0  0.08964  0.52968  0.65163  1.0000
  H   H410      1.0  0.47818  0.53478  0.40042  1.0000
  H   H411      1.0  0.13012  0.70546  0.36628  1.0000
  H   H412      1.0  0.34968  0.52076  0.43526  1.0000
  H   H413      1.0  0.21151  0.53938  0.43520  1.0000
  H   H414      1.0  0.06230  0.54464  0.64886  1.0000
  H   H415      1.0  0.41270  0.54210  0.35690  1.0000
  H   H416      1.0  0.44048  0.90102  0.55729  1.0000
  H   H417      1.0  0.03449  0.51372  0.58824  1.0000
  H   H418      1.0  0.26101  0.54625  0.36495  1.0000
  H   H419      1.0  0.48490  0.77363  0.65887  1.0000
  H   H420      1.0  0.37132  0.91193  0.66516  1.0000
  H   H421      1.0  0.16165  0.67387  0.40734  1.0000
  C   C239      1.0  0.34176  0.53280  0.38974  1.0000
  S   S50       1.0  0.26787  0.64473  0.37332  1.0000
  H   H422      1.0  0.42991  0.54080  0.41001  1.0000
  Fe  Fe22      1.0  0.29019  0.69935  0.35765  1.0000
  H   H423      1.0  0.48113  0.89241  0.68279  1.0000
  C   C240      1.0  0.39486  0.91919  0.67987  1.0000
  H   H424      1.0  0.01378  0.54332  0.35873  1.0000
  C   C241      1.0  0.39370  0.78882  0.37050  1.0000
  H   H425      1.0  0.42082  0.89078  0.60802  1.0000
  H   H426      1.0  0.17314  0.86621  0.37846  1.0000
  H   H427      1.0  0.20713  0.84845  0.40433  1.0000
  H   H428      1.0  0.05289  0.55671  0.60231  1.0000
  C   C242      1.0  0.04460  0.54502  0.35604  1.0000
  H   H429      1.0  0.15929  0.83341  0.40661  1.0000
  H   H430      1.0  0.20920  0.73639  0.35449  1.0000
  H   H431      1.0  0.20134  0.78471  0.38543  1.0000
  C   C243      1.0  0.19139  0.80834  0.37146  1.0000
  H   H432      1.0  0.05011  0.63007  0.39352  1.0000
  C   C244      1.0  0.43070  0.97987  0.48636  1.0000
  C   C245      1.0  0.18191  0.84112  0.39139  1.0000
  H   H433      1.0  0.45573  0.69301  0.66193  1.0000
  H   H434      1.0  0.08999  0.56552  0.55737  1.0000
  H   H435      1.0  0.46698  0.90184  0.62110  1.0000
  H   H436      1.0  0.11809  0.52958  0.59853  1.0000
  H   H437      1.0  0.47356  0.91127  0.51163  1.0000
  C   C246      1.0  0.46067  0.72021  0.65081  1.0000
  H   H438      1.0  0.05370  0.56207  0.40175  1.0000
  C   C247      1.0  0.03951  0.61089  0.37652  1.0000
  H   H439      1.0  0.44373  0.57888  0.36754  1.0000
  H   H440      1.0  0.07182  0.52209  0.54320  1.0000
  C   C248      1.0  0.15756  0.71639  0.37345  1.0000
  C   C249      1.0  0.45364  0.00715  0.47424  1.0000
  H   H441      1.0  0.18324  0.66062  0.37369  1.0000
  H   H442      1.0  0.49860  0.85211  0.44743  1.0000
  H   H443      1.0  0.21377  0.55785  0.37473  1.0000
  Fe  Fe23      1.0  0.32282  0.61976  0.36062  1.0000
  H   H444      1.0  0.11809  0.52648  0.36317  1.0000
  C   C250      1.0  0.44916  0.52823  0.39385  1.0000
  H   H445      1.0  0.41367  0.93839  0.66799  1.0000
  H   H446      1.0  0.16416  0.51619  0.65288  1.0000
  H   H447      1.0  0.15872  0.53596  0.46407  1.0000
  C   C251      1.0  0.33437  0.51766  0.36242  1.0000
  Fe  Fe24      1.0  0.41221  0.00235  0.36100  1.0000
  H   H448      1.0  0.21475  0.81731  0.35747  1.0000
  H   H449      1.0  0.20571  0.69405  0.39746  1.0000
  C   C252      1.0  0.44142  0.54804  0.36479  1.0000
  Fe  Fe25      1.0  0.40418  0.00682  0.91210  1.0000
  S   S51       1.0  0.04088  0.67466  0.77344  1.0000
  Fe  Fe26      1.0  0.35214  0.65996  0.78792  1.0000
  S   S52       1.0  0.36961  0.67411  0.83315  1.0000
  S   S53       1.0  0.39034  0.65229  0.74920  1.0000
  Fe  Fe27      1.0  0.26857  0.66268  0.80310  1.0000
  S   S54       1.0  0.28022  0.67888  0.84959  1.0000
  S   S55       1.0  0.21541  0.63761  0.78416  1.0000
  Fe  Fe28      1.0  0.32354  0.71768  0.83113  1.0000
  S   S56       1.0  0.34926  0.76994  0.85040  1.0000
  Fe  Fe29      1.0  0.32539  0.63471  0.84817  1.0000
  S   S57       1.0  0.33252  0.59909  0.88870  1.0000
  S   S58       1.0  0.30821  0.70548  0.78451  1.0000
  S   S59       1.0  0.31194  0.61622  0.80304  1.0000
  Fe  Fe30      1.0  0.34900  0.98419  0.86464  1.0000
  S   S60       1.0  0.40861  0.96829  0.87387  1.0000
  S   S61       1.0  0.30501  0.94276  0.85004  1.0000
  H   H450      1.0  0.40412  0.94809  0.72032  1.0000
  H   H451      1.0  0.06270  0.65568  0.83415  1.0000
  H   H452      1.0  0.22034  0.54136  0.89828  1.0000
  C   C253      1.0  0.33175  0.54992  0.88650  1.0000
  H   H453      1.0  0.41088  0.89330  0.68554  1.0000
  C   C254      1.0  0.47698  0.85634  0.72122  1.0000
  H   H454      1.0  0.45944  0.92004  0.91227  1.0000
  H   H455      1.0  0.33136  0.54737  0.83981  1.0000
  C   C255      1.0  0.33545  0.81746  0.84899  1.0000
  C   C256      1.0  0.36311  0.84439  0.85318  1.0000
  C   C257      1.0  0.35380  0.88267  0.85363  1.0000
  C   C258      1.0  0.31677  0.89454  0.85001  1.0000
  C   C259      1.0  0.28889  0.86766  0.84593  1.0000
  C   C260      1.0  0.29819  0.82908  0.84546  1.0000
  H   H456      1.0  0.39196  0.83554  0.85616  1.0000
  H   H457      1.0  0.37536  0.90296  0.85680  1.0000
  H   H458      1.0  0.26005  0.87665  0.84322  1.0000
  H   H459      1.0  0.27660  0.80841  0.84264  1.0000
  C   C261      1.0  0.08967  0.66506  0.77570  1.0000
  C   C262      1.0  0.10458  0.63061  0.76686  1.0000
  C   C263      1.0  0.14314  0.62316  0.76937  1.0000
  C   C264      1.0  0.16746  0.65002  0.78077  1.0000
  C   C265      1.0  0.15279  0.68475  0.78948  1.0000
  C   C266      1.0  0.11400  0.69220  0.78693  1.0000
  H   H460      1.0  0.08655  0.60980  0.75767  1.0000
  H   H461      1.0  0.15422  0.59633  0.76240  1.0000
  H   H462      1.0  0.17126  0.70575  0.79816  1.0000
  H   H463      1.0  0.10278  0.71904  0.79371  1.0000
  C   C267      1.0  0.43939  0.65614  0.75142  1.0000
  C   C268      1.0  0.45968  0.65709  0.72553  1.0000
  H   H464      1.0  0.21390  0.55692  0.81942  1.0000
  H   H465      1.0  0.08190  0.62950  0.90856  1.0000
  H   H466      1.0  0.42451  0.57748  0.76397  1.0000
  C   C269      1.0  0.45856  0.65789  0.77796  1.0000
  H   H467      1.0  0.44496  0.65532  0.70499  1.0000
  H   H468      1.0  0.33179  0.54332  0.93294  1.0000
  H   H469      1.0  0.39621  0.75891  0.94519  1.0000
  H   H470      1.0  0.44318  0.65696  0.79808  1.0000
  C   C270      1.0  0.45092  0.99399  0.00963  1.0000
  H   H471      1.0  0.13224  0.66421  0.89217  1.0000
  C   C271      1.0  0.47940  0.54805  0.72749  1.0000
  C   C272      1.0  0.49786  0.66033  0.77843  1.0000
  H   H472      1.0  0.11743  0.54286  0.86465  1.0000
  N   N16       1.0  0.36255  0.87248  0.94962  1.0000
  C   C273      1.0  0.36488  0.83052  0.95445  1.0000
  H   H473      1.0  0.14638  0.60397  0.85988  1.0000
  C   C274      1.0  0.32529  0.88116  0.93518  1.0000
  C   C275      1.0  0.39290  0.88620  0.92983  1.0000
  C   C276      1.0  0.43359  0.87766  0.93963  1.0000
  C   C277      1.0  0.36365  0.80577  0.92683  1.0000
  H   H474      1.0  0.49999  0.79458  0.77664  1.0000
  H   H475      1.0  0.32195  0.94094  0.94908  1.0000
  C   C278      1.0  0.49871  0.66065  0.72599  1.0000
  H   H476      1.0  0.33479  0.89687  0.98709  1.0000
  C   C279      1.0  0.33207  0.52895  0.91234  1.0000
  H   H477      1.0  0.30345  0.96332  0.73232  1.0000
  H   H478      1.0  0.33308  0.93410  0.91157  1.0000
  C   C280      1.0  0.33149  0.53138  0.85985  1.0000
  C   C281      1.0  0.43010  0.54700  0.76702  1.0000
  H   H479      1.0  0.39088  0.82233  0.96627  1.0000
  C   C282      1.0  0.35519  0.91170  0.72497  1.0000
  H   H480      1.0  0.32347  0.86803  0.91339  1.0000
  H   H481      1.0  0.38894  0.87506  0.90760  1.0000
  H   H482      1.0  0.39084  0.91718  0.92712  1.0000
  H   H483      1.0  0.43829  0.84736  0.94403  1.0000
  C   C283      1.0  0.30639  0.98166  0.77703  1.0000
  H   H484      1.0  0.33641  0.80871  0.91530  1.0000
  H   H485      1.0  0.38635  0.81309  0.91164  1.0000
  S   S62       1.0  0.02111  0.56857  0.76012  1.0000
  H   H486      1.0  0.42635  0.76712  0.68914  1.0000
  H   H487      1.0  0.37425  0.92208  0.97518  1.0000
  H   H488      1.0  0.26707  0.91163  0.90298  1.0000
  H   H489      1.0  0.38323  0.54067  0.01020  1.0000
  H   H490      1.0  0.42370  0.54697  0.93608  1.0000
  H   H491      1.0  0.44776  0.72891  0.70815  1.0000
  H   H492      1.0  0.25457  0.53731  0.93937  1.0000
  H   H493      1.0  0.44483  0.93313  0.80124  1.0000
  H   H494      1.0  0.26976  0.95916  0.91571  1.0000
  H   H495      1.0  0.41256  0.53632  0.86694  1.0000
  H   H496      1.0  0.48872  0.55322  0.77463  1.0000
  H   H497      1.0  0.34159  0.82154  0.96876  1.0000
  C   C284      1.0  0.05976  0.57071  0.93898  1.0000
  C   C285      1.0  0.32500  0.96397  0.74996  1.0000
  H   H498      1.0  0.38712  0.95709  0.77506  1.0000
  C   C286      1.0  0.13948  0.66293  0.86882  1.0000
  C   C287      1.0  0.18191  0.66630  0.86646  1.0000
  H   H499      1.0  0.12670  0.63031  0.83069  1.0000
  H   H500      1.0  0.12660  0.68766  0.85755  1.0000
  H   H501      1.0  0.04879  0.56966  0.85039  1.0000
  C   C288      1.0  0.38010  0.93850  0.70715  1.0000
  H   H502      1.0  0.19078  0.66430  0.84349  1.0000
  C   C289      1.0  0.42375  0.75724  0.75908  1.0000
  C   C290      1.0  0.39430  0.76938  0.78106  1.0000
  H   H503      1.0  0.41037  0.73645  0.74467  1.0000
  H   H504      1.0  0.36387  0.96359  0.69967  1.0000
  H   H505      1.0  0.30225  0.86884  0.94818  1.0000
  H   H506      1.0  0.38524  0.74446  0.79364  1.0000
  H   H507      1.0  0.40582  0.78999  0.79664  1.0000
  H   H508      1.0  0.49554  0.73648  0.74254  1.0000
  C   C291      1.0  0.40731  0.90049  0.77393  1.0000
  C   C292      1.0  0.48027  0.81898  0.70428  1.0000
  H   H509      1.0  0.19083  0.69386  0.87501  1.0000
  C   C293      1.0  0.28944  0.83342  0.77295  1.0000
  H   H510      1.0  0.01371  0.63532  0.88674  1.0000
  H   H511      1.0  0.42095  0.89591  0.82008  1.0000
  C   C294      1.0  0.43430  0.52118  0.92509  1.0000
  C   C295      1.0  0.10526  0.54901  0.84288  1.0000
  C   C296      1.0  0.47063  0.53731  0.75951  1.0000
  C   C297      1.0  0.08743  0.60399  0.89533  1.0000
  H   H512      1.0  0.42473  0.53975  0.79010  1.0000
  H   H513      1.0  0.32528  0.97978  0.79616  1.0000
  H   H514      1.0  0.20790  0.53064  0.95264  1.0000
  C   C298      1.0  0.49413  0.88910  0.70466  1.0000
  C   C299      1.0  0.37428  0.92882  0.77630  1.0000
  C   C300      1.0  0.31609  0.92340  0.92984  1.0000
  C   C301      1.0  0.45754  0.53619  0.89919  1.0000
  N   N17       1.0  0.34273  0.92557  0.75435  1.0000
  C   C302      1.0  0.38628  0.87473  0.00374  1.0000
  C   C303      1.0  0.06037  0.57312  0.90579  1.0000
  H   H515      1.0  0.36937  0.78172  0.76988  1.0000
  H   H516      1.0  0.45572  0.87429  0.89562  1.0000
  N   N18       1.0  0.46904  0.78340  0.72008  1.0000
  H   H517      1.0  0.07485  0.51834  0.80958  1.0000
  C   C304      1.0  0.43257  0.55627  0.87672  1.0000
  C   C305      1.0  0.43811  0.79139  0.74148  1.0000
  H   H518      1.0  0.41520  0.86740  0.99737  1.0000
  H   H519      1.0  0.06762  0.67125  0.87053  1.0000
  H   H520      1.0  0.49856  0.99250  0.71371  1.0000
  C   C306      1.0  0.07609  0.58158  0.84409  1.0000
  H   H521      1.0  0.16349  0.51805  0.90988  1.0000
  H   H522      1.0  0.47824  0.55679  0.90716  1.0000
  H   H523      1.0  0.29797  0.80475  0.78029  1.0000
  H   H524      1.0  0.11583  0.59408  0.90228  1.0000
  C   C307      1.0  0.12535  0.62631  0.85463  1.0000
  C   C308      1.0  0.06017  0.64650  0.85723  1.0000
  H   H525      1.0  0.04297  0.54631  0.94595  1.0000
  H   H526      1.0  0.37246  0.84865  0.01116  1.0000
  H   H527      1.0  0.41358  0.80424  0.72988  1.0000
  H   H528      1.0  0.41668  0.57968  0.88688  1.0000
  H   H529      1.0  0.37068  0.88472  0.72685  1.0000
  H   H530      1.0  0.25681  0.92218  0.94049  1.0000
  H   H531      1.0  0.26946  0.84519  0.78890  1.0000
  C   C309      1.0  0.45367  0.75644  0.69790  1.0000
  H   H532      1.0  0.39780  0.87112  0.77308  1.0000
  H   H533      1.0  0.45902  0.88492  0.79623  1.0000
  H   H534      1.0  0.44697  0.86315  0.72420  1.0000
  H   H535      1.0  0.04671  0.59645  0.94814  1.0000
  H   H536      1.0  0.28803  0.90107  0.75053  1.0000
  C   C310      1.0  0.32398  0.85802  0.77026  1.0000
  H   H537      1.0  0.27496  0.83120  0.75161  1.0000
  H   H538      1.0  0.34058  0.84618  0.75232  1.0000
  C   C311      1.0  0.23596  0.51731  0.95067  1.0000
  H   H539      1.0  0.44665  0.81239  0.75777  1.0000
  C   C312      1.0  0.27487  0.92930  0.92180  1.0000
  H   H540      1.0  0.42340  0.90666  0.75412  1.0000
  H   H541      1.0  0.45603  0.96405  0.01076  1.0000
  H   H542      1.0  0.50939  0.81621  0.69602  1.0000
  H   H543      1.0  0.30230  0.90935  0.78692  1.0000
  H   H544      1.0  0.19630  0.64379  0.87928  1.0000
  C   C313      1.0  0.43458  0.90392  0.79946  1.0000
  H   H545      1.0  0.36318  0.92685  0.79881  1.0000
  C   C314      1.0  0.31275  0.89981  0.76547  1.0000
  H   H546      1.0  0.34057  0.85515  0.79065  1.0000
  H   H547      1.0  0.44402  0.52998  0.98417  1.0000
  H   H548      1.0  0.44679  0.74316  0.77141  1.0000
  H   H549      1.0  0.33028  0.90566  0.71111  1.0000
  H   H550      1.0  0.07152  0.59158  0.82128  1.0000
  H   H551      1.0  0.34602  0.75494  0.94935  1.0000
  H   H552      1.0  0.44038  0.89399  0.95935  1.0000
  C   C315      1.0  0.36860  0.76422  0.93463  1.0000
  C   C316      1.0  0.50261  0.76498  0.73458  1.0000
  H   H553      1.0  0.12838  0.55693  0.82813  1.0000
  N   N19       1.0  0.08669  0.61400  0.86330  1.0000
  C   C317      1.0  0.36358  0.89307  0.97835  1.0000
  C   C318      1.0  0.09365  0.52110  0.68464  1.0000
  C   C319      1.0  0.46131  0.88929  0.91624  1.0000
  H   H554      1.0  0.27992  0.96724  0.78226  1.0000
  S   S63       1.0  0.42661  0.98126  0.95406  1.0000
  H   H555      1.0  0.34638  0.98432  0.74275  1.0000
  C   C320      1.0  0.09193  0.55723  0.70229  1.0000
  H   H556      1.0  0.08845  0.56701  0.94804  1.0000
  H   H557      1.0  0.37903  0.51401  0.96149  1.0000
  H   H558      1.0  0.47295  0.51358  0.88790  1.0000
  H   H559      1.0  0.36719  0.74720  0.91452  1.0000
  H   H560      1.0  0.06465  0.57196  0.69879  1.0000
  H   H561      1.0  0.49050  0.85470  0.74289  1.0000
  H   H562      1.0  0.47703  0.57913  0.72665  1.0000
  H   H563      1.0  0.49024  0.88233  0.92361  1.0000
  H   H564      1.0  0.09488  0.55034  0.72577  1.0000
  H   H565      1.0  0.06921  0.54526  0.89755  1.0000
  H   H566      1.0  0.44995  0.56806  0.85908  1.0000
  H   H567      1.0  0.21126  0.57903  0.85436  1.0000
  C   C321      1.0  0.48530  0.00144  0.75874  1.0000
  H   H568      1.0  0.25483  0.55843  0.84240  1.0000
  H   H569      1.0  0.18238  0.51513  0.85451  1.0000
  H   H570      1.0  0.11495  0.57628  0.69617  1.0000
  H   H571      1.0  0.41043  0.53106  0.75315  1.0000
  H   H572      1.0  0.03151  0.57835  0.89806  1.0000
  H   H573      1.0  0.45640  0.53743  0.71338  1.0000
  H   H574      1.0  0.49807  0.53411  0.95525  1.0000
  C   C322      1.0  0.21320  0.51764  0.85582  1.0000
  C   C323      1.0  0.01830  0.63972  0.86318  1.0000
  C   C324      1.0  0.22396  0.55529  0.84230  1.0000
  C   C325      1.0  0.47771  0.00237  0.72879  1.0000
  C   C326      1.0  0.43623  0.01020  0.98400  1.0000
  H   H575      1.0  0.48943  0.91556  0.71680  1.0000
  H   H576      1.0  0.25392  0.53821  0.99260  1.0000
  C   C327      1.0  0.22733  0.51420  0.88771  1.0000
  H   H577      1.0  0.48940  0.60037  0.68399  1.0000
  H   H578      1.0  0.46243  0.82363  0.68457  1.0000
  H   H579      1.0  0.57371  0.10807  0.05545  1.0000
  H   H580      1.0  0.84195  0.42935  0.10149  1.0000
  S   S64       1.0  0.55624  0.16111  0.16423  1.0000
  H   H581      1.0  0.51848  0.17446  0.10235  1.0000
  H   H582      1.0  0.92523  0.38322  0.14278  1.0000
  S   S65       1.0  0.93615  0.51074  0.02760  1.0000
  Fe  Fe31      1.0  0.53799  0.10261  0.15067  1.0000
  H   H583      1.0  0.63383  0.07815  0.03692  1.0000
  S   S66       1.0  0.53844  0.05127  0.17991  1.0000
  H   H584      1.0  0.54179  0.32826  0.04688  1.0000
  H   H585      1.0  0.56675  0.17645  0.05576  1.0000
  S   S67       1.0  0.00189  0.46300  0.06296  1.0000
  Fe  Fe32      1.0  0.64681  0.34246  0.08807  1.0000
  S   S68       1.0  0.65667  0.36397  0.04267  1.0000
  S   S69       1.0  0.64944  0.27847  0.08992  1.0000
  Fe  Fe33      1.0  0.63283  0.42231  0.11028  1.0000
  S   S70       1.0  0.63984  0.44793  0.06618  1.0000
  S   S71       1.0  0.62230  0.45838  0.15003  1.0000
  Fe  Fe34      1.0  0.60579  0.39982  0.05030  1.0000
  H   H586      1.0  0.73727  0.51166  0.08555  1.0000
  Fe  Fe35      1.0  0.69026  0.40973  0.06295  1.0000
  H   H587      1.0  0.60130  0.12967  0.02730  1.0000
  S   S72       1.0  0.59448  0.37662  0.09469  1.0000
  S   S73       1.0  0.68477  0.38584  0.10803  1.0000
  H   H588      1.0  0.87059  0.47383  0.03217  1.0000
  C   C328      1.0  0.57254  0.12280  0.03424  1.0000
  S   S74       1.0  0.91437  0.40469  0.03552  1.0000
  H   H589      1.0  0.56486  0.03098  0.30791  1.0000
  H   H590      1.0  0.88225  0.41050  0.17218  1.0000
  C   C329      1.0  0.86588  0.41467  0.03934  1.0000
  H   H591      1.0  0.00993  0.48199  0.34230  1.0000
  H   H592      1.0  0.80294  0.48715  0.03557  1.0000
  H   H593      1.0  0.61533  0.28569  0.03087  1.0000
  H   H594      1.0  0.56442  0.24092  0.16865  1.0000
  C   C330      1.0  0.96360  0.38503  0.10760  1.0000
  H   H595      1.0  0.59975  0.28773  0.13980  1.0000
  H   H596      1.0  0.52162  0.50831  0.19839  1.0000
  H   H597      1.0  0.80388  0.46677  0.14069  1.0000
  H   H598      1.0  0.84329  0.47080  0.18689  1.0000
  C   C331      1.0  0.85188  0.45123  0.03636  1.0000
  H   H599      1.0  0.99734  0.49722  0.12437  1.0000
  C   C332      1.0  0.57957  0.19393  0.14179  1.0000
  C   C333      1.0  0.59925  0.18277  0.11711  1.0000
  C   C334      1.0  0.61987  0.20921  0.10118  1.0000
  C   C335      1.0  0.62040  0.24718  0.10930  1.0000
  C   C336      1.0  0.59939  0.25867  0.13320  1.0000
  C   C337      1.0  0.57949  0.23205  0.14956  1.0000
  H   H600      1.0  0.59968  0.15354  0.11096  1.0000
  H   H601      1.0  0.63613  0.20006  0.08277  1.0000
  C   C338      1.0  0.80993  0.43624  0.14119  1.0000
  N   N20       1.0  0.88063  0.44789  0.13471  1.0000
  C   C339      1.0  0.87561  0.48966  0.12978  1.0000
  C   C340      1.0  0.55182  0.15997  0.03901  1.0000
  H   H602      1.0  0.63862  0.02902  0.03040  1.0000
  H   H603      1.0  0.53303  0.04344  0.04312  1.0000
  H   H604      1.0  0.52299  0.15473  0.04674  1.0000
  H   H605      1.0  0.85124  0.35713  0.04777  1.0000
  H   H606      1.0  0.90730  0.43900  0.09299  1.0000
  C   C341      1.0  0.77661  0.41675  0.12727  1.0000
  C   C342      1.0  0.56145  0.03802  0.03438  1.0000
  H   H607      1.0  0.55040  0.17669  0.01857  1.0000
  H   H608      1.0  0.92121  0.44071  0.16989  1.0000
  H   H609      1.0  0.93821  0.45225  0.12128  1.0000
  C   C343      1.0  0.86562  0.50256  0.09841  1.0000
  C   C344      1.0  0.89033  0.43965  0.16629  1.0000
  H   H610      1.0  0.77186  0.42735  0.10482  1.0000
  H   H611      1.0  0.69949  0.50708  0.11090  1.0000
  H   H612      1.0  0.90459  0.37508  0.10771  1.0000
  H   H613      1.0  0.53103  0.30588  0.10983  1.0000
  C   C345      1.0  0.80203  0.39315  0.04789  1.0000
  S   S75       1.0  0.55483  0.07011  0.11123  1.0000
  S   S76       1.0  0.74005  0.44166  0.04516  1.0000
  H   H614      1.0  0.58045  0.04789  0.05172  1.0000
  C   C346      1.0  0.78821  0.42982  0.04407  1.0000
  H   H615      1.0  0.81174  0.42636  0.16407  1.0000
  C   C347      1.0  0.81338  0.45872  0.03844  1.0000
  H   H616      1.0  0.56817  0.29709  0.06961  1.0000
  H   H617      1.0  0.74705  0.49701  0.12235  1.0000
  H   H618      1.0  0.91148  0.44647  0.22405  1.0000
  C   C348      1.0  0.84664  0.42641  0.12532  1.0000
  C   C349      1.0  0.91326  0.43487  0.11650  1.0000
  H   H619      1.0  0.54279  0.23765  0.08139  1.0000
  C   C350      1.0  0.87379  0.46630  0.18958  1.0000
  H   H620      1.0  0.86620  0.42420  0.22358  1.0000
  H   H621      1.0  0.78117  0.38586  0.12671  1.0000
  C   C351      1.0  0.54404  0.29849  0.05408  1.0000
  C   C352      1.0  0.84078  0.38561  0.04533  1.0000
  C   C353      1.0  0.88103  0.45105  0.22024  1.0000
  C   C354      1.0  0.92469  0.39276  0.11984  1.0000
  H   H622      1.0  0.87076  0.47168  0.23639  1.0000
  H   H623      1.0  0.75100  0.42275  0.14001  1.0000
  H   H624      1.0  0.85125  0.39578  0.12883  1.0000
  H   H625      1.0  0.51688  0.43975  0.05508  1.0000
  C   C355      1.0  0.51297  0.24481  0.07627  1.0000
  Fe  Fe36      1.0  0.54940  0.01807  0.13934  1.0000
  H   H626      1.0  0.78286  0.37059  0.05220  1.0000
  H   H627      1.0  0.53743  0.50274  0.12937  1.0000
  H   H628      1.0  0.69827  0.06086  0.02382  1.0000
  H   H629      1.0  0.51806  0.36517  0.07863  1.0000
  H   H630      1.0  0.96445  0.39234  0.08417  1.0000
  Fe  Fe37      1.0  0.95686  0.45139  0.02957  1.0000
  H   H631      1.0  0.98589  0.47305  0.29142  1.0000
  H   H632      1.0  0.88741  0.49401  0.18808  1.0000
  H   H633      1.0  0.98500  0.40146  0.11940  1.0000
  H   H634      1.0  0.97070  0.35473  0.11000  1.0000
  C   C356      1.0  0.51542  0.40161  0.01905  1.0000
  C   C357      1.0  0.55546  0.27598  0.02670  1.0000
  C   C358      1.0  0.51513  0.48698  0.14063  1.0000
  H   H635      1.0  0.85344  0.50154  0.14373  1.0000
  H   H636      1.0  0.83905  0.48992  0.09112  1.0000
  H   H637      1.0  0.90155  0.50420  0.13638  1.0000
  H   H638      1.0  0.61589  0.50898  0.09990  1.0000
  H   H639      1.0  0.88819  0.49510  0.08309  1.0000
  H   H640      1.0  0.99223  0.47950  0.17662  1.0000
  C   C359      1.0  0.97806  0.50445  0.16840  1.0000
  H   H641      1.0  0.52836  0.46485  0.15457  1.0000
  H   H642      1.0  0.55905  0.24568  0.03172  1.0000
  H   H643      1.0  0.52246  0.36918  0.13265  1.0000
  C   C360      1.0  0.61957  0.50781  0.14653  1.0000
  C   C361      1.0  0.63797  0.05705  0.01972  1.0000
  Fe  Fe38      1.0  0.96928  0.47118  0.47099  1.0000
  S   S77       1.0  0.98629  0.41663  0.49260  1.0000
  S   S78       1.0  0.96145  0.46801  0.42228  1.0000
  S   S79       1.0  0.56504  0.05760  0.60475  1.0000
  C   C362      1.0  0.82886  0.37519  0.55713  1.0000
  H   H644      1.0  0.77073  0.36050  0.56282  1.0000
  H   H645      1.0  0.83957  0.34976  0.56735  1.0000
  H   H646      1.0  0.69342  0.46083  0.58958  1.0000
  H   H647      1.0  0.68725  0.50260  0.61051  1.0000
  C   C363      1.0  0.74447  0.37215  0.65865  1.0000
  H   H648      1.0  0.89218  0.43916  0.44972  1.0000
  H   H649      1.0  0.55077  0.27649  0.57704  1.0000
  Fe  Fe39      1.0  0.54041  0.08867  0.64246  1.0000
  C   C364      1.0  0.74541  0.43388  0.63061  1.0000
  S   S80       1.0  0.54992  0.14748  0.65941  1.0000
  H   H650      1.0  0.75161  0.35645  0.63863  1.0000
  H   H651      1.0  0.74945  0.34619  0.50493  1.0000
  H   H652      1.0  0.51574  0.19940  0.57879  1.0000
  S   S81       1.0  0.98522  0.46171  0.55347  1.0000
  H   H653      1.0  0.88123  0.43988  0.60143  1.0000
  Fe  Fe40      1.0  0.94296  0.43249  0.52584  1.0000
  S   S82       1.0  0.90259  0.39188  0.54685  1.0000
  S   S83       1.0  0.92339  0.48461  0.50242  1.0000
  Fe  Fe41      1.0  0.64349  0.32180  0.58378  1.0000
  S   S84       1.0  0.64976  0.34042  0.53741  1.0000
  S   S85       1.0  0.65417  0.25950  0.59024  1.0000
  Fe  Fe42      1.0  0.62483  0.40141  0.60331  1.0000
  S   S86       1.0  0.62767  0.42466  0.55803  1.0000
  S   S87       1.0  0.61846  0.43928  0.64247  1.0000
  Fe  Fe43      1.0  0.59677  0.37294  0.54517  1.0000
  S   S88       1.0  0.55548  0.36717  0.50822  1.0000
  Fe  Fe44      1.0  0.68030  0.38994  0.55472  1.0000
  S   S89       1.0  0.72794  0.42098  0.53353  1.0000
  S   S90       1.0  0.58895  0.35212  0.59082  1.0000
  S   S91       1.0  0.67900  0.36881  0.60056  1.0000
  C   C365      1.0  0.85396  0.40145  0.54579  1.0000
  C   C366      1.0  0.83980  0.43431  0.53291  1.0000
  C   C367      1.0  0.80107  0.44007  0.52998  1.0000
  C   C368      1.0  0.77599  0.41340  0.54042  1.0000
  C   C369      1.0  0.78989  0.38123  0.55463  1.0000
  H   H654      1.0  0.85859  0.45506  0.52465  1.0000
  H   H655      1.0  0.79048  0.46517  0.51920  1.0000
  C   C370      1.0  0.86480  0.44258  0.43849  1.0000
  C   C371      1.0  0.55765  0.43387  0.43918  1.0000
  C   C372      1.0  0.58599  0.25458  0.52556  1.0000
  H   H656      1.0  0.80853  0.46968  0.65417  1.0000
  H   H657      1.0  0.54234  0.13315  0.57659  1.0000
  H   H658      1.0  0.76642  0.36009  0.44031  1.0000
  H   H659      1.0  0.63897  0.50182  0.67814  1.0000
  H   H660      1.0  0.80787  0.42427  0.44106  1.0000
  H   H661      1.0  0.56184  0.21230  0.57092  1.0000
  H   H662      1.0  0.94961  0.48877  0.64096  1.0000
  C   C373      1.0  0.57746  0.17862  0.63890  1.0000
  C   C374      1.0  0.60497  0.16514  0.62017  1.0000
  C   C375      1.0  0.62813  0.19035  0.60538  1.0000
  C   C376      1.0  0.62355  0.22925  0.60874  1.0000
  C   C377      1.0  0.59541  0.24287  0.62695  1.0000
  C   C378      1.0  0.57270  0.21758  0.64223  1.0000
  H   H663      1.0  0.60913  0.13522  0.61767  1.0000
  H   H664      1.0  0.64993  0.17963  0.59141  1.0000
  H   H665      1.0  0.59193  0.27278  0.62988  1.0000
  C   C379      1.0  0.54307  0.25392  0.52033  1.0000
  C   C380      1.0  0.77156  0.36610  0.46357  1.0000
  C   C381      1.0  0.61834  0.48805  0.63548  1.0000
  H   H666      1.0  0.71432  0.43256  0.63141  1.0000
  H   H667      1.0  0.81636  0.36805  0.49506  1.0000
  H   H668      1.0  0.75647  0.35660  0.67760  1.0000
  H   H669      1.0  0.82719  0.48957  0.42792  1.0000
  C   C382      1.0  0.86493  0.45726  0.61691  1.0000
  C   C383      1.0  0.82320  0.45417  0.61004  1.0000
  C   C384      1.0  0.85375  0.48411  0.43998  1.0000
  H   H670      1.0  0.53508  0.28252  0.51233  1.0000
  C   C385      1.0  0.74504  0.34181  0.48130  1.0000
  H   H671      1.0  0.75323  0.41813  0.61068  1.0000
  H   H672      1.0  0.93729  0.50373  0.58921  1.0000
  H   H673      1.0  0.85735  0.32403  0.37172  1.0000
  H   H674      1.0  0.83064  0.42821  0.47522  1.0000
  H   H675      1.0  0.71560  0.34962  0.47593  1.0000
  N   N21       1.0  0.84228  0.37596  0.45341  1.0000
  H   H676      1.0  0.71359  0.37343  0.66107  1.0000
  C   C386      1.0  0.88081  0.36924  0.46653  1.0000
  N   N22       1.0  0.75748  0.47418  0.62848  1.0000
  C   C387      1.0  0.84058  0.36227  0.42250  1.0000
  C   C388      1.0  0.84469  0.31948  0.41793  1.0000
  H   H677      1.0  0.94633  0.48128  0.36203  1.0000
  C   C389      1.0  0.88793  0.33120  0.48256  1.0000
  C   C390      1.0  0.92958  0.32419  0.48833  1.0000
  C   C391      1.0  0.53410  0.20772  0.56053  1.0000
  H   H678      1.0  0.56966  0.46236  0.44091  1.0000
  H   H679      1.0  0.75267  0.42592  0.67792  1.0000
  H   H680      1.0  0.81670  0.32736  0.47373  1.0000
  H   H681      1.0  0.90273  0.37278  0.44969  1.0000
  H   H682      1.0  0.88695  0.39087  0.48324  1.0000
  H   H683      1.0  0.70953  0.48794  0.65543  1.0000
  C   C392      1.0  0.83750  0.30931  0.38618  1.0000
  H   H684      1.0  0.81423  0.37202  0.41169  1.0000
  H   H685      1.0  0.86327  0.37505  0.40953  1.0000
  H   H686      1.0  0.82466  0.30344  0.43121  1.0000
  H   H687      1.0  0.87370  0.31022  0.42322  1.0000
  H   H688      1.0  0.76396  0.39587  0.46785  1.0000
  H   H689      1.0  0.55265  0.17887  0.52045  1.0000
  C   C393      1.0  0.73933  0.49597  0.65276  1.0000
  H   H690      1.0  0.87362  0.33152  0.50392  1.0000
  H   H691      1.0  0.87727  0.30696  0.47037  1.0000
  H   H692      1.0  0.94519  0.32269  0.46761  1.0000
  H   H693      1.0  0.94126  0.34687  0.50192  1.0000
  H   H694      1.0  0.93360  0.29722  0.50025  1.0000
  H   H695      1.0  0.74945  0.31163  0.47636  1.0000
  H   H696      1.0  0.58631  0.14751  0.56094  1.0000
  H   H697      1.0  0.86855  0.43559  0.41527  1.0000
  H   H698      1.0  0.66388  0.50973  0.55976  1.0000
  C   C394      1.0  0.81293  0.35821  0.47231  1.0000
  H   H699      1.0  0.80790  0.50679  0.62882  1.0000
  C   C395      1.0  0.70333  0.48993  0.59266  1.0000
  H   H700      1.0  0.85041  0.49294  0.46292  1.0000
  H   H701      1.0  0.59713  0.22673  0.53254  1.0000
  H   H702      1.0  0.80838  0.31694  0.37966  1.0000
  C   C396      1.0  0.83455  0.41778  0.45278  1.0000
  H   H703      1.0  0.81609  0.42401  0.61057  1.0000
  H   H704      1.0  0.63705  0.26557  0.50214  1.0000
  H   H705      1.0  0.75853  0.47263  0.58151  1.0000
  H   H706      1.0  0.55162  0.22821  0.65685  1.0000
  H   H707      1.0  0.57021  0.41599  0.45665  1.0000
  H   H708      1.0  0.59325  0.27532  0.54245  1.0000
  C   C397      1.0  0.79936  0.47730  0.63170  1.0000
  H   H709      1.0  0.60072  0.24509  0.48027  1.0000
  H   H710      1.0  0.52689  0.47046  0.67563  1.0000
  C   C398      1.0  0.60713  0.50252  0.60845  1.0000
  C   C399      1.0  0.60645  0.26549  0.49781  1.0000
  H   H711      1.0  0.59709  0.48394  0.59180  1.0000
  H   H712      1.0  0.59766  0.29407  0.49047  1.0000
  H   H713      1.0  0.81891  0.46493  0.58763  1.0000
  H   H714      1.0  0.56524  0.42149  0.41793  1.0000
  S   S92       1.0  0.53949  0.03693  0.67085  1.0000
  H   H715      1.0  0.87130  0.44702  0.63927  1.0000
  C   C400      1.0  0.69409  0.51228  0.56501  1.0000
  C   C401      1.0  0.74590  0.48961  0.59912  1.0000
  C   C402      1.0  0.76045  0.41165  0.65748  1.0000
  H   H716      1.0  0.99122  0.43888  0.61809  1.0000
  C   C403      1.0  0.55684  0.14028  0.55606  1.0000
  C   C404      1.0  0.53691  0.17291  0.54054  1.0000
  H   H717      1.0  0.55697  0.11519  0.54191  1.0000
  H   H718      1.0  0.87409  0.48674  0.61457  1.0000
  H   H719      1.0  0.84145  0.27859  0.38332  1.0000
  H   H720      1.0  0.71032  0.50136  0.54636  1.0000
  H   H721      1.0  0.87595  0.50134  0.43004  1.0000
  H   H722      1.0  0.75282  0.48841  0.67392  1.0000
  C   C405      1.0  0.63020  0.51281  0.65718  1.0000
  H   H723      1.0  0.79134  0.40860  0.65685  1.0000
  H   H724      1.0  0.51671  0.30246  0.55718  1.0000
  H   H725      1.0  0.53734  0.23513  0.50167  1.0000
  H   H726      1.0  0.52835  0.30716  0.62315  1.0000
  C   C406      1.0  0.94996  0.50948  0.40316  1.0000
  C   C407      1.0  0.94441  0.50796  0.37300  1.0000
  C   C408      1.0  0.52191  0.27477  0.56798  1.0000
  H   H727      1.0  0.55801  0.01443  0.52662  1.0000
  C   C409      1.0  0.51518  0.43550  0.44265  1.0000
  N   N23       1.0  0.51973  0.24337  0.54624  1.0000
  Fe  Fe45      1.0  0.96795  0.51311  0.52845  1.0000
  N   N24       1.0  0.85863  0.48316  0.93494  1.0000
  H   H728      1.0  0.55333  0.04403  0.75987  1.0000
  H   H729      1.0  0.79834  0.48865  0.93301  1.0000
  H   H730      1.0  0.53956  0.24298  0.73613  1.0000
  C   C410      1.0  0.54173  0.46978  0.69695  1.0000
  H   H731      1.0  0.53423  0.27945  0.00917  1.0000
  H   H732      1.0  0.53014  0.48473  0.74173  1.0000
  H   H733      1.0  0.88058  0.43266  0.91498  1.0000
  C   C411      1.0  0.56421  0.06718  0.74625  1.0000
  H   H734      1.0  0.56711  0.07110  0.94585  1.0000
  H   H735      1.0  0.91493  0.46699  0.92292  1.0000
  H   H736      1.0  0.76261  0.40716  0.97354  1.0000
  C   C412      1.0  0.86429  0.50397  0.96302  1.0000
  H   H737      1.0  0.86357  0.49942  0.68911  1.0000
  C   C413      1.0  0.90285  0.43240  0.95917  1.0000
  H   H738      1.0  0.93973  0.38621  0.97180  1.0000
  C   C414      1.0  0.51853  0.48009  0.97082  1.0000
  H   H739      1.0  0.58508  0.08306  0.75905  1.0000
  C   C415      1.0  0.98945  0.49889  0.88370  1.0000
  C   C416      1.0  0.82025  0.46618  0.93302  1.0000
  H   H740      1.0  0.51319  0.03906  0.99166  1.0000
  C   C417      1.0  0.92941  0.40008  0.95152  1.0000
  H   H741      1.0  0.55583  0.11616  0.99023  1.0000
  H   H742      1.0  0.81641  0.45179  0.91191  1.0000
  C   C418      1.0  0.55282  0.09948  0.01054  1.0000
  H   H743      1.0  0.82506  0.40992  0.95213  1.0000
  C   C419      1.0  0.86765  0.49503  0.87945  1.0000
  C   C420      1.0  0.86183  0.51139  0.91036  1.0000
  H   H744      1.0  0.99284  0.48997  0.93009  1.0000
  C   C421      1.0  0.54214  0.04211  0.98346  1.0000
  C   C422      1.0  0.53912  0.06330  0.95393  1.0000
  H   H745      1.0  0.87984  0.42071  0.97206  1.0000
  H   H746      1.0  0.81789  0.44635  0.97865  1.0000
  H   H747      1.0  0.84792  0.47216  0.87470  1.0000
  C   C423      1.0  0.54629  0.42862  0.70601  1.0000
  C   C424      1.0  0.88913  0.45371  0.93144  1.0000
  H   H748      1.0  0.75901  0.41854  0.93534  1.0000
  H   H749      1.0  0.91470  0.37888  0.93825  1.0000
  H   H750      1.0  0.57156  0.48536  0.94807  1.0000
  C   C425      1.0  0.81036  0.43688  0.95662  1.0000
  H   H751      1.0  0.57592  0.47432  0.98615  1.0000
  H   H752      1.0  0.89657  0.48364  0.87727  1.0000
  H   H753      1.0  0.91839  0.45178  0.97347  1.0000
  H   H754      1.0  0.95389  0.41065  0.93937  1.0000
  H   H755      1.0  0.59990  0.27349  0.99490  1.0000
  H   H756      1.0  0.52174  0.08918  0.95623  1.0000
  C   C426      1.0  0.76849  0.42892  0.95682  1.0000
  C   C427      1.0  0.53891  0.18891  0.75877  1.0000
  H   H757      1.0  0.58326  0.22934  0.75322  1.0000
  H   H758      1.0  0.56887  0.20700  0.72006  1.0000
  H   H759      1.0  0.51696  0.44983  0.96556  1.0000
  S   S93       1.0  0.99595  0.45760  0.99130  1.0000
  H   H760      1.0  0.51856  0.41546  0.70879  1.0000
  H   H761      1.0  0.57859  0.05487  0.72722  1.0000
  H   H762      1.0  0.86357  0.48484  0.98196  1.0000
  H   H763      1.0  0.59041  0.31987  0.00852  1.0000
  H   H764      1.0  0.75232  0.45465  0.96249  1.0000
  C   C428      1.0  0.53242  0.09328  0.73595  1.0000
  H   H765      1.0  0.53071  0.20187  0.77964  1.0000
  H   H766      1.0  0.61196  0.08376  0.98193  1.0000
  H   H767      1.0  0.54533  0.11559  0.72275  1.0000
  H   H768      1.0  0.55955  0.16604  0.76318  1.0000
  C   C429      1.0  0.55874  0.21890  0.74089  1.0000
  H   H769      1.0  0.53017  0.11546  0.77981  1.0000
  N   N25       1.0  0.56669  0.05967  0.00641  1.0000
  H   H770      1.0  0.56256  0.42614  0.72660  1.0000
  S   S94       1.0  0.56396  0.40026  0.01322  1.0000
  H   H771      1.0  0.67800  0.09178  0.99669  1.0000
  H   H772      1.0  0.56998  0.48111  0.69357  1.0000
  S   S95       1.0  0.98664  0.51099  0.82502  1.0000
  H   H773      1.0  0.61192  0.03417  0.98190  1.0000
  C   C430      1.0  0.52012  0.03936  0.93083  1.0000
  H   H774      1.0  0.51765  0.05546  0.91014  1.0000
  H   H775      1.0  0.56170  0.41312  0.68889  1.0000
  C   C431      1.0  0.51900  0.49239  0.71977  1.0000
  C   C432      1.0  0.55970  0.49107  0.96984  1.0000
  C   C433      1.0  0.60673  0.05890  0.99606  1.0000
  C   C434      1.0  0.98335  0.50855  0.91281  1.0000
  H   H776      1.0  0.00359  0.47276  0.87859  1.0000
  C   C435      1.0  0.67648  0.06329  0.00654  1.0000
  H   H777      1.0  0.51408  0.16709  0.72008  1.0000
  H   H778      1.0  0.51343  0.07685  0.72197  1.0000
  H   H779      1.0  0.68253  0.04191  0.98972  1.0000
  H   H780      1.0  0.53660  0.01332  0.92678  1.0000
  C   C436      1.0  0.59253  0.28969  0.01459  1.0000
  H   H781      1.0  0.52229  0.09946  0.01530  1.0000
  C   C437      1.0  0.82358  0.64263  0.32559  1.0000
  H   H782      1.0  0.54532  0.98371  0.07588  1.0000
  S   S96       1.0  0.59282  0.97066  0.13917  1.0000
  H   H783      1.0  0.64525  0.85726  0.26869  1.0000
  H   H784      1.0  0.83890  0.59740  0.20053  1.0000
  H   H785      1.0  0.54129  0.54078  0.17376  1.0000
  Fe  Fe46      1.0  0.58909  0.75374  0.19968  1.0000
  S   S97       1.0  0.60190  0.73698  0.24616  1.0000
  S   S98       1.0  0.55655  0.80808  0.18970  1.0000
  Fe  Fe47      1.0  0.60668  0.67422  0.17799  1.0000
  S   S99       1.0  0.61965  0.65247  0.22244  1.0000
  S   S100      1.0  0.60927  0.63617  0.13886  1.0000
  Fe  Fe48      1.0  0.56927  0.68523  0.23655  1.0000
  H   H786      1.0  0.55460  0.57947  0.27925  1.0000
  Fe  Fe49      1.0  0.65145  0.70551  0.22812  1.0000
  S   S101      1.0  0.70383  0.69478  0.25516  1.0000
  S   S102      1.0  0.55353  0.70303  0.19148  1.0000
  S   S103      1.0  0.64159  0.72623  0.18218  1.0000
  Fe  Fe50      1.0  0.91245  0.64885  0.24580  1.0000
  S   S104      1.0  0.89902  0.59483  0.26854  1.0000
  S   S105      1.0  0.87210  0.68159  0.21674  1.0000
  H   H787      1.0  0.57946  0.94642  0.31732  1.0000
  Fe  Fe51      1.0  0.95226  0.57340  0.24869  1.0000
  H   H788      1.0  0.71720  0.54770  0.20667  1.0000
  Fe  Fe52      1.0  0.93705  0.61607  0.30381  1.0000
  C   C438      1.0  0.51199  0.56371  0.23031  1.0000
  S   S106      1.0  0.96348  0.62617  0.22398  1.0000
  S   S107      1.0  0.94654  0.67222  0.28261  1.0000
  C   C439      1.0  0.59343  0.87348  0.24623  1.0000
  C   C440      1.0  0.93978  0.55969  0.17670  1.0000
  S   S108      1.0  0.97180  0.56468  0.09334  1.0000
  C   C441      1.0  0.61290  0.58684  0.14250  1.0000
  C   C442      1.0  0.61601  0.56920  0.16966  1.0000
  C   C443      1.0  0.61329  0.56481  0.11740  1.0000
  H   H789      1.0  0.61583  0.58576  0.18912  1.0000
  H   H790      1.0  0.61089  0.57816  0.09627  1.0000
  C   C444      1.0  0.74800  0.68659  0.23961  1.0000
  C   C445      1.0  0.76207  0.71038  0.21817  1.0000
  C   C446      1.0  0.79991  0.70747  0.21022  1.0000
  C   C447      1.0  0.82375  0.68088  0.22372  1.0000
  C   C448      1.0  0.80895  0.65539  0.24354  1.0000
  C   C449      1.0  0.77121  0.65831  0.25151  1.0000
  H   H791      1.0  0.74441  0.73237  0.20893  1.0000
  H   H792      1.0  0.81118  0.72710  0.19464  1.0000
  H   H793      1.0  0.82688  0.63406  0.25322  1.0000
  H   H794      1.0  0.76016  0.63914  0.26746  1.0000
  C   C450      1.0  0.86028  0.54512  0.09649  1.0000
  H   H795      1.0  0.52311  0.93445  0.15506  1.0000
  C   C451      1.0  0.56769  0.85190  0.17359  1.0000
  C   C452      1.0  0.53856  0.87814  0.16880  1.0000
  C   C453      1.0  0.54583  0.91446  0.15820  1.0000
  C   C454      1.0  0.58241  0.92477  0.15170  1.0000
  C   C455      1.0  0.61155  0.89829  0.15589  1.0000
  C   C456      1.0  0.60430  0.86203  0.16690  1.0000
  H   H796      1.0  0.88642  0.55951  0.10279  1.0000
  H   H797      1.0  0.59868  0.56161  0.26630  1.0000
  H   H798      1.0  0.63995  0.90602  0.15092  1.0000
  H   H799      1.0  0.62701  0.84215  0.17048  1.0000
  C   C457      1.0  0.56787  0.55855  0.26469  1.0000
  H   H800      1.0  0.93275  0.53954  0.33364  1.0000
  C   C458      1.0  0.54798  0.96442  0.27842  1.0000
  Fe  Fe53      1.0  0.99650  0.64378  0.26277  1.0000
  C   C459      1.0  0.96451  0.54797  0.12869  1.0000
  N   N26       1.0  0.73286  0.60079  0.16168  1.0000
  H   H801      1.0  0.57209  0.94576  0.06040  1.0000
  C   C460      1.0  0.71249  0.60623  0.19000  1.0000
  C   C461      1.0  0.71909  0.63121  0.14100  1.0000
  C   C462      1.0  0.77461  0.60483  0.16582  1.0000
  H   H802      1.0  0.85186  0.59228  0.16287  1.0000
  C   C463      1.0  0.79752  0.56885  0.17373  1.0000
  C   C464      1.0  0.72419  0.67223  0.15124  1.0000
  H   H803      1.0  0.58139  0.93665  0.21157  1.0000
  C   C465      1.0  0.61645  0.52550  0.11940  1.0000
  H   H804      1.0  0.56831  0.85849  0.23858  1.0000
  H   H805      1.0  0.58811  0.00903  0.33859  1.0000
  C   C466      1.0  0.71308  0.70018  0.12726  1.0000
  H   H806      1.0  0.64057  0.96447  0.19459  1.0000
  C   C467      1.0  0.00852  0.65920  0.14168  1.0000
  H   H807      1.0  0.71972  0.63349  0.19995  1.0000
  H   H808      1.0  0.68177  0.60765  0.18582  1.0000
  H   H809      1.0  0.68886  0.62742  0.13590  1.0000
  H   H810      1.0  0.73386  0.62922  0.11989  1.0000
  H   H811      1.0  0.78762  0.61614  0.14571  1.0000
  H   H812      1.0  0.78040  0.62625  0.18276  1.0000
  H   H813      1.0  0.56525  0.59289  0.22637  1.0000
  H   H814      1.0  0.85307  0.56931  0.33192  1.0000
  H   H815      1.0  0.74865  0.58079  0.22343  1.0000
  H   H816      1.0  0.69994  0.56173  0.25716  1.0000
  H   H817      1.0  0.75368  0.67749  0.15749  1.0000
  H   H818      1.0  0.70611  0.67842  0.17006  1.0000
  C   C468      1.0  0.57750  0.97136  0.30272  1.0000
  H   H819      1.0  0.81939  0.57122  0.30231  1.0000
  C   C469      1.0  0.72912  0.51559  0.10857  1.0000
  H   H820      1.0  0.77519  0.60693  0.33413  1.0000
  N   N27       1.0  0.55842  0.93674  0.25494  1.0000
  H   H821      1.0  0.71577  0.57363  0.10207  1.0000
  H   H822      1.0  0.60458  0.83078  0.27952  1.0000
  H   H823      1.0  0.60862  0.88472  0.22725  1.0000
  H   H824      1.0  0.56780  0.89203  0.28611  1.0000
  C   C470      1.0  0.72014  0.57687  0.21435  1.0000
  H   H825      1.0  0.73124  0.69657  0.10800  1.0000
  H   H826      1.0  0.68339  0.69629  0.12072  1.0000
  H   H827      1.0  0.71621  0.72926  0.13536  1.0000
  S   S109      1.0  0.53130  0.65797  0.26928  1.0000
  H   H828      1.0  0.88067  0.74674  0.26665  1.0000
  C   C471      1.0  0.82280  0.57139  0.32632  1.0000
  C   C472      1.0  0.80563  0.60712  0.33903  1.0000
  C   C473      1.0  0.57723  0.95628  0.22989  1.0000
  H   H829      1.0  0.66001  0.00328  0.21416  1.0000
  C   C474      1.0  0.56626  0.99481  0.03229  1.0000
  H   H830      1.0  0.76333  0.56461  0.11353  1.0000
  H   H831      1.0  0.79715  0.70657  0.29998  1.0000
  H   H832      1.0  0.92282  0.57668  0.19091  1.0000
  C   C475      1.0  0.94346  0.57017  0.14756  1.0000
  H   H833      1.0  0.81349  0.64345  0.30278  1.0000
  H   H834      1.0  0.93013  0.59574  0.13965  1.0000
  H   H835      1.0  0.87902  0.72185  0.31691  1.0000
  H   H836      1.0  0.86348  0.68820  0.29046  1.0000
  H   H837      1.0  0.55887  0.97886  0.22070  1.0000
  H   H838      1.0  0.85427  0.63757  0.32390  1.0000
  C   C476      1.0  0.81815  0.71081  0.31759  1.0000
  C   C477      1.0  0.74416  0.68187  0.33194  1.0000
  H   H839      1.0  0.83089  0.74145  0.26327  1.0000
  S   S110      1.0  0.98910  0.58909  0.28627  1.0000
  H   H840      1.0  0.78561  0.55339  0.19227  1.0000
  H   H841      1.0  0.69106  0.56038  0.14953  1.0000
  C   C478      1.0  0.85606  0.71468  0.30172  1.0000
  H   H842      1.0  0.56053  0.52988  0.27210  1.0000
  H   H843      1.0  0.69429  0.61079  0.24824  1.0000
  H   H844      1.0  0.53985  0.99195  0.26842  1.0000
  H   H845      1.0  0.79829  0.54940  0.15504  1.0000
  H   H846      1.0  0.60570  0.97643  0.29405  1.0000
  H   H847      1.0  0.56915  0.54326  0.21998  1.0000
  H   H848      1.0  0.83721  0.55464  0.11072  1.0000
  C   C479      1.0  0.52295  0.91937  0.24341  1.0000
  H   H849      1.0  0.63490  0.95589  0.24771  1.0000
  H   H850      1.0  0.59122  0.98706  0.01940  1.0000
  C   C480      1.0  0.61493  0.97526  0.23658  1.0000
  H   H851      1.0  0.85325  0.55334  0.07376  1.0000
  C   C481      1.0  0.73383  0.55666  0.11707  1.0000
  C   C482      1.0  0.72200  0.56346  0.14897  1.0000
  C   C483      1.0  0.61898  0.84424  0.26095  1.0000
  C   C484      1.0  0.58247  0.90529  0.26747  1.0000
  C   C485      1.0  0.69281  0.58191  0.23942  1.0000
  C   C486      1.0  0.85408  0.74610  0.27895  1.0000
  C   C487      1.0  0.55520  0.56498  0.23325  1.0000
  H   H852      1.0  0.62636  0.82211  0.24503  1.0000
  C   C488      1.0  0.83792  0.57843  0.18150  1.0000
  H   H853      1.0  0.66374  0.57651  0.23201  1.0000
  H   H854      1.0  0.60898  0.91591  0.27665  1.0000
  H   H855      1.0  0.95130  0.65754  0.15789  1.0000
  H   H856      1.0  0.52711  0.78848  0.27410  1.0000
  H   H857      1.0  0.53720  0.60383  0.18380  1.0000
  H   H858      1.0  0.84979  0.77371  0.28951  1.0000
  H   H859      1.0  0.00422  0.61297  0.17103  1.0000
  H   H860      1.0  0.74077  0.70986  0.32133  1.0000
  C   C489      1.0  0.56668  0.00500  0.32135  1.0000
  H   H861      1.0  0.52764  0.65403  0.14354  1.0000
  C   C490      1.0  0.95833  0.52776  0.18749  1.0000
  C   C491      1.0  0.61957  0.52987  0.17165  1.0000
  C   C492      1.0  0.57005  0.97674  0.06239  1.0000
  C   C493      1.0  0.51426  0.53196  0.18329  1.0000
  H   H862      1.0  0.81108  0.73846  0.32748  1.0000
  C   C494      1.0  0.97221  0.67855  0.15108  1.0000
  H   H863      1.0  0.54124  0.98262  0.02164  1.0000
  N   N28       1.0  0.81594  0.67980  0.34014  1.0000
  H   H864      1.0  0.80872  0.54642  0.33547  1.0000
  S   S111      1.0  0.95854  0.51856  0.22502  1.0000
  H   H865      1.0  0.59568  0.98663  0.07361  1.0000
  Fe  Fe54      1.0  0.98319  0.52286  0.05809  1.0000
  H   H866      1.0  0.62219  0.51640  0.19271  1.0000
  C   C495      1.0  0.63367  0.98866  0.20874  1.0000
  H   H867      1.0  0.52897  0.90258  0.22374  1.0000
  H   H868      1.0  0.73307  0.53970  0.16224  1.0000
  H   H869      1.0  0.53940  0.00022  0.33195  1.0000
  H   H870      1.0  0.74849  0.66086  0.31467  1.0000
  H   H871      1.0  0.97753  0.69786  0.16946  1.0000
  H   H872      1.0  0.85379  0.55245  0.18717  1.0000
  H   H873      1.0  0.52274  0.95488  0.29033  1.0000
  C   C496      1.0  0.98102  0.51448  0.13889  1.0000
  H   H874      1.0  0.68416  0.67440  0.33097  1.0000
  H   H875      1.0  0.52451  0.76802  0.23849  1.0000
  H   H876      1.0  0.96022  0.69512  0.13264  1.0000
  H   H877      1.0  0.61003  0.00045  0.25012  1.0000
  H   H878      1.0  0.61506  0.00857  0.19659  1.0000
  H   H879      1.0  0.00178  0.64148  0.12267  1.0000
  H   H880      1.0  0.51312  0.74025  0.26986  1.0000
  C   C497      1.0  0.70743  0.67320  0.34712  1.0000
  H   H881      1.0  0.69704  0.85590  0.65435  1.0000
  H   H882      1.0  0.80885  0.60550  0.36286  1.0000
  C   C498      1.0  0.93811  0.57664  0.40141  1.0000
  S   S112      1.0  0.65247  0.71234  0.64417  1.0000
  H   H883      1.0  0.97042  0.69711  0.65263  1.0000
  H   H884      1.0  0.63486  0.82538  0.64103  1.0000
  C   C499      1.0  0.84527  0.68750  0.36307  1.0000
  S   S113      1.0  0.60296  0.95936  0.63175  1.0000
  H   H885      1.0  0.00885  0.60813  0.37928  1.0000
  H   H886      1.0  0.89681  0.59536  0.61591  1.0000
  H   H887      1.0  0.87379  0.68519  0.35377  1.0000
  C   C500      1.0  0.87537  0.67436  0.41222  1.0000
  H   H888      1.0  0.70162  0.69415  0.36431  1.0000
  S   S114      1.0  0.62200  0.61442  0.61646  1.0000
  C   C501      1.0  0.56482  0.96097  0.54961  1.0000
  C   C502      1.0  0.74006  0.53942  0.64981  1.0000
  H   H889      1.0  0.76768  0.54929  0.64276  1.0000
  H   H890      1.0  0.51647  0.91765  0.58649  1.0000
  H   H891      1.0  0.75166  0.63233  0.62144  1.0000
  C   C503      1.0  0.62071  0.56599  0.62443  1.0000
  C   C504      1.0  0.63148  0.55168  0.65163  1.0000
  C   C505      1.0  0.60857  0.54128  0.60289  1.0000
  H   H892      1.0  0.59999  0.55217  0.58184  1.0000
  H   H893      1.0  0.84217  0.71690  0.37090  1.0000
  C   C506      1.0  0.97392  0.54228  0.65043  1.0000
  C   C507      1.0  0.84635  0.66128  0.39005  1.0000
  N   N29       1.0  0.52080  0.90441  0.54077  1.0000
  C   C508      1.0  0.59168  0.91163  0.63661  1.0000
  H   H894      1.0  0.99685  0.59771  0.65299  1.0000
  H   H895      1.0  0.98546  0.61234  0.60063  1.0000
  H   H896      1.0  0.95080  0.54519  0.44067  1.0000
  C   C509      1.0  0.94671  0.54386  0.41738  1.0000
  Fe  Fe55      1.0  0.55790  0.00488  0.63142  1.0000
  H   H897      1.0  0.87378  0.63623  0.60275  1.0000
  H   H898      1.0  0.93568  0.60322  0.41247  1.0000
  H   H899      1.0  0.58884  0.94384  0.55780  1.0000
  S   S115      1.0  0.95832  0.56672  0.55352  1.0000
  H   H900      1.0  0.86968  0.68158  0.63986  1.0000
  H   H901      1.0  0.56842  0.88782  0.56741  1.0000
  C   C510      1.0  0.54016  0.93828  0.52821  1.0000
  C   C511      1.0  0.54683  0.86203  0.64419  1.0000
  H   H902      1.0  0.81548  0.63261  0.67690  1.0000
  H   H903      1.0  0.80425  0.60264  0.64837  1.0000
  C   C512      1.0  0.92384  0.65891  0.64997  1.0000
  H   H904      1.0  0.86814  0.70286  0.42021  1.0000
  H   H905      1.0  0.81549  0.60551  0.59432  1.0000
  H   H906      1.0  0.55904  0.78451  0.57701  1.0000
  C   C513      1.0  0.97681  0.58572  0.60960  1.0000
  H   H907      1.0  0.90365  0.67470  0.40239  1.0000
  H   H908      1.0  0.55905  0.92994  0.51026  1.0000
  H   H909      1.0  0.83282  0.55509  0.56124  1.0000
  Fe  Fe56      1.0  0.62459  0.65710  0.65243  1.0000
  S   S116      1.0  0.56399  0.78762  0.65128  1.0000
  H   H910      1.0  0.81225  0.66475  0.61462  1.0000
  C   C514      1.0  0.75883  0.65697  0.63492  1.0000
  H   H911      1.0  0.53246  0.92100  0.64055  1.0000
  N   N30       1.0  0.86146  0.62219  0.64769  1.0000
  C   C515      1.0  0.62044  0.88442  0.63661  1.0000
  H   H912      1.0  0.54497  0.53509  0.67437  1.0000
  Fe  Fe57      1.0  0.60245  0.73921  0.66518  1.0000
  H   H913      1.0  0.51784  0.62534  0.63967  1.0000
  C   C516      1.0  0.58085  0.99557  0.53466  1.0000
  H   H914      1.0  0.87624  0.65466  0.43103  1.0000
  H   H915      1.0  0.72579  0.80215  0.62856  1.0000
  H   H916      1.0  0.74675  0.65333  0.65687  1.0000
  H   H917      1.0  0.92748  0.71866  0.63969  1.0000
  C   C517      1.0  0.96161  0.55854  0.59121  1.0000
  C   C518      1.0  0.88080  0.65870  0.65416  1.0000
  H   H918      1.0  0.86933  0.54020  0.64629  1.0000
  H   H919      1.0  0.77182  0.81769  0.63940  1.0000
  C   C519      1.0  0.53672  0.83826  0.56201  1.0000
  C   C520      1.0  0.93959  0.69792  0.65538  1.0000
  H   H920      1.0  0.64889  0.89314  0.63310  1.0000
  H   H921      1.0  0.87773  0.54899  0.57861  1.0000
  C   C521      1.0  0.82026  0.62808  0.65332  1.0000
  C   C522      1.0  0.85537  0.56982  0.57312  1.0000
  C   C523      1.0  0.98306  0.57757  0.63923  1.0000
  C   C524      1.0  0.61258  0.84619  0.64111  1.0000
  H   H922      1.0  0.56998  0.87050  0.53163  1.0000
  H   H923      1.0  0.80670  0.68798  0.64884  1.0000
  C   C525      1.0  0.51890  0.59473  0.64434  1.0000
  C   C526      1.0  0.80124  0.66154  0.63693  1.0000
  H   H924      1.0  0.77491  0.70840  0.36653  1.0000
  C   C527      1.0  0.86966  0.61098  0.61673  1.0000
  H   H925      1.0  0.58246  0.80337  0.54569  1.0000
  C   C528      1.0  0.87666  0.59320  0.66900  1.0000
  H   H926      1.0  0.74589  0.68245  0.62482  1.0000
  H   H927      1.0  0.85495  0.63254  0.38373  1.0000
  H   H928      1.0  0.87493  0.66758  0.67685  1.0000
  C   C529      1.0  0.56934  0.81067  0.56672  1.0000
  H   H929      1.0  0.71438  0.79314  0.68069  1.0000
  H   H930      1.0  0.54865  0.97089  0.56850  1.0000
  C   C530      1.0  0.72560  0.84685  0.66070  1.0000
  C   C531      1.0  0.55053  0.87616  0.54987  1.0000
  S   S117      1.0  0.57232  0.68447  0.66913  1.0000
  H   H931      1.0  0.81906  0.66048  0.40121  1.0000
  H   H932      1.0  0.93140  0.65062  0.62758  1.0000
  H   H933      1.0  0.82902  0.56452  0.61436  1.0000
  H   H934      1.0  0.74286  0.87187  0.66513  1.0000
  C   C532      1.0  0.55479  0.90028  0.64041  1.0000
  H   H935      1.0  0.74296  0.84651  0.61563  1.0000
  C   C533      1.0  0.57571  0.83497  0.64519  1.0000
  C   C534      1.0  0.74263  0.82697  0.63453  1.0000
  H   H936      1.0  0.93824  0.63963  0.66542  1.0000
  H   H937      1.0  0.86708  0.59166  0.55857  1.0000
  H   H938      1.0  0.75680  0.51843  0.59589  1.0000
  C   C535      1.0  0.83972  0.58742  0.60072  1.0000
  C   C536      1.0  0.93352  0.57526  0.37115  1.0000
  H   H939      1.0  0.71908  0.54930  0.63346  1.0000
  H   H940      1.0  0.59880  0.98726  0.51616  1.0000
  H   H941      1.0  0.64110  0.57059  0.66823  1.0000
  H   H942      1.0  0.54558  0.58327  0.63581  1.0000
  H   H943      1.0  0.70030  0.54245  0.56812  1.0000
  H   H944      1.0  0.77359  0.65911  0.36954  1.0000
  C   C537      1.0  0.77766  0.68216  0.35364  1.0000
  H   H945      1.0  0.59813  0.01137  0.55043  1.0000
  H   H946      1.0  0.90723  0.58902  0.66629  1.0000
  H   H947      1.0  0.59078  0.82281  0.58137  1.0000
  C   C538      1.0  0.86035  0.55333  0.66688  1.0000
  C   C539      1.0  0.93658  0.54084  0.35695  1.0000
  H   H948      1.0  0.51818  0.85339  0.64671  1.0000
  H   H949      1.0  0.82950  0.55363  0.66827  1.0000
  H   H950      1.0  0.53548  0.85502  0.49297  1.0000
  H   H951      1.0  0.51651  0.82483  0.54714  1.0000
  C   C540      1.0  0.95040  0.52427  0.60294  1.0000
  H   H952      1.0  0.93347  0.70706  0.67789  1.0000
  H   H953      1.0  0.52368  0.84259  0.58351  1.0000
  C   C541      1.0  0.73093  0.55846  0.67860  1.0000
  H   H954      1.0  0.72863  0.58931  0.67529  1.0000
  C   C542      1.0  0.95680  0.51606  0.63237  1.0000
  S   S118      1.0  0.92419  0.61692  0.35161  1.0000
  H   H955      1.0  0.52645  0.90100  0.47737  1.0000
  H   H956      1.0  0.51905  0.95814  0.51846  1.0000
  C   C543      1.0  0.51372  0.87689  0.48880  1.0000
  H   H957      1.0  0.70848  0.64461  0.35688  1.0000
  C   C544      1.0  0.51637  0.58791  0.67706  1.0000
  H   H958      1.0  0.94961  0.57523  0.85066  1.0000
  S   S119      1.0  0.62716  0.73553  0.71007  1.0000
  S   S120      1.0  0.65016  0.64739  0.69656  1.0000
  Fe  Fe58      1.0  0.59959  0.67935  0.71283  1.0000
  S   S121      1.0  0.56731  0.66512  0.75360  1.0000
  H   H959      1.0  0.51214  0.99113  0.76659  1.0000
  H   H960      1.0  0.54211  0.58433  0.73451  1.0000
  Fe  Fe59      1.0  0.91775  0.60499  0.75726  1.0000
  S   S122      1.0  0.93441  0.54420  0.75399  1.0000
  S   S123      1.0  0.85411  0.60791  0.75611  1.0000
  H   H961      1.0  0.93927  0.59268  0.90192  1.0000
  H   H962      1.0  0.54559  0.54410  0.75699  1.0000
  H   H963      1.0  0.87284  0.60321  0.69172  1.0000
  C   C545      1.0  0.72615  0.94178  0.72120  1.0000
  H   H964      1.0  0.83649  0.52982  0.90919  1.0000
  H   H965      1.0  0.76664  0.78213  0.73023  1.0000
  S   S124      1.0  0.95521  0.61415  0.79621  1.0000
  S   S125      1.0  0.73603  0.71999  0.69677  1.0000
  H   H966      1.0  0.61018  0.59797  0.74119  1.0000
  Fe  Fe60      1.0  0.97894  0.56395  0.72408  1.0000
  H   H967      1.0  0.73564  0.77969  0.79208  1.0000
  C   C546      1.0  0.95326  0.56644  0.89689  1.0000
  C   C547      1.0  0.84661  0.55653  0.99733  1.0000
  C   C548      1.0  0.76879  0.68870  0.71320  1.0000
  Fe  Fe61      1.0  0.67527  0.70418  0.68957  1.0000
  H   H968      1.0  0.75121  0.87123  0.72156  1.0000
  C   C549      1.0  0.82232  0.63976  0.73925  1.0000
  C   C550      1.0  0.83319  0.67481  0.72866  1.0000
  C   C551      1.0  0.80644  0.69922  0.71571  1.0000
  H   H969      1.0  0.55213  0.01316  0.97855  1.0000
  H   H970      1.0  0.83527  0.55737  0.95176  1.0000
  H   H971      1.0  0.86202  0.68324  0.73085  1.0000
  H   H972      1.0  0.53431  0.81217  0.75144  1.0000
  C   C552      1.0  0.95932  0.55674  0.86786  1.0000
  C   C553      1.0  0.51807  0.66186  0.75242  1.0000
  H   H973      1.0  0.81493  0.72640  0.70775  1.0000
  C   C554      1.0  0.75807  0.65359  0.72362  1.0000
  H   H974      1.0  0.75338  0.55265  0.69491  1.0000
  H   H975      1.0  0.56452  0.77950  0.79249  1.0000
  Fe  Fe62      1.0  0.00003  0.62778  0.76367  1.0000
  H   H976      1.0  0.87471  0.56920  0.99524  1.0000
  C   C555      1.0  0.87483  0.52810  0.69156  1.0000
  H   H977      1.0  0.67444  0.91233  0.72027  1.0000
  C   C556      1.0  0.78470  0.62934  0.73667  1.0000
  H   H978      1.0  0.77607  0.60235  0.74498  1.0000
  N   N31       1.0  0.51686  0.53475  0.71617  1.0000
  H   H979      1.0  0.70391  0.54839  0.68719  1.0000
  H   H980      1.0  0.61302  0.55884  0.76635  1.0000
  C   C557      1.0  0.72040  0.87081  0.72499  1.0000
  S   S126      1.0  0.95814  0.55630  0.95538  1.0000
  S   S127      1.0  0.98925  0.52756  0.68505  1.0000
  H   H981      1.0  0.77973  0.76100  0.77958  1.0000
  Fe  Fe63      1.0  0.97453  0.55465  0.79028  1.0000
  H   H982      1.0  0.64427  0.56121  0.73583  1.0000
  H   H983      1.0  0.73681  0.74107  0.76665  1.0000
  C   C558      1.0  0.72564  0.82069  0.68762  1.0000
  C   C559      1.0  0.54690  0.55340  0.73393  1.0000
  H   H984      1.0  0.57995  0.86242  0.74064  1.0000
  H   H985      1.0  0.96451  0.66802  0.85834  1.0000
  H   H986      1.0  0.75567  0.81574  0.69274  1.0000
  C   C560      1.0  0.83596  0.53610  0.96943  1.0000
  S   S128      1.0  0.96055  0.62438  0.72494  1.0000
  C   C561      1.0  0.52067  0.78666  0.75992  1.0000
  H   H987      1.0  0.57277  0.75402  0.75944  1.0000
  C   C562      1.0  0.96542  0.54249  0.91940  1.0000
  C   C563      1.0  0.58755  0.54591  0.72438  1.0000
  C   C564      1.0  0.55100  0.76293  0.77510  1.0000
  C   C565      1.0  0.97767  0.52312  0.86119  1.0000
  H   H988      1.0  0.53866  0.73755  0.78516  1.0000
  N   N32       1.0  0.70471  0.83434  0.71397  1.0000
  C   C566      1.0  0.66363  0.83722  0.70631  1.0000
  H   H989      1.0  0.75497  0.93963  0.71249  1.0000
  C   C567      1.0  0.70935  0.80457  0.73739  1.0000
  H   H990      1.0  0.72921  0.64522  0.72193  1.0000
  C   C568      1.0  0.63681  0.84387  0.73215  1.0000
  C   C569      1.0  0.75004  0.79548  0.74763  1.0000
  C   C570      1.0  0.59803  0.85669  0.72166  1.0000
  C   C571      1.0  0.75039  0.76768  0.77309  1.0000
  H   H991      1.0  0.65433  0.81116  0.69532  1.0000
  C   C572      1.0  0.61533  0.56731  0.74317  1.0000
  H   H992      1.0  0.90583  0.52609  0.69122  1.0000
  H   H993      1.0  0.69656  0.77779  0.73020  1.0000
  H   H994      1.0  0.69414  0.81297  0.75732  1.0000
  H   H995      1.0  0.71686  0.87292  0.74896  1.0000
  H   H996      1.0  0.63322  0.81730  0.74456  1.0000
  H   H997      1.0  0.64789  0.86521  0.74725  1.0000
  H   H998      1.0  0.76452  0.82123  0.75471  1.0000
  H   H999      1.0  0.72748  0.94397  0.74525  1.0000
  H   H1000     1.0  0.59976  0.88285  0.70847  1.0000
  H   H1001     1.0  0.58492  0.83444  0.70839  1.0000
  C   C573      1.0  0.70328  0.90781  0.71219  1.0000
  H   H1002     1.0  0.83272  0.53532  0.85528  1.0000
  H   H1003     1.0  0.70163  0.90773  0.68821  1.0000
  H   H1004     1.0  0.88068  0.54951  0.86025  1.0000
  H   H1005     1.0  0.59148  0.55516  0.70170  1.0000
  H   H1006     1.0  0.80747  0.52474  0.97232  1.0000
  H   H1007     1.0  0.52536  0.76025  0.71864  1.0000
  H   H1008     1.0  0.86577  0.53929  0.71288  1.0000
  H   H1009     1.0  0.82594  0.57932  0.00155  1.0000
  H   H1010     1.0  0.65823  0.85976  0.69010  1.0000
  H   H1011     1.0  0.52470  0.88467  0.70229  1.0000
  H   H1012     1.0  0.84686  0.53693  0.01618  1.0000
  H   H1013     1.0  0.00267  0.69898  0.86634  1.0000
  H   H1014     1.0  0.88568  0.53054  0.91442  1.0000
  Fe  Fe64      1.0  0.97743  0.51812  0.99192  1.0000
  H   H1015     1.0  0.71278  0.96781  0.71233  1.0000
  C   C574      1.0  0.99442  0.67372  0.85398  1.0000
  H   H1016     1.0  0.53975  0.60300  0.68756  1.0000
  H   H1017     1.0  0.56295  0.52123  0.97506  1.0000
  H   H1018     1.0  0.99745  0.67945  0.83037  1.0000
  H   H1019     1.0  0.00790  0.61536  0.85091  1.0000
  H   H1020     1.0  0.59481  0.51574  0.72676  1.0000
  H   H1021     1.0  0.51375  0.66214  0.70587  1.0000
  H   H1022     1.0  0.51260  0.66131  0.79902  1.0000
  H   H1023     1.0  0.86949  0.51363  0.83444  1.0000
  C   C575      1.0  0.86225  0.52530  0.85602  1.0000
  H   H1024     1.0  0.89284  0.51594  0.96354  1.0000
  C   C576      1.0  0.51867  0.54543  0.68437  1.0000
