data_image0
_chemical_formula_structural       HSFeSHCS3CH2Fe2S2FeSHFeSFeS3CHC4H6C2H2C6H3C2HC2H8NH6CH2CH2CHSH2CFeHC2H3C2HC3H2SCH2CH2C2H2CHCH4CHCHCHCH4NH2CH4CFeH4CH2CHC3H3CSCH2SH4CH2CH2NH2Fe2C2H2CSCFeSH2FeHSCHFeS2FeS2FeSFeS3FeS2FeS2FeSFeS3FeS2FeS2FeSFeS3C6H4C6H4C6H4CHC5H3C6H7C7H4CH5NCH3C2H2NC12H32SH2CHCHC2H2CHCH3NHCHCH2C5H14C2HSCNC12H29C2HSHC3H3CHC2H4CH4CH4CNHCH2CNC2HCH2C2HCNCHCH5C3HCH8CH4CH2C2H3CHCH2CHC2H8CHC3HCH2C2HCHCNC2H2C3H2CHCH8CH3C3HC2H15NH3CH7C2H8C2H2CH7C2H3SH15CSHCH3C2HC2HCH6CHCHNH3C3H3CHCH2C3HCH3C5H2CH2FeS2FeNFeS3HC2H3CH3CH4C3H4C2FeH2CH2C2H4SHCH6CH4CSCH2CH4C2H5C3H4CHCSCH2CHSHCHC2HSHSH4CH2FeSCHSFeHFeSNSCSH4FeSHFeSHSC2SHFeS2FeS2FeHFeS3HCH2C6H2CHCHC4H6C6H4C6H5C2H9CH5C2H3CH5CH2CHCHCNC12H18CH6CH3CH2C2H2C2HCHSC3HSH5CH3C3H5CSCHCSH4CHC3HC2FeH2C2HCH5CH4C2H2NH5CH3NH4C4HCHCNC4H8FeH8CH3SHC2H2SCHFeH2CNFeSH4CH5C2H5FeS2FeS2FeHFeHS2FeS2FeSCFeSFeSFeS4FeS2HC4H5NHC6H5C6H4SHC5H4C6HCH6C6H8C2NC5HCH16CH6CH2C4HCH8SH3CHSCH3C3H2CH5CH10CH6CH3CHC2HCHCHC2H2CH3SCH4CSH2C2H3CHCHCHCHCHCH2CFeC2H3C2HCH4CH2C3H6CH3CHC2HC2HC3NH2CNC2HC2H7CH9NC12H19SH2CH3CH4CS2H3SCHCNHCHCH5C2H5CH2CHSHSH4CH2C2HCHC2H3CHC2H2CNC2H2CH3CHC2HC2SHCHCH2C2H6C2N2HCH4CH3CFeSH5CH2CH4C2H2FeSHFeS2FeSFeS3FeHSFeSHFeHFeCS2FeS2FeSCFeSFeS3FeSHFeS2FeHFeHS2FeS2FeS2FeSFeS4HC6H7C7H4C6H2CH2CHC4H7C6H4C6H4C6H3C4H2SH3CH4NC12H28CH2CH6CHNH8C2H2C2H5SHC2HNCH6C3H4CH2CH3C2H5CH2C2H2C4HCHC2H3CNCH8SHCHCH2CHCH3C5H2CHCH4CH3CH5CH2C2H3CHC3SHNHC2H2CH9CH9CH4CH2NHCHCH3CH4SHC2HC3H2CH2CHCHCH3C2HCHNCH2C2H3CHCHCH3CHCH3CHC2H5CH9NCHCH2CSFeH2SHCH3CH4CSHCH2C4HC2H4FeS2FeS2FeSFeS3FeS2FeS2FeSFeS3FeSFeS2FeSFeS3FeCSFeS2FeHCHS2FeHFeS2Fe2HS3HCHC2H3CH2C6H4C6H4C6H6C6H4C6H4C6H4CHC3H3C3HFeC2NC6HSHC2H14CH4CH7CH2CH2C2H5CH2NC11H25CHCHNC11H26C4HCH7CHCH3CHC2H2CH5C2H5CHCH7SCH2NC7H8CH12SC2H6C2H7C2H2CH4CHC6H3CH7NH3C2H4C2H5C2HCH3CHC2H2C4HCHCHCH2CHC2HCH2NH3CH3CHCH2CH3C3HCHC2NSC3HCHCHCH6NH2C2HCH2CH7CH4C2H2CHCH3CH2NC2H5NH4CHCH2CH7CHCHC2HCH4FeS2FeS2FeSFeS3FeS2FeCFeH2S2FeS2FeS2FeSFeS3CSFeSHFeSFeS2FeS2HC6H7CSC3H2C6H4C2HCHCH3CHCHCH3C5H5CHC6H4C2HC2H2NC12H28CSCNC3H4CHCH6C2H4FeH2CHFeH2NH2C2H2CHC3NH2C2H2CHCH3C2SC2H6CH2CH8CH2CHFeCH7CHC2H4C3H4CHCH2CH2C2H2CH2CH5C4H3SH3C3H2NC2H4CH2CH2C2H6CS2CH6SCH2CHCHC2H4CH3C4HNH4CHCH4FeCHSH4CH2CH3CNH2CH5CH2SH11C2HCH5CHFeCH2CH2C3H2CHSHCHCH5C2NHC3NH7CH2CH3CHC3H2CH3CHC2H2CH5CH3CSC3H2CHCSH3C2H5CH4C2H5CH4C2H2CH3NFeS2HC2H3SHCH2CH2SH5NH4C6H4CSHCHCHC3H4C3H2C2HSH4C2H5CFeH6CH2CH5C2H9CSCH3CHCH3CH2C4HNFeH2SCHFeSHFeSHSH2CFeHCH2CH4C6H7CNC8SC3H14CH13CH4CNC2H4C2H3C3H2C2H3NHCHCH3C3H7CH2C2SHCH3CH3C2H2FeS2FeS2FeSFeS3FeS2FeS2Fe2S3FeS2FeS2FeSFeHS2FeS2FeSFeSFeS3FeS2FeS2FeSFeS3FeS2CHC6H4C6H5CH3C6H4C6H4C6H4C6H2CHC3SH2C6H5CH2C2HNC8HCH17CHCH3NC12H28NC12H29CHCH2CHCH2C2H8CHC4HCHCHCH2CH2C3H6CH6C3H7CH2CNC12H28NC10HCH20SC3H4CH3CH6C3H2CH4C3FeH3CH3CH2NCNH6CH4CH13CSCH5C2NH2C2H2C2H4C2SH2CH4CHCHC2H5CH2C3H4CH2NHCHC2H7C3HCH2FeS2H2CHC2H2CHCH5CSCH3CHSH3CHFeH4NH3C
_chemical_formula_sum              "H2304 S288 Fe144 C1296 N72"
_cell_length_a       86.7418
_cell_length_b       84.4513
_cell_length_c       36.6181
_cell_angle_alpha    90.5342
_cell_angle_beta     90.2435
_cell_angle_gamma    111.836

_space_group_name_H-M_alt    "P 1"
_space_group_IT_number       1

loop_
  _space_group_symop_operation_xyz
  'x, y, z'

loop_
  _atom_site_type_symbol
  _atom_site_label
  _atom_site_symmetry_multiplicity
  _atom_site_fract_x
  _atom_site_fract_y
  _atom_site_fract_z
  _atom_site_occupancy
  H   H1        1.0  0.00461  0.43640  0.97688  1.0000
  S   S1        1.0  0.15327  0.46629  0.57555  1.0000
  Fe  Fe1       1.0  0.14253  0.47250  0.71458  1.0000
  S   S2        1.0  0.12072  0.45602  0.75106  1.0000
  H   H2        1.0  0.05663  0.39459  0.93857  1.0000
  C   C1        1.0  0.23008  0.47115  0.67252  1.0000
  S   S3        1.0  0.16156  0.46531  0.68276  1.0000
  S   S4        1.0  0.14892  0.46809  0.32481  1.0000
  S   S5        1.0  0.19407  0.47104  0.29401  1.0000
  C   C2        1.0  0.99265  0.39201  0.97785  1.0000
  H   H3        1.0  0.11985  0.41972  0.94089  1.0000
  H   H4        1.0  0.22328  0.48105  0.44167  1.0000
  Fe  Fe2       1.0  0.13900  0.47980  0.27879  1.0000
  Fe  Fe3       1.0  0.03835  0.42232  0.98900  1.0000
  S   S6        1.0  0.06484  0.42265  0.98810  1.0000
  S   S7        1.0  0.01472  0.39977  0.96879  1.0000
  Fe  Fe4       1.0  0.05110  0.45949  0.00886  1.0000
  S   S8        1.0  0.07787  0.46284  0.00877  1.0000
  H   H5        1.0  0.23325  0.46156  0.35785  1.0000
  Fe  Fe5       1.0  0.07204  0.44727  0.95662  1.0000
  S   S9        1.0  0.09302  0.45782  0.91368  1.0000
  Fe  Fe6       1.0  0.06969  0.43861  0.04032  1.0000
  S   S10       1.0  0.08914  0.43830  0.08358  1.0000
  S   S11       1.0  0.04560  0.44609  0.95463  1.0000
  S   S12       1.0  0.04279  0.43612  0.04361  1.0000
  C   C3        1.0  0.10787  0.46070  0.19958  1.0000
  H   H6        1.0  0.13635  0.47476  0.81866  1.0000
  C   C4        1.0  0.11175  0.44841  0.14113  1.0000
  C   C5        1.0  0.09594  0.44710  0.12837  1.0000
  C   C6        1.0  0.08610  0.45257  0.15167  1.0000
  C   C7        1.0  0.09198  0.45920  0.18696  1.0000
  H   H7        1.0  0.07696  0.40141  0.80859  1.0000
  H   H8        1.0  0.07535  0.37246  0.78942  1.0000
  H   H9        1.0  0.07382  0.45142  0.14277  1.0000
  H   H10       1.0  0.08411  0.46315  0.20472  1.0000
  H   H11       1.0  0.20633  0.45179  0.38676  1.0000
  H   H12       1.0  0.03181  0.37772  0.89796  1.0000
  C   C8        1.0  0.15060  0.46556  0.50029  1.0000
  C   C9        1.0  0.15258  0.47558  0.53225  1.0000
  H   H13       1.0  0.01230  0.46723  0.96984  1.0000
  H   H14       1.0  0.07089  0.48903  0.97390  1.0000
  C   C10       1.0  0.11308  0.45797  0.79576  1.0000
  C   C11       1.0  0.09619  0.44882  0.80358  1.0000
  C   C12       1.0  0.08971  0.44920  0.83887  1.0000
  C   C13       1.0  0.10013  0.45824  0.86750  1.0000
  C   C14       1.0  0.11692  0.46776  0.85947  1.0000
  C   C15       1.0  0.12333  0.46773  0.82392  1.0000
  H   H15       1.0  0.08806  0.44133  0.78210  1.0000
  H   H16       1.0  0.07670  0.44227  0.84407  1.0000
  H   H17       1.0  0.12515  0.47491  0.88115  1.0000
  C   C16       1.0  0.21477  0.46508  0.39326  1.0000
  C   C17       1.0  0.19608  0.47430  0.48335  1.0000
  H   H18       1.0  0.99435  0.40524  0.02902  1.0000
  C   C18       1.0  0.22174  0.49241  0.70286  1.0000
  C   C19       1.0  0.00170  0.44390  0.99908  1.0000
  H   H19       1.0  0.02441  0.40683  0.85625  1.0000
  H   H20       1.0  0.01181  0.44717  0.01987  1.0000
  H   H21       1.0  0.19586  0.48615  0.39399  1.0000
  H   H22       1.0  0.10019  0.39939  0.89836  1.0000
  H   H23       1.0  0.12988  0.45608  0.18537  1.0000
  H   H24       1.0  0.21002  0.43470  0.75219  1.0000
  H   H25       1.0  0.11543  0.43103  0.90322  1.0000
  H   H26       1.0  0.14833  0.46446  0.44118  1.0000
  N   N1        1.0  0.19636  0.47155  0.44248  1.0000
  H   H27       1.0  0.02965  0.42636  0.88212  1.0000
  H   H28       1.0  0.14916  0.45232  0.50264  1.0000
  H   H29       1.0  0.04508  0.39310  0.84979  1.0000
  H   H30       1.0  0.20053  0.45103  0.49981  1.0000
  H   H31       1.0  0.03158  0.37179  0.96413  1.0000
  H   H32       1.0  0.18888  0.47104  0.55701  1.0000
  C   C20       1.0  0.21473  0.44716  0.76697  1.0000
  H   H33       1.0  0.98982  0.43576  0.01170  1.0000
  H   H34       1.0  0.22352  0.46498  0.27393  1.0000
  C   C21       1.0  0.09538  0.40703  0.91654  1.0000
  H   H35       1.0  0.09354  0.37516  0.81720  1.0000
  H   H36       1.0  0.18456  0.44406  0.43641  1.0000
  C   C22       1.0  0.15023  0.47243  0.46535  1.0000
  H   H37       1.0  0.19271  0.45182  0.56488  1.0000
  S   S13       1.0  0.04290  0.48098  0.02270  1.0000
  H   H38       1.0  0.18380  0.45761  0.37143  1.0000
  H   H39       1.0  0.04137  0.35656  0.95530  1.0000
  C   C23       1.0  0.19626  0.46344  0.54787  1.0000
  Fe  Fe7       1.0  0.15539  0.47797  0.63328  1.0000
  H   H40       1.0  0.04161  0.36270  0.88847  1.0000
  C   C24       1.0  0.08693  0.38193  0.80144  1.0000
  C   C25       1.0  0.03326  0.36279  0.94357  1.0000
  H   H41       1.0  0.21845  0.45764  0.74682  1.0000
  H   H42       1.0  0.98620  0.37661  0.92872  1.0000
  H   H43       1.0  0.17092  0.45421  0.45020  1.0000
  C   C26       1.0  0.04071  0.37222  0.90858  1.0000
  C   C27       1.0  0.99669  0.47105  0.01404  1.0000
  H   H44       1.0  0.10328  0.48906  0.67840  1.0000
  C   C28       1.0  0.22744  0.47689  0.28913  1.0000
  C   C29       1.0  0.05532  0.40362  0.86372  1.0000
  C   C30       1.0  0.11004  0.42320  0.92757  1.0000
  H   H45       1.0  0.21393  0.45907  0.44964  1.0000
  H   H46       1.0  0.16813  0.46414  0.39038  1.0000
  S   S14       1.0  0.11460  0.46944  0.24453  1.0000
  C   C31       1.0  0.07164  0.38548  0.85809  1.0000
  H   H47       1.0  0.05745  0.42648  0.89596  1.0000
  H   H48       1.0  0.15605  0.43689  0.35665  1.0000
  C   C32       1.0  0.21249  0.46948  0.43344  1.0000
  H   H49       1.0  0.08311  0.48465  0.14994  1.0000
  H   H50       1.0  0.02087  0.35282  0.93748  1.0000
  C   C33       1.0  0.19508  0.48700  0.42414  1.0000
  C   C34       1.0  0.06290  0.48602  0.11806  1.0000
  H   H51       1.0  0.98853  0.48098  0.94529  1.0000
  H   H52       1.0  0.00687  0.47377  0.03455  1.0000
  C   C35       1.0  0.21769  0.47754  0.68164  1.0000
  H   H53       1.0  0.22676  0.45944  0.65678  1.0000
  C   C36       1.0  0.05805  0.38625  0.91625  1.0000
  H   H54       1.0  0.07796  0.37819  0.87319  1.0000
  H   H55       1.0  0.04134  0.40738  0.91154  1.0000
  H   H56       1.0  0.09061  0.39972  0.94179  1.0000
  H   H57       1.0  0.21409  0.48803  0.22024  1.0000
  C   C37       1.0  0.00037  0.46008  0.98346  1.0000
  H   H58       1.0  0.15077  0.43404  0.40433  1.0000
  C   C38       1.0  0.18159  0.45566  0.43203  1.0000
  H   H59       1.0  0.06040  0.37559  0.84567  1.0000
  C   C39       1.0  0.03483  0.41866  0.86490  1.0000
  H   H60       1.0  0.08731  0.47802  0.75341  1.0000
  C   C40       1.0  0.08161  0.41158  0.89743  1.0000
  H   H61       1.0  0.20451  0.44826  0.78367  1.0000
  H   H62       1.0  0.08736  0.42045  0.87483  1.0000
  H   H63       1.0  0.06210  0.41208  0.84131  1.0000
  H   H64       1.0  0.10601  0.43097  0.94723  1.0000
  N   N2        1.0  0.06665  0.39673  0.88390  1.0000
  H   H65       1.0  0.06584  0.37971  0.92832  1.0000
  H   H66       1.0  0.18634  0.47947  0.49045  1.0000
  C   C41       1.0  0.11772  0.45524  0.17623  1.0000
  H   H67       1.0  0.16671  0.42721  0.38589  1.0000
  H   H68       1.0  0.11660  0.48063  0.99775  1.0000
  H   H69       1.0  0.09503  0.40410  0.83595  1.0000
  H   H70       1.0  0.23349  0.46107  0.80578  1.0000
  C   C42       1.0  0.08301  0.39467  0.82594  1.0000
  Fe  Fe8       1.0  0.17429  0.48257  0.30094  1.0000
  H   H71       1.0  0.11380  0.48305  0.13115  1.0000
  H   H72       1.0  0.07784  0.41937  0.91744  1.0000
  H   H73       1.0  0.17954  0.44962  0.50542  1.0000
  H   H74       1.0  0.10250  0.47034  0.70341  1.0000
  C   C43       1.0  0.23250  0.46626  0.38597  1.0000
  H   H75       1.0  0.09508  0.38883  0.77878  1.0000
  H   H76       1.0  0.20496  0.47078  0.67295  1.0000
  C   C44       1.0  0.21546  0.48304  0.30204  1.0000
  H   H77       1.0  0.11947  0.44408  0.12371  1.0000
  C   C45       1.0  0.17427  0.45476  0.39288  1.0000
  C   C46       1.0  0.16115  0.43711  0.38462  1.0000
  C   C47       1.0  0.19276  0.45834  0.50762  1.0000
  H   H78       1.0  0.04063  0.42619  0.84047  1.0000
  H   H79       1.0  0.22493  0.43851  0.81271  1.0000
  H   H80       1.0  0.21214  0.47384  0.37435  1.0000
  C   C48       1.0  0.04767  0.41428  0.88698  1.0000
  S   S15       1.0  0.16409  0.49245  0.25328  1.0000
  C   C49       1.0  0.22945  0.44856  0.79163  1.0000
  H   H81       1.0  0.11616  0.48364  0.06477  1.0000
  H   H82       1.0  0.20810  0.48409  0.49279  1.0000
  S   S16       1.0  0.13492  0.48257  0.66348  1.0000
  H   H83       1.0  0.09796  0.48678  0.81046  1.0000
  H   H84       1.0  0.08987  0.47792  0.08992  1.0000
  H   H85       1.0  0.20967  0.47101  0.55234  1.0000
  H   H86       1.0  0.08148  0.48275  0.86910  1.0000
  C   C50       1.0  0.09623  0.47945  0.69878  1.0000
  H   H87       1.0  0.18258  0.48743  0.42940  1.0000
  H   H88       1.0  0.08365  0.47220  0.68745  1.0000
  C   C51       1.0  0.09481  0.48818  0.73458  1.0000
  H   H89       1.0  0.11760  0.48905  0.76036  1.0000
  H   H90       1.0  0.19338  0.48679  0.20997  1.0000
  N   N3        1.0  0.99508  0.48747  0.00213  1.0000
  H   H91       1.0  0.13780  0.48993  0.18321  1.0000
  H   H92       1.0  0.05560  0.48594  0.14294  1.0000
  Fe  Fe9       1.0  0.15361  0.49227  0.35791  1.0000
  Fe  Fe10      1.0  0.17969  0.49178  0.69666  1.0000
  C   C52       1.0  0.15185  0.48945  0.46187  1.0000
  C   C53       1.0  0.09191  0.49167  0.09409  1.0000
  H   H93       1.0  0.05876  0.47279  0.10688  1.0000
  H   H94       1.0  0.99038  0.45601  0.96244  1.0000
  C   C54       1.0  0.15404  0.49257  0.52879  1.0000
  S   S17       1.0  0.17430  0.50399  0.64622  1.0000
  C   C55       1.0  0.11219  0.49850  0.75174  1.0000
  Fe  Fe11      1.0  0.15434  0.50768  0.68005  1.0000
  S   S18       1.0  0.14513  0.52935  0.67834  1.0000
  H   H95       1.0  0.12438  0.57076  0.47805  1.0000
  H   H96       1.0  0.15486  0.67935  0.22220  1.0000
  Fe  Fe12      1.0  0.16686  0.51458  0.29058  1.0000
  H   H97       1.0  0.05651  0.65146  0.98219  1.0000
  S   S19       1.0  0.17724  0.54132  0.26835  1.0000
  C   C56       1.0  0.16449  0.68327  0.24402  1.0000
  H   H98       1.0  0.12058  0.55236  0.06131  1.0000
  Fe  Fe13      1.0  0.18763  0.66332  0.71742  1.0000
  S   S20       1.0  0.16202  0.65827  0.69365  1.0000
  S   S21       1.0  0.20390  0.69149  0.72681  1.0000
  Fe  Fe14      1.0  0.18155  0.62520  0.71682  1.0000
  S   S22       1.0  0.15640  0.61862  0.69201  1.0000
  S   S23       1.0  0.19124  0.60413  0.72774  1.0000
  Fe  Fe15      1.0  0.16819  0.64068  0.65454  1.0000
  S   S24       1.0  0.16519  0.63427  0.59315  1.0000
  Fe  Fe16      1.0  0.15295  0.63659  0.73425  1.0000
  S   S25       1.0  0.12841  0.62410  0.76575  1.0000
  S   S26       1.0  0.19379  0.64635  0.67734  1.0000
  S   S27       1.0  0.17810  0.64271  0.76009  1.0000
  Fe  Fe17      1.0  0.19610  0.65856  0.32421  1.0000
  S   S28       1.0  0.17625  0.66938  0.33109  1.0000
  S   S29       1.0  0.22188  0.67312  0.30191  1.0000
  Fe  Fe18      1.0  0.17414  0.62398  0.35392  1.0000
  S   S30       1.0  0.15301  0.63270  0.36289  1.0000
  S   S31       1.0  0.16884  0.59728  0.37390  1.0000
  Fe  Fe19      1.0  0.15893  0.64416  0.30682  1.0000
  S   S32       1.0  0.13713  0.63970  0.26652  1.0000
  Fe  Fe20      1.0  0.17229  0.65657  0.38619  1.0000
  S   S33       1.0  0.16885  0.66948  0.43916  1.0000
  S   S34       1.0  0.17910  0.63408  0.29693  1.0000
  S   S35       1.0  0.19314  0.64721  0.38038  1.0000
  Fe  Fe21      1.0  0.06364  0.58317  0.02322  1.0000
  S   S36       1.0  0.08160  0.57509  0.05610  1.0000
  S   S37       1.0  0.03598  0.57109  0.04080  1.0000
  Fe  Fe22      1.0  0.09187  0.60592  0.97348  1.0000
  S   S38       1.0  0.11115  0.59893  0.00259  1.0000
  S   S39       1.0  0.10038  0.62571  0.92762  1.0000
  Fe  Fe23      1.0  0.09211  0.57248  0.00160  1.0000
  S   S40       1.0  0.09947  0.55079  0.98393  1.0000
  Fe  Fe24      1.0  0.09965  0.60234  0.05591  1.0000
  S   S41       1.0  0.12025  0.61338  0.10011  1.0000
  S   S42       1.0  0.07345  0.57885  0.96860  1.0000
  S   S43       1.0  0.08109  0.61111  0.02679  1.0000
  C   C57       1.0  0.13287  0.63263  0.21999  1.0000
  C   C58       1.0  0.14484  0.63045  0.19713  1.0000
  C   C59       1.0  0.14081  0.62492  0.16049  1.0000
  C   C60       1.0  0.12466  0.62106  0.14626  1.0000
  C   C61       1.0  0.11269  0.62323  0.16914  1.0000
  C   C62       1.0  0.11681  0.62907  0.20558  1.0000
  H   H99       1.0  0.15719  0.63296  0.20764  1.0000
  H   H100      1.0  0.15021  0.62333  0.14314  1.0000
  H   H101      1.0  0.10026  0.62047  0.15875  1.0000
  H   H102      1.0  0.10742  0.63073  0.22283  1.0000
  C   C63       1.0  0.16937  0.64717  0.55355  1.0000
  C   C64       1.0  0.16196  0.65911  0.54784  1.0000
  C   C65       1.0  0.16245  0.66633  0.51303  1.0000
  C   C66       1.0  0.17001  0.66143  0.48338  1.0000
  C   C67       1.0  0.17805  0.65008  0.48952  1.0000
  C   C68       1.0  0.17785  0.64314  0.52447  1.0000
  H   H103      1.0  0.15504  0.66206  0.56960  1.0000
  H   H104      1.0  0.15624  0.67515  0.50862  1.0000
  H   H105      1.0  0.18414  0.64641  0.46711  1.0000
  H   H106      1.0  0.18366  0.63395  0.52855  1.0000
  C   C69       1.0  0.12165  0.62453  0.81180  1.0000
  C   C70       1.0  0.10655  0.61188  0.82261  1.0000
  C   C71       1.0  0.10031  0.61175  0.85825  1.0000
  C   C72       1.0  0.10895  0.62442  0.88377  1.0000
  C   C73       1.0  0.12383  0.63737  0.87272  1.0000
  C   C74       1.0  0.13034  0.63724  0.83730  1.0000
  H   H107      1.0  0.09949  0.60220  0.80302  1.0000
  H   H108      1.0  0.08844  0.60224  0.86553  1.0000
  H   H109      1.0  0.13035  0.64763  0.89162  1.0000
  H   H110      1.0  0.14180  0.64727  0.82938  1.0000
  C   C75       1.0  0.10894  0.52515  0.76741  1.0000
  H   H111      1.0  0.01525  0.61756  0.01399  1.0000
  C   C76       1.0  0.08353  0.51627  0.97782  1.0000
  C   C77       1.0  0.08319  0.53147  0.99250  1.0000
  C   C78       1.0  0.07018  0.53110  0.01526  1.0000
  C   C79       1.0  0.05784  0.51553  0.02452  1.0000
  C   C80       1.0  0.21603  0.55028  0.20404  1.0000
  H   H112      1.0  0.09358  0.51652  0.96019  1.0000
  H   H113      1.0  0.06970  0.54274  0.02636  1.0000
  H   H114      1.0  0.04814  0.51529  0.04321  1.0000
  C   C81       1.0  0.17561  0.55699  0.29837  1.0000
  C   C82       1.0  0.16833  0.55253  0.33264  1.0000
  C   C83       1.0  0.16648  0.56507  0.35567  1.0000
  C   C84       1.0  0.17186  0.58210  0.34456  1.0000
  C   C85       1.0  0.17941  0.58663  0.31054  1.0000
  C   C86       1.0  0.18137  0.57408  0.28757  1.0000
  H   H115      1.0  0.16399  0.53939  0.34132  1.0000
  H   H116      1.0  0.16072  0.56151  0.38204  1.0000
  H   H117      1.0  0.18379  0.59978  0.30202  1.0000
  H   H118      1.0  0.18718  0.57759  0.26123  1.0000
  H   H119      1.0  0.09403  0.58695  0.15565  1.0000
  H   H120      1.0  0.10981  0.56567  0.79115  1.0000
  H   H121      1.0  0.01905  0.56447  0.96842  1.0000
  C   C87       1.0  0.16046  0.53149  0.79919  1.0000
  C   C88       1.0  0.15779  0.54942  0.69611  1.0000
  C   C89       1.0  0.15112  0.56212  0.69896  1.0000
  C   C90       1.0  0.16117  0.57872  0.70981  1.0000
  C   C91       1.0  0.17804  0.58290  0.71734  1.0000
  C   C92       1.0  0.18453  0.56996  0.71617  1.0000
  C   C93       1.0  0.17440  0.55320  0.70568  1.0000
  H   H122      1.0  0.13820  0.55920  0.69218  1.0000
  H   H123      1.0  0.15574  0.58819  0.71259  1.0000
  H   H124      1.0  0.19750  0.57297  0.72276  1.0000
  H   H125      1.0  0.17954  0.54333  0.70425  1.0000
  C   C94       1.0  0.22290  0.70628  0.30811  1.0000
  H   H126      1.0  0.20942  0.66614  0.56148  1.0000
  H   H127      1.0  0.02063  0.61396  0.07865  1.0000
  H   H128      1.0  0.08906  0.56692  0.13181  1.0000
  H   H129      1.0  0.18732  0.69094  0.11920  1.0000
  H   H130      1.0  0.09934  0.53606  0.81211  1.0000
  N   N4        1.0  0.11027  0.50223  0.09687  1.0000
  C   C95       1.0  0.22534  0.70213  0.71703  1.0000
  H   H131      1.0  0.10115  0.49815  0.02146  1.0000
  H   H132      1.0  0.98770  0.62397  0.93360  1.0000
  H   H133      1.0  0.22487  0.72698  0.72917  1.0000
  C   C96       1.0  0.22253  0.65602  0.59848  1.0000
  C   C97       1.0  0.22069  0.49837  0.32190  1.0000
  H   H134      1.0  0.20957  0.70077  0.31132  1.0000
  H   H135      1.0  0.16420  0.67165  0.25812  1.0000
  N   N5        1.0  0.13221  0.58378  0.88919  1.0000
  C   C98       1.0  0.14557  0.58409  0.86249  1.0000
  C   C99       1.0  0.13160  0.57223  0.92100  1.0000
  C   C100      1.0  0.11575  0.57649  0.86914  1.0000
  C   C101      1.0  0.13448  0.60146  0.90250  1.0000
  C   C102      1.0  0.15072  0.61126  0.92380  1.0000
  C   C103      1.0  0.14749  0.59541  0.82824  1.0000
  C   C104      1.0  0.09987  0.57273  0.89242  1.0000
  C   C105      1.0  0.14817  0.57090  0.93372  1.0000
  C   C106      1.0  0.14586  0.56107  0.96946  1.0000
  C   C107      1.0  0.15264  0.62975  0.93103  1.0000
  C   C108      1.0  0.16104  0.59421  0.80311  1.0000
  C   C109      1.0  0.08421  0.56432  0.86916  1.0000
  H   H136      1.0  0.14330  0.57085  0.85279  1.0000
  H   H137      1.0  0.15798  0.58858  0.87578  1.0000
  H   H138      1.0  0.12588  0.57601  0.94509  1.0000
  H   H139      1.0  0.12336  0.55879  0.91450  1.0000
  H   H140      1.0  0.11460  0.56430  0.85536  1.0000
  H   H141      1.0  0.11500  0.58525  0.84743  1.0000
  H   H142      1.0  0.13348  0.60940  0.87934  1.0000
  H   H143      1.0  0.12428  0.60104  0.92118  1.0000
  H   H144      1.0  0.16183  0.61153  0.90863  1.0000
  H   H145      1.0  0.15040  0.60528  0.95080  1.0000
  H   H146      1.0  0.13593  0.59146  0.81169  1.0000
  H   H147      1.0  0.15105  0.60904  0.83616  1.0000
  H   H148      1.0  0.09935  0.58459  0.90454  1.0000
  H   H149      1.0  0.09928  0.56390  0.91484  1.0000
  H   H150      1.0  0.15246  0.56386  0.91282  1.0000
  H   H151      1.0  0.15814  0.58355  0.93806  1.0000
  H   H152      1.0  0.13620  0.54806  0.96616  1.0000
  H   H153      1.0  0.15773  0.55988  0.97758  1.0000
  H   H154      1.0  0.14206  0.56790  0.99164  1.0000
  H   H155      1.0  0.16377  0.63620  0.94844  1.0000
  H   H156      1.0  0.15429  0.63676  0.90490  1.0000
  H   H157      1.0  0.14157  0.63033  0.94535  1.0000
  H   H158      1.0  0.16204  0.60235  0.77888  1.0000
  H   H159      1.0  0.17328  0.59881  0.81730  1.0000
  H   H160      1.0  0.15801  0.58088  0.79341  1.0000
  H   H161      1.0  0.07307  0.56227  0.88618  1.0000
  H   H162      1.0  0.08396  0.57255  0.84585  1.0000
  H   H163      1.0  0.08360  0.55174  0.85855  1.0000
  H   H164      1.0  0.17740  0.55560  0.62657  1.0000
  H   H165      1.0  0.12255  0.54490  0.57145  1.0000
  H   H166      1.0  0.06119  0.63361  0.92794  1.0000
  H   H167      1.0  0.13253  0.50400  0.06746  1.0000
  S   S44       1.0  0.17923  0.50590  0.33560  1.0000
  H   H168      1.0  0.17589  0.53353  0.53863  1.0000
  H   H169      1.0  0.98955  0.54897  0.95017  1.0000
  C   C110      1.0  0.19033  0.66900  0.21606  1.0000
  H   H170      1.0  0.21025  0.49875  0.18059  1.0000
  C   C111      1.0  0.01053  0.61917  0.93794  1.0000
  H   H171      1.0  0.20673  0.50715  0.46553  1.0000
  C   C112      1.0  0.22421  0.55757  0.30123  1.0000
  C   C113      1.0  0.99313  0.54946  0.97861  1.0000
  H   H172      1.0  0.19938  0.65914  0.60432  1.0000
  H   H173      1.0  0.22501  0.65567  0.62820  1.0000
  C   C114      1.0  0.12992  0.59304  0.57965  1.0000
  H   H174      1.0  0.16050  0.53906  0.82417  1.0000
  C   C115      1.0  0.12231  0.57526  0.50564  1.0000
  H   H175      1.0  0.21518  0.56777  0.34759  1.0000
  H   H176      1.0  0.08143  0.56720  0.17734  1.0000
  H   H177      1.0  0.13405  0.61512  0.54688  1.0000
  N   N6        1.0  0.13090  0.59437  0.50869  1.0000
  H   H178      1.0  0.12497  0.59543  0.45116  1.0000
  C   C116      1.0  0.18053  0.54980  0.60182  1.0000
  H   H179      1.0  0.18169  0.53206  0.46898  1.0000
  C   C117      1.0  0.21945  0.68459  0.60719  1.0000
  H   H180      1.0  0.17026  0.69420  0.66344  1.0000
  H   H181      1.0  0.22066  0.68367  0.63734  1.0000
  C   C118      1.0  0.14939  0.59876  0.50775  1.0000
  C   C119      1.0  0.13548  0.62155  0.47057  1.0000
  C   C120      1.0  0.15616  0.59311  0.47288  1.0000
  C   C121      1.0  0.12675  0.62891  0.44297  1.0000
  C   C122      1.0  0.17513  0.60115  0.47189  1.0000
  H   H182      1.0  0.15340  0.59280  0.53093  1.0000
  H   H183      1.0  0.15600  0.61265  0.51200  1.0000
  H   H184      1.0  0.14786  0.62324  0.45937  1.0000
  H   H185      1.0  0.13737  0.62926  0.49602  1.0000
  H   H186      1.0  0.15254  0.57904  0.47241  1.0000
  H   H187      1.0  0.15137  0.59681  0.44756  1.0000
  H   H188      1.0  0.12361  0.57898  0.57916  1.0000
  H   H189      1.0  0.19094  0.61197  0.61683  1.0000
  H   H190      1.0  0.12441  0.62155  0.41688  1.0000
  H   H191      1.0  0.11477  0.62871  0.45401  1.0000
  H   H192      1.0  0.13471  0.64237  0.43724  1.0000
  H   H193      1.0  0.17922  0.61504  0.46669  1.0000
  H   H194      1.0  0.18074  0.59921  0.49792  1.0000
  H   H195      1.0  0.17982  0.59529  0.44940  1.0000
  C   C123      1.0  0.00095  0.63108  0.94097  1.0000
  C   C124      1.0  0.10908  0.54745  0.07782  1.0000
  H   H196      1.0  0.22090  0.50539  0.43114  1.0000
  S   S45       1.0  0.15172  0.49901  0.41859  1.0000
  C   C125      1.0  0.18215  0.69322  0.22898  1.0000
  N   N7        1.0  0.12728  0.57828  0.23123  1.0000
  C   C126      1.0  0.13060  0.58899  0.26580  1.0000
  C   C127      1.0  0.14176  0.58515  0.20523  1.0000
  C   C128      1.0  0.11217  0.57964  0.21287  1.0000
  C   C129      1.0  0.12350  0.55972  0.23908  1.0000
  C   C130      1.0  0.13682  0.55558  0.26084  1.0000
  C   C131      1.0  0.11670  0.58343  0.29488  1.0000
  C   C132      1.0  0.10784  0.57151  0.17405  1.0000
  C   C133      1.0  0.15938  0.59366  0.22225  1.0000
  C   C134      1.0  0.17284  0.59723  0.19329  1.0000
  C   C135      1.0  0.13042  0.53674  0.27093  1.0000
  C   C136      1.0  0.12182  0.59486  0.32886  1.0000
  C   C137      1.0  0.09212  0.57329  0.15898  1.0000
  H   H197      1.0  0.13303  0.60253  0.25889  1.0000
  H   H198      1.0  0.14206  0.58933  0.27995  1.0000
  H   H199      1.0  0.14187  0.57495  0.18585  1.0000
  H   H200      1.0  0.14031  0.59521  0.18777  1.0000
  H   H201      1.0  0.11368  0.59330  0.21061  1.0000
  H   H202      1.0  0.10088  0.57346  0.22959  1.0000
  H   H203      1.0  0.11144  0.55404  0.25350  1.0000
  H   H204      1.0  0.12175  0.55224  0.21323  1.0000
  H   H205      1.0  0.14040  0.56308  0.28661  1.0000
  H   H206      1.0  0.14800  0.55802  0.24382  1.0000
  H   H207      1.0  0.10510  0.58444  0.28433  1.0000
  H   H208      1.0  0.11405  0.57015  0.30365  1.0000
  H   H209      1.0  0.10550  0.55769  0.17445  1.0000
  H   H210      1.0  0.11797  0.57775  0.15446  1.0000
  H   H211      1.0  0.16073  0.60605  0.23528  1.0000
  H   H212      1.0  0.16179  0.58561  0.24328  1.0000
  H   H213      1.0  0.17132  0.60594  0.17222  1.0000
  H   H214      1.0  0.18525  0.60339  0.20640  1.0000
  H   H215      1.0  0.17231  0.58515  0.18007  1.0000
  H   H216      1.0  0.14033  0.53405  0.28569  1.0000
  H   H217      1.0  0.11949  0.53350  0.28914  1.0000
  H   H218      1.0  0.12703  0.52847  0.24611  1.0000
  H   H219      1.0  0.12393  0.60826  0.32169  1.0000
  H   H220      1.0  0.11180  0.59056  0.34947  1.0000
  H   H221      1.0  0.13334  0.59428  0.34118  1.0000
  H   H222      1.0  0.21008  0.70591  0.48545  1.0000
  H   H223      1.0  0.19657  0.55381  0.46704  1.0000
  H   H224      1.0  0.12644  0.59406  0.63818  1.0000
  H   H225      1.0  0.00671  0.51657  0.95159  1.0000
  C   C138      1.0  0.12521  0.60239  0.47729  1.0000
  C   C139      1.0  0.19755  0.65874  0.19078  1.0000
  H   H226      1.0  0.10991  0.59620  0.61115  1.0000
  S   S46       1.0  0.14152  0.50272  0.31440  1.0000
  H   H227      1.0  0.16253  0.51973  0.80690  1.0000
  C   C140      1.0  0.08178  0.65359  0.97872  1.0000
  C   C141      1.0  0.18125  0.57469  0.56357  1.0000
  C   C142      1.0  0.00265  0.55116  0.05166  1.0000
  H   H228      1.0  0.20467  0.56356  0.65842  1.0000
  H   H229      1.0  0.14342  0.59626  0.58397  1.0000
  H   H230      1.0  0.11213  0.60121  0.48146  1.0000
  C   C143      1.0  0.12919  0.51590  0.80155  1.0000
  H   H231      1.0  0.21962  0.54900  0.35751  1.0000
  C   C144      1.0  0.12670  0.60120  0.54399  1.0000
  C   C145      1.0  0.20423  0.69701  0.18503  1.0000
  H   H232      1.0  0.19531  0.68830  0.64637  1.0000
  H   H233      1.0  0.06458  0.62006  0.96119  1.0000
  H   H234      1.0  0.03677  0.53351  0.00216  1.0000
  H   H235      1.0  0.00681  0.52326  0.99832  1.0000
  C   C146      1.0  0.12357  0.59971  0.61300  1.0000
  H   H236      1.0  0.12790  0.56877  0.52498  1.0000
  H   H237      1.0  0.09805  0.54541  0.47739  1.0000
  H   H238      1.0  0.11351  0.60011  0.54379  1.0000
  H   H239      1.0  0.04385  0.60461  0.00205  1.0000
  C   C147      1.0  0.20950  0.51122  0.23265  1.0000
  H   H240      1.0  0.19774  0.68637  0.54779  1.0000
  H   H241      1.0  0.12972  0.61381  0.61537  1.0000
  H   H242      1.0  0.06221  0.63746  0.01196  1.0000
  H   H243      1.0  0.18651  0.67640  0.60623  1.0000
  C   C148      1.0  0.03940  0.57832  0.89727  1.0000
  N   N8        1.0  0.11233  0.51031  0.78327  1.0000
  H   H244      1.0  0.21961  0.69554  0.54359  1.0000
  C   C149      1.0  0.03355  0.60799  0.99064  1.0000
  H   H245      1.0  0.08397  0.65916  0.95096  1.0000
  H   H246      1.0  0.17277  0.57851  0.54600  1.0000
  C   C150      1.0  0.14408  0.52697  0.77823  1.0000
  N   N9        1.0  0.21063  0.69656  0.59847  1.0000
  C   C151      1.0  0.20894  0.69731  0.55748  1.0000
  C   C152      1.0  0.19380  0.68950  0.61634  1.0000
  H   H247      1.0  0.12973  0.52346  0.82673  1.0000
  C   C153      1.0  0.16677  0.69261  0.63400  1.0000
  H   H248      1.0  0.17800  0.69819  0.58149  1.0000
  H   H249      1.0  0.10011  0.57099  0.53948  1.0000
  C   C154      1.0  0.01493  0.55934  0.02564  1.0000
  C   C155      1.0  0.12857  0.54517  0.59834  1.0000
  H   H250      1.0  0.14498  0.52008  0.75310  1.0000
  C   C156      1.0  0.18315  0.54564  0.46635  1.0000
  N   N10       1.0  0.03883  0.61742  0.95506  1.0000
  C   C157      1.0  0.01292  0.51755  0.97856  1.0000
  H   H251      1.0  0.03712  0.60678  0.06676  1.0000
  C   C158      1.0  0.18227  0.69955  0.61039  1.0000
  H   H252      1.0  0.18857  0.65245  0.16858  1.0000
  H   H253      1.0  0.20913  0.69149  0.16240  1.0000
  H   H254      1.0  0.03481  0.63668  0.92206  1.0000
  H   H255      1.0  0.03133  0.54170  0.96108  1.0000
  H   H256      1.0  0.17795  0.54717  0.43939  1.0000
  C   C159      1.0  0.09575  0.54888  0.50564  1.0000
  C   C160      1.0  0.03093  0.52988  0.97474  1.0000
  C   C161      1.0  0.10324  0.56822  0.51140  1.0000
  H   H257      1.0  0.21898  0.55442  0.64138  1.0000
  C   C162      1.0  0.22157  0.54012  0.28283  1.0000
  H   H258      1.0  0.15064  0.55079  0.54108  1.0000
  H   H259      1.0  0.15974  0.67890  0.62775  1.0000
  H   H260      1.0  0.10112  0.54241  0.52539  1.0000
  H   H261      1.0  0.09708  0.57392  0.49174  1.0000
  H   H262      1.0  0.08212  0.54418  0.50985  1.0000
  H   H263      1.0  0.15855  0.69974  0.62847  1.0000
  H   H264      1.0  0.11870  0.49853  0.96926  1.0000
  H   H265      1.0  0.17390  0.53581  0.60567  1.0000
  C   C163      1.0  0.20571  0.55292  0.64190  1.0000
  H   H266      1.0  0.15241  0.55548  0.62397  1.0000
  H   H267      1.0  0.21414  0.53159  0.42624  1.0000
  H   H268      1.0  0.19853  0.54060  0.65509  1.0000
  H   H269      1.0  0.09624  0.52083  0.75550  1.0000
  C   C164      1.0  0.02516  0.60736  0.05730  1.0000
  H   H270      1.0  0.20191  0.54326  0.58692  1.0000
  H   H271      1.0  0.12142  0.56070  0.75526  1.0000
  C   C165      1.0  0.23234  0.50798  0.60179  1.0000
  C   C166      1.0  0.21859  0.70432  0.21332  1.0000
  H   H272      1.0  0.05903  0.60015  0.91903  1.0000
  H   H273      1.0  0.14884  0.56889  0.58982  1.0000
  H   H274      1.0  0.11177  0.55273  0.10600  1.0000
  C   C167      1.0  0.19943  0.55328  0.60301  1.0000
  H   H275      1.0  0.11733  0.53053  0.74385  1.0000
  C   C168      1.0  0.13591  0.50583  0.13819  1.0000
  H   H276      1.0  0.22412  0.73229  0.31033  1.0000
  H   H277      1.0  0.00615  0.55189  0.08020  1.0000
  C   C169      1.0  0.05722  0.62809  0.95549  1.0000
  H   H278      1.0  0.18850  0.71323  0.61757  1.0000
  C   C170      1.0  0.18456  0.58565  0.59930  1.0000
  C   C171      1.0  0.17498  0.67880  0.16940  1.0000
  H   H279      1.0  0.17390  0.58151  0.61811  1.0000
  H   H280      1.0  0.03822  0.52407  0.95823  1.0000
  H   H281      1.0  0.08586  0.66416  0.99916  1.0000
  H   H282      1.0  0.02319  0.59549  0.98601  1.0000
  H   H283      1.0  0.04051  0.58353  0.86923  1.0000
  H   H284      1.0  0.12283  0.55095  0.61897  1.0000
  H   H285      1.0  0.16838  0.68788  0.16776  1.0000
  H   H286      1.0  0.19374  0.55254  0.53391  1.0000
  C   C172      1.0  0.05818  0.50032  0.01003  1.0000
  H   H287      1.0  0.21499  0.72326  0.60941  1.0000
  C   C173      1.0  0.04578  0.59282  0.92544  1.0000
  C   C174      1.0  0.18849  0.60444  0.59091  1.0000
  C   C175      1.0  0.17390  0.55079  0.49690  1.0000
  H   H288      1.0  0.02234  0.59586  0.92355  1.0000
  C   C176      1.0  0.11008  0.55545  0.77225  1.0000
  H   H289      1.0  0.22658  0.56910  0.16149  1.0000
  H   H290      1.0  0.19966  0.60957  0.57346  1.0000
  C   C177      1.0  0.14720  0.55558  0.59656  1.0000
  C   C178      1.0  0.10215  0.52796  0.07801  1.0000
  H   H291      1.0  0.03614  0.63025  0.02660  1.0000
  C   C179      1.0  0.11404  0.52120  0.09880  1.0000
  H   H292      1.0  0.04690  0.57018  0.89904  1.0000
  C   C180      1.0  0.20812  0.71394  0.54140  1.0000
  N   N11       1.0  0.17444  0.55549  0.56750  1.0000
  C   C181      1.0  0.02933  0.62871  0.94631  1.0000
  C   C182      1.0  0.17995  0.54762  0.53523  1.0000
  H   H293      1.0  0.21619  0.64271  0.58838  1.0000
  H   H294      1.0  0.20683  0.56585  0.59115  1.0000
  C   C183      1.0  0.20567  0.51910  0.41509  1.0000
  C   C184      1.0  0.18084  0.67783  0.12970  1.0000
  C   C185      1.0  0.02746  0.61702  0.02140  1.0000
  H   H295      1.0  0.19332  0.57909  0.54887  1.0000
  H   H296      1.0  0.00483  0.60832  0.95665  1.0000
  C   C186      1.0  0.03564  0.60454  0.92416  1.0000
  H   H297      1.0  0.19963  0.71862  0.55650  1.0000
  C   C187      1.0  0.21442  0.55517  0.33674  1.0000
  H   H298      1.0  0.08749  0.50017  0.90140  1.0000
  H   H299      1.0  0.22271  0.53134  0.30417  1.0000
  H   H300      1.0  0.17583  0.56442  0.49321  1.0000
  H   H301      1.0  0.08948  0.64575  0.98254  1.0000
  H   H302      1.0  0.16051  0.54302  0.49292  1.0000
  H   H303      1.0  0.20589  0.54764  0.22400  1.0000
  H   H304      1.0  0.02622  0.57021  0.90249  1.0000
  H   H305      1.0  0.17090  0.53923  0.78160  1.0000
  C   C188      1.0  0.09891  0.50032  0.80969  1.0000
  H   H306      1.0  0.13563  0.49935  0.99903  1.0000
  H   H307      1.0  0.19536  0.58487  0.61443  1.0000
  H   H308      1.0  0.09893  0.55184  0.75424  1.0000
  C   C189      1.0  0.15944  0.69411  0.27163  1.0000
  C   C190      1.0  0.20227  0.71118  0.50160  1.0000
  C   C191      1.0  0.00997  0.55834  0.98892  1.0000
  H   H309      1.0  0.17781  0.60607  0.57691  1.0000
  C   C192      1.0  0.11687  0.49707  0.13124  1.0000
  C   C193      1.0  0.15567  0.54832  0.56738  1.0000
  H   H310      1.0  0.15097  0.53415  0.57011  1.0000
  H   H311      1.0  0.20114  0.54714  0.33205  1.0000
  H   H312      1.0  0.12030  0.50570  0.72926  1.0000
  H   H313      1.0  0.09980  0.55197  0.06541  1.0000
  H   H314      1.0  0.22137  0.69397  0.22679  1.0000
  H   H315      1.0  0.14045  0.51971  0.13301  1.0000
  H   H316      1.0  0.12684  0.52833  0.08876  1.0000
  H   H317      1.0  0.15845  0.70544  0.25820  1.0000
  H   H318      1.0  0.21991  0.71273  0.64611  1.0000
  H   H319      1.0  0.11405  0.52547  0.12770  1.0000
  H   H320      1.0  0.14714  0.68638  0.28324  1.0000
  H   H321      1.0  0.10013  0.52340  0.04944  1.0000
  H   H322      1.0  0.00097  0.51176  0.12132  1.0000
  H   H323      1.0  0.08979  0.52375  0.09111  1.0000
  H   H324      1.0  0.00885  0.61397  0.90956  1.0000
  N   N12       1.0  0.18809  0.68430  0.19936  1.0000
  H   H325      1.0  0.15416  0.51059  0.18193  1.0000
  H   H326      1.0  0.03813  0.61111  0.89729  1.0000
  H   H327      1.0  0.04496  0.58711  0.95283  1.0000
  C   C194      1.0  0.22050  0.71370  0.61577  1.0000
  H   H328      1.0  0.12180  0.54428  0.81028  1.0000
  H   H329      1.0  0.20903  0.64978  0.23515  1.0000
  H   H330      1.0  0.19267  0.51845  0.41745  1.0000
  H   H331      1.0  0.20172  0.51777  0.22117  1.0000
  H   H332      1.0  0.12017  0.51666  0.02338  1.0000
  H   H333      1.0  0.14286  0.53912  0.77046  1.0000
  H   H334      1.0  0.22876  0.72194  0.38484  1.0000
  C   C195      1.0  0.11023  0.54002  0.79372  1.0000
  C   C196      1.0  0.06339  0.64277  0.98407  1.0000
  H   H335      1.0  0.22826  0.51882  0.59731  1.0000
  H   H336      1.0  0.18915  0.70213  0.49976  1.0000
  H   H337      1.0  0.22062  0.72425  0.54223  1.0000
  H   H338      1.0  0.15958  0.65527  0.11269  1.0000
  H   H339      1.0  0.21544  0.71211  0.23439  1.0000
  H   H340      1.0  0.18863  0.63503  0.22103  1.0000
  H   H341      1.0  0.03053  0.63805  0.96864  1.0000
  H   H342      1.0  0.15433  0.51237  0.49161  1.0000
  C   C197      1.0  0.21145  0.66616  0.59141  1.0000
  C   C198      1.0  0.11467  0.50259  0.02649  1.0000
  H   H343      1.0  0.21158  0.50303  0.33250  1.0000
  H   H344      1.0  0.21297  0.53944  0.18438  1.0000
  C   C199      1.0  0.10109  0.50604  0.85044  1.0000
  H   H345      1.0  0.20457  0.56321  0.16844  1.0000
  H   H346      1.0  0.20864  0.51837  0.38585  1.0000
  H   H347      1.0  0.16861  0.69841  0.29441  1.0000
  H   H348      1.0  0.21008  0.69845  0.42199  1.0000
  H   H349      1.0  0.20308  0.72348  0.48956  1.0000
  H   H350      1.0  0.08775  0.49640  0.72854  1.0000
  H   H351      1.0  0.13162  0.50448  0.81073  1.0000
  C   C200      1.0  0.23117  0.72414  0.30750  1.0000
  C   C201      1.0  0.21669  0.56591  0.18243  1.0000
  H   H352      1.0  0.08628  0.49505  0.06958  1.0000
  H   H353      1.0  0.01078  0.51409  0.05827  1.0000
  H   H354      1.0  0.17824  0.65976  0.22573  1.0000
  S   S47       1.0  0.16124  0.49797  0.73186  1.0000
  H   H355      1.0  0.20831  0.53479  0.27451  1.0000
  H   H356      1.0  0.10431  0.51991  0.85395  1.0000
  H   H357      1.0  0.20959  0.66696  0.17908  1.0000
  H   H358      1.0  0.11070  0.49979  0.15576  1.0000
  H   H359      1.0  0.23231  0.68961  0.59644  1.0000
  H   H360      1.0  0.20475  0.50695  0.26041  1.0000
  H   H361      1.0  0.21976  0.56534  0.28268  1.0000
  H   H362      1.0  0.21410  0.69064  0.37878  1.0000
  H   H363      1.0  0.01587  0.59417  0.05386  1.0000
  H   H364      1.0  0.15535  0.50037  0.55306  1.0000
  H   H365      1.0  0.18238  0.70575  0.21902  1.0000
  H   H366      1.0  0.23007  0.67955  0.70319  1.0000
  H   H367      1.0  0.08513  0.50585  0.13856  1.0000
  H   H368      1.0  0.15714  0.67532  0.10456  1.0000
  H   H369      1.0  0.12632  0.53188  0.60674  1.0000
  C   C202      1.0  0.23187  0.69563  0.30386  1.0000
  S   S48       1.0  0.20653  0.50055  0.71678  1.0000
  H   H370      1.0  0.16517  0.66623  0.17604  1.0000
  C   C203      1.0  0.07086  0.50070  0.98612  1.0000
  H   H371      1.0  0.23383  0.72464  0.45159  1.0000
  H   H372      1.0  0.19063  0.69611  0.25314  1.0000
  H   H373      1.0  0.23360  0.52354  0.20704  1.0000
  C   C204      1.0  0.11884  0.49766  0.06489  1.0000
  C   C205      1.0  0.14063  0.50359  0.17755  1.0000
  H   H374      1.0  0.00153  0.63600  0.96940  1.0000
  C   C206      1.0  0.20057  0.64452  0.21143  1.0000
  C   C207      1.0  0.20805  0.50463  0.43615  1.0000
  H   H375      1.0  0.18955  0.67108  0.12765  1.0000
  C   C208      1.0  0.16610  0.66873  0.10426  1.0000
  H   H376      1.0  0.17054  0.66869  0.07587  1.0000
  H   H377      1.0  0.22192  0.49597  0.59430  1.0000
  H   H378      1.0  0.19817  0.67277  0.24120  1.0000
  H   H379      1.0  0.20201  0.70804  0.17290  1.0000
  H   H380      1.0  0.20641  0.63788  0.19299  1.0000
  H   H381      1.0  0.00612  0.64198  0.92207  1.0000
  C   C209      1.0  0.15356  0.49937  0.49387  1.0000
  H   H382      1.0  0.11116  0.50272  0.86309  1.0000
  C   C210      1.0  0.21985  0.69649  0.40520  1.0000
  H   H383      1.0  0.13385  0.50862  0.19733  1.0000
  N   N13       1.0  0.23289  0.54043  0.25138  1.0000
  H   H384      1.0  0.23385  0.51514  0.25127  1.0000
  H   H385      1.0  0.23525  0.50771  0.63131  1.0000
  H   H386      1.0  0.21906  0.57705  0.20106  1.0000
  C   C211      1.0  0.22824  0.52273  0.23489  1.0000
  C   C212      1.0  0.23249  0.72004  0.72035  1.0000
  C   C213      1.0  0.12190  0.49480  0.99643  1.0000
  H   H387      1.0  0.01674  0.49435  0.96753  1.0000
  H   H388      1.0  0.14274  0.50007  0.12019  1.0000
  H   H389      1.0  0.07496  0.50056  0.86226  1.0000
  C   C214      1.0  0.00068  0.50201  0.06618  1.0000
  H   H390      1.0  0.06033  0.49434  0.09750  1.0000
  C   C215      1.0  0.98845  0.49459  0.03374  1.0000
  H   H391      1.0  0.23265  0.72688  0.18188  1.0000
  H   H392      1.0  0.23452  0.66180  0.58399  1.0000
  C   C216      1.0  0.23457  0.71599  0.19527  1.0000
  C   C217      1.0  0.23285  0.55322  0.22291  1.0000
  C   C218      1.0  0.01199  0.49969  0.99081  1.0000
  H   H393      1.0  0.02122  0.50134  0.01310  1.0000
  C   C219      1.0  0.20671  0.49526  0.20936  1.0000
  H   H394      1.0  0.08656  0.49987  0.80001  1.0000
  H   H395      1.0  0.00642  0.49295  0.07521  1.0000
  H   H396      1.0  0.22440  0.68737  0.41899  1.0000
  C   C220      1.0  0.23532  0.69332  0.70553  1.0000
  C   C221      1.0  0.08525  0.49681  0.87195  1.0000
  C   C222      1.0  0.99184  0.50596  0.09900  1.0000
  C   C223      1.0  0.23415  0.71347  0.39837  1.0000
  C   C224      1.0  0.08141  0.49266  0.12763  1.0000
  H   H397      1.0  0.22934  0.74664  0.89740  1.0000
  H   H398      1.0  0.46689  0.13586  0.96130  1.0000
  C   C225      1.0  0.47888  0.20986  0.19278  1.0000
  H   H399      1.0  0.43322  0.09485  0.09382  1.0000
  H   H400      1.0  0.43446  0.11520  0.11167  1.0000
  Fe  Fe25      1.0  0.44128  0.03050  0.01110  1.0000
  S   S49       1.0  0.44411  0.05835  0.00350  1.0000
  S   S50       1.0  0.41639  0.00720  0.00494  1.0000
  Fe  Fe26      1.0  0.46673  0.06149  0.96918  1.0000
  N   N14       1.0  0.45635  0.11304  0.99343  1.0000
  Fe  Fe27      1.0  0.46100  0.06456  0.05356  1.0000
  S   S51       1.0  0.46545  0.08815  0.09098  1.0000
  S   S52       1.0  0.46278  0.03349  0.97356  1.0000
  S   S53       1.0  0.45631  0.03678  0.06361  1.0000
  H   H401      1.0  0.46685  0.08634  0.56489  1.0000
  C   C226      1.0  0.47103  0.09433  0.13773  1.0000
  C   C227      1.0  0.44446  0.15205  0.96913  1.0000
  H   H402      1.0  0.44754  0.15828  0.99648  1.0000
  H   H403      1.0  0.43097  0.10298  0.01349  1.0000
  H   H404      1.0  0.47515  0.10699  0.54392  1.0000
  C   C228      1.0  0.46896  0.08247  0.16558  1.0000
  H   H405      1.0  0.42787  0.08165  0.97157  1.0000
  H   H406      1.0  0.46638  0.23887  0.41123  1.0000
  H   H407      1.0  0.44385  0.09282  0.03104  1.0000
  C   C229      1.0  0.44186  0.13317  0.97145  1.0000
  H   H408      1.0  0.43663  0.09155  0.89145  1.0000
  H   H409      1.0  0.44765  0.16770  0.65794  1.0000
  H   H410      1.0  0.46717  0.16998  0.67892  1.0000
  H   H411      1.0  0.47890  0.24173  0.57373  1.0000
  C   C230      1.0  0.48114  0.11738  0.18400  1.0000
  C   C231      1.0  0.46574  0.08067  0.85356  1.0000
  C   C232      1.0  0.46072  0.16934  0.65236  1.0000
  H   H412      1.0  0.46913  0.19649  0.64863  1.0000
  H   H413      1.0  0.48285  0.14028  0.45129  1.0000
  H   H414      1.0  0.44483  0.12885  0.05266  1.0000
  H   H415      1.0  0.45599  0.06881  0.86103  1.0000
  C   C233      1.0  0.48434  0.14240  0.51044  1.0000
  C   C234      1.0  0.44379  0.10553  0.02320  1.0000
  Fe  Fe28      1.0  0.47756  0.04078  0.02555  1.0000
  H   H416      1.0  0.47106  0.13621  0.51395  1.0000
  H   H417      1.0  0.45595  0.08066  0.79911  1.0000
  C   C235      1.0  0.47822  0.18531  0.49989  1.0000
  H   H418      1.0  0.46410  0.06899  0.15895  1.0000
  H   H419      1.0  0.45805  0.11897  0.07214  1.0000
  C   C236      1.0  0.44592  0.11645  0.05862  1.0000
  C   C237      1.0  0.46922  0.18573  0.63105  1.0000
  H   H420      1.0  0.47210  0.10066  0.01555  1.0000
  H   H421      1.0  0.43142  0.12713  0.99035  1.0000
  H   H422      1.0  0.43832  0.12758  0.94368  1.0000
  H   H423      1.0  0.45801  0.10894  0.93506  1.0000
  S   S54       1.0  0.48344  0.11170  0.25905  1.0000
  H   H424      1.0  0.48037  0.22474  0.30960  1.0000
  C   C238      1.0  0.43348  0.09155  0.95064  1.0000
  H   H425      1.0  0.46537  0.17884  0.48921  1.0000
  H   H426      1.0  0.47744  0.21337  0.59376  1.0000
  H   H427      1.0  0.41648  0.22474  0.75304  1.0000
  H   H428      1.0  0.46484  0.22514  0.17713  1.0000
  H   H429      1.0  0.46073  0.15805  0.63647  1.0000
  H   H430      1.0  0.47051  0.17703  0.55414  1.0000
  C   C239      1.0  0.46579  0.08742  0.81826  1.0000
  H   H431      1.0  0.41996  0.10510  0.07523  1.0000
  H   H432      1.0  0.45462  0.15871  0.94985  1.0000
  H   H433      1.0  0.43795  0.07315  0.91423  1.0000
  H   H434      1.0  0.40569  0.23733  0.77324  1.0000
  C   C240      1.0  0.43147  0.08229  0.91379  1.0000
  S   S55       1.0  0.48333  0.06857  0.01901  1.0000
  C   C241      1.0  0.45211  0.10160  0.95974  1.0000
  H   H435      1.0  0.47716  0.03129  0.85349  1.0000
  H   H436      1.0  0.46347  0.13974  0.00748  1.0000
  C   C242      1.0  0.43252  0.10730  0.08639  1.0000
  H   H437      1.0  0.45744  0.09154  0.96223  1.0000
  H   H438      1.0  0.47061  0.07867  0.22358  1.0000
  H   H439      1.0  0.43288  0.15333  0.95908  1.0000
  H   H440      1.0  0.46599  0.22174  0.22564  1.0000
  C   C243      1.0  0.45796  0.13091  0.98403  1.0000
  C   C244      1.0  0.47875  0.10551  0.21196  1.0000
  H   H441      1.0  0.46161  0.18516  0.60636  1.0000
  H   H442      1.0  0.42624  0.09988  0.94973  1.0000
  H   H443      1.0  0.47876  0.12116  0.12626  1.0000
  H   H444      1.0  0.48366  0.21515  0.70722  1.0000
  H   H445      1.0  0.46792  0.19770  0.19110  1.0000
  C   C245      1.0  0.47715  0.11181  0.14733  1.0000
  C   C246      1.0  0.47300  0.11369  0.00755  1.0000
  C   C247      1.0  0.47264  0.08803  0.20235  1.0000
  H   H446      1.0  0.41809  0.07503  0.90802  1.0000
  H   H447      1.0  0.47703  0.99463  0.03587  1.0000
  H   H448      1.0  0.47112  0.19815  0.54354  1.0000
  H   H449      1.0  0.47850  0.03466  0.90218  1.0000
  C   C248      1.0  0.47771  0.09858  0.56424  1.0000
  H   H450      1.0  0.47920  0.10470  0.59171  1.0000
  C   C249      1.0  0.47774  0.18925  0.54061  1.0000
  S   S56       1.0  0.47773  0.11045  0.76194  1.0000
  C   C250      1.0  0.47316  0.22469  0.19987  1.0000
  H   H451      1.0  0.48575  0.21159  0.16666  1.0000
  H   H452      1.0  0.47681  0.12162  0.03275  1.0000
  C   C251      1.0  0.41456  0.23091  0.77863  1.0000
  H   H453      1.0  0.47342  0.04924  0.87345  1.0000
  S   S57       1.0  0.47943  0.08101  0.92357  1.0000
  H   H454      1.0  0.40899  0.22084  0.79921  1.0000
  C   C252      1.0  0.47834  0.08917  0.87884  1.0000
  H   H455      1.0  0.43905  0.23641  0.79937  1.0000
  C   C253      1.0  0.48100  0.04118  0.87546  1.0000
  C   C254      1.0  0.47842  0.10273  0.80732  1.0000
  H   H456      1.0  0.48479  0.11527  0.95322  1.0000
  S   S58       1.0  0.48595  0.14925  0.33531  1.0000
  H   H457      1.0  0.48424  0.19726  0.48447  1.0000
  S   S59       1.0  0.48583  0.14295  0.58592  1.0000
  H   H458      1.0  0.48512  0.17673  0.49517  1.0000
  H   H459      1.0  0.48578  0.13086  0.19070  1.0000
  H   H460      1.0  0.48497  0.99482  0.97023  1.0000
  H   H461      1.0  0.45924  0.43259  0.98296  1.0000
  C   C255      1.0  0.25830  0.44688  0.82847  1.0000
  H   H462      1.0  0.33395  0.48313  0.94619  1.0000
  H   H463      1.0  0.42600  0.48951  0.93665  1.0000
  Fe  Fe29      1.0  0.46736  0.34797  0.94674  1.0000
  S   S60       1.0  0.44955  0.33694  0.99332  1.0000
  C   C256      1.0  0.31831  0.48241  0.52478  1.0000
  H   H464      1.0  0.45277  0.48715  0.94351  1.0000
  S   S61       1.0  0.46326  0.37477  0.03260  1.0000
  Fe  Fe30      1.0  0.47049  0.35163  0.03216  1.0000
  H   H465      1.0  0.28281  0.44973  0.90649  1.0000
  Fe  Fe31      1.0  0.44368  0.36114  0.99046  1.0000
  S   S62       1.0  0.41762  0.36254  0.99267  1.0000
  N   N15       1.0  0.45512  0.27216  0.77689  1.0000
  S   S63       1.0  0.45978  0.37075  0.94099  1.0000
  C   C257      1.0  0.46601  0.27074  0.24164  1.0000
  S   S64       1.0  0.30140  0.46371  0.65801  1.0000
  H   H466      1.0  0.42849  0.24927  0.81892  1.0000
  H   H467      1.0  0.45116  0.47427  0.90372  1.0000
  H   H468      1.0  0.29151  0.43156  0.72820  1.0000
  H   H469      1.0  0.27839  0.45284  0.72024  1.0000
  Fe  Fe32      1.0  0.31866  0.47298  0.70684  1.0000
  S   S65       1.0  0.32762  0.45635  0.74396  1.0000
  H   H470      1.0  0.36601  0.46903  0.86623  1.0000
  Fe  Fe33      1.0  0.30750  0.48224  0.27370  1.0000
  S   S66       1.0  0.30495  0.46969  0.21650  1.0000
  H   H471      1.0  0.28251  0.47915  0.55600  1.0000
  S   S67       1.0  0.29684  0.46327  0.40962  1.0000
  C   C258      1.0  0.30174  0.41750  0.21501  1.0000
  C   C259      1.0  0.47716  0.47407  0.94037  1.0000
  S   S68       1.0  0.28567  0.47571  0.31247  1.0000
  H   H472      1.0  0.46744  0.25008  0.36906  1.0000
  Fe  Fe34      1.0  0.37474  0.43702  0.98801  1.0000
  S   S69       1.0  0.37882  0.45602  0.03381  1.0000
  S   S70       1.0  0.39718  0.42840  0.98696  1.0000
  Fe  Fe35      1.0  0.34502  0.44570  0.95945  1.0000
  S   S71       1.0  0.34746  0.46473  0.00506  1.0000
  S   S72       1.0  0.32537  0.44608  0.91738  1.0000
  Fe  Fe36      1.0  0.37449  0.47333  0.99301  1.0000
  H   H473      1.0  0.45862  0.27217  0.21798  1.0000
  Fe  Fe37      1.0  0.35139  0.44587  0.04319  1.0000
  S   S73       1.0  0.34655  0.44237  0.10502  1.0000
  S   S74       1.0  0.37216  0.45548  0.94607  1.0000
  S   S75       1.0  0.34699  0.42563  0.99881  1.0000
  H   H474      1.0  0.29113  0.40218  0.16626  1.0000
  C   C260      1.0  0.42123  0.47664  0.92378  1.0000
  H   H475      1.0  0.46132  0.26586  0.29990  1.0000
  H   H476      1.0  0.46363  0.25546  0.80907  1.0000
  C   C261      1.0  0.31837  0.46461  0.18540  1.0000
  C   C262      1.0  0.33212  0.46102  0.19709  1.0000
  C   C263      1.0  0.34086  0.45466  0.17202  1.0000
  C   C264      1.0  0.33644  0.45239  0.13467  1.0000
  C   C265      1.0  0.32319  0.45674  0.12274  1.0000
  C   C266      1.0  0.31409  0.46252  0.14800  1.0000
  H   H477      1.0  0.33557  0.46245  0.22570  1.0000
  H   H478      1.0  0.35101  0.45127  0.18173  1.0000
  C   C267      1.0  0.43915  0.28909  0.80835  1.0000
  H   H479      1.0  0.27131  0.41443  0.72525  1.0000
  C   C268      1.0  0.46685  0.46464  0.05824  1.0000
  H   H480      1.0  0.29510  0.44458  0.33362  1.0000
  C   C269      1.0  0.47737  0.26028  0.16841  1.0000
  C   C270      1.0  0.30493  0.47117  0.45386  1.0000
  C   C271      1.0  0.29848  0.46115  0.48483  1.0000
  C   C272      1.0  0.30509  0.46676  0.52009  1.0000
  H   H481      1.0  0.28856  0.44883  0.48142  1.0000
  H   H482      1.0  0.30045  0.45869  0.54345  1.0000
  H   H483      1.0  0.46291  0.41023  0.94595  1.0000
  H   H484      1.0  0.42704  0.30191  0.84304  1.0000
  H   H485      1.0  0.42971  0.26267  0.75623  1.0000
  H   H486      1.0  0.31983  0.42680  0.34583  1.0000
  C   C273      1.0  0.32760  0.45470  0.79252  1.0000
  C   C274      1.0  0.31911  0.46212  0.81521  1.0000
  C   C275      1.0  0.31894  0.45977  0.85344  1.0000
  C   C276      1.0  0.32745  0.45025  0.86958  1.0000
  C   C277      1.0  0.33618  0.44314  0.84693  1.0000
  C   C278      1.0  0.33616  0.44527  0.80872  1.0000
  H   H487      1.0  0.31250  0.46943  0.80325  1.0000
  H   H488      1.0  0.31210  0.46527  0.87067  1.0000
  H   H489      1.0  0.34254  0.43553  0.85873  1.0000
  H   H490      1.0  0.34269  0.43938  0.79152  1.0000
  C   C279      1.0  0.41212  0.38098  0.99087  1.0000
  C   C280      1.0  0.39540  0.37894  0.98487  1.0000
  C   C281      1.0  0.39051  0.39317  0.98356  1.0000
  C   C282      1.0  0.40229  0.40972  0.98852  1.0000
  C   C283      1.0  0.41891  0.41171  0.99543  1.0000
  C   C284      1.0  0.42381  0.39751  0.99653  1.0000
  H   H491      1.0  0.38619  0.36623  0.98075  1.0000
  H   H492      1.0  0.37766  0.39132  0.97838  1.0000
  H   H493      1.0  0.42807  0.42433  0.00030  1.0000
  H   H494      1.0  0.43664  0.39932  0.00188  1.0000
  H   H495      1.0  0.36544  0.48078  0.08346  1.0000
  C   C285      1.0  0.47045  0.32818  0.18098  1.0000
  C   C286      1.0  0.47036  0.33352  0.14453  1.0000
  H   H496      1.0  0.39488  0.47634  0.81249  1.0000
  H   H497      1.0  0.25660  0.37061  0.29082  1.0000
  H   H498      1.0  0.45985  0.32652  0.19813  1.0000
  H   H499      1.0  0.45978  0.33592  0.13396  1.0000
  H   H500      1.0  0.42419  0.37569  0.11000  1.0000
  H   H501      1.0  0.26697  0.37955  0.33353  1.0000
  H   H502      1.0  0.48041  0.29279  0.49181  1.0000
  H   H503      1.0  0.26497  0.45573  0.90282  1.0000
  H   H504      1.0  0.28299  0.46419  0.84824  1.0000
  C   C287      1.0  0.48410  0.32503  0.19551  1.0000
  H   H505      1.0  0.35246  0.48303  0.89299  1.0000
  H   H506      1.0  0.44009  0.43997  0.94634  1.0000
  H   H507      1.0  0.28254  0.44778  0.26394  1.0000
  H   H508      1.0  0.29018  0.42232  0.34268  1.0000
  H   H509      1.0  0.46913  0.25656  0.76197  1.0000
  C   C288      1.0  0.27067  0.48453  0.49417  1.0000
  C   C289      1.0  0.48388  0.33557  0.12180  1.0000
  H   H510      1.0  0.46424  0.29205  0.81816  1.0000
  H   H511      1.0  0.44811  0.30564  0.85617  1.0000
  H   H512      1.0  0.42703  0.27968  0.79891  1.0000
  C   C290      1.0  0.25083  0.44438  0.25521  1.0000
  H   H513      1.0  0.47281  0.29296  0.11603  1.0000
  H   H514      1.0  0.25043  0.43315  0.83219  1.0000
  H   H515      1.0  0.27507  0.41122  0.21360  1.0000
  H   H516      1.0  0.24865  0.48577  0.51831  1.0000
  H   H517      1.0  0.25827  0.43607  0.71592  1.0000
  C   C291      1.0  0.37068  0.49117  0.10406  1.0000
  H   H518      1.0  0.31314  0.42876  0.22137  1.0000
  H   H519      1.0  0.25924  0.42852  0.22120  1.0000
  C   C292      1.0  0.27100  0.46919  0.78127  1.0000
  H   H520      1.0  0.30735  0.44292  0.27469  1.0000
  C   C293      1.0  0.45720  0.30306  0.69562  1.0000
  H   H521      1.0  0.45656  0.45222  0.06294  1.0000
  C   C294      1.0  0.42994  0.46552  0.93987  1.0000
  N   N16       1.0  0.38968  0.40808  0.10030  1.0000
  C   C295      1.0  0.37478  0.40707  0.07745  1.0000
  C   C296      1.0  0.40419  0.42408  0.09067  1.0000
  C   C297      1.0  0.39420  0.39300  0.08959  1.0000
  C   C298      1.0  0.38629  0.40744  0.14086  1.0000
  C   C299      1.0  0.37402  0.41573  0.15452  1.0000
  C   C300      1.0  0.35974  0.38984  0.07922  1.0000
  C   C301      1.0  0.41070  0.39274  0.10557  1.0000
  C   C302      1.0  0.40260  0.44129  0.10010  1.0000
  C   C303      1.0  0.41634  0.45614  0.08209  1.0000
  C   C304      1.0  0.37391  0.41671  0.19620  1.0000
  C   C305      1.0  0.34396  0.39131  0.06377  1.0000
  C   C306      1.0  0.41197  0.37530  0.09985  1.0000
  H   H522      1.0  0.37827  0.40920  0.04815  1.0000
  H   H523      1.0  0.37036  0.41746  0.08452  1.0000
  H   H524      1.0  0.41565  0.42469  0.10520  1.0000
  H   H525      1.0  0.40690  0.42389  0.06102  1.0000
  H   H526      1.0  0.39502  0.39215  0.05934  1.0000
  H   H527      1.0  0.38426  0.38085  0.09790  1.0000
  H   H528      1.0  0.38107  0.39398  0.15033  1.0000
  H   H529      1.0  0.39817  0.41340  0.15634  1.0000
  H   H530      1.0  0.36115  0.40808  0.14542  1.0000
  H   H531      1.0  0.37704  0.42878  0.14418  1.0000
  H   H532      1.0  0.36228  0.38000  0.06262  1.0000
  H   H533      1.0  0.35730  0.38517  0.10762  1.0000
  H   H534      1.0  0.41179  0.39572  0.13527  1.0000
  H   H535      1.0  0.42146  0.40218  0.09137  1.0000
  H   H536      1.0  0.39060  0.44165  0.09098  1.0000
  H   H537      1.0  0.40381  0.44355  0.13009  1.0000
  H   H538      1.0  0.41539  0.45478  0.05183  1.0000
  H   H539      1.0  0.41503  0.46833  0.08981  1.0000
  C   C307      1.0  0.24361  0.44601  0.76950  1.0000
  H   H540      1.0  0.36479  0.42234  0.20504  1.0000
  H   H541      1.0  0.37028  0.40378  0.20803  1.0000
  H   H542      1.0  0.38636  0.42495  0.20684  1.0000
  H   H543      1.0  0.34098  0.40139  0.07845  1.0000
  H   H544      1.0  0.34551  0.39431  0.03425  1.0000
  H   H545      1.0  0.33335  0.37898  0.06680  1.0000
  C   C308      1.0  0.46247  0.43558  0.95386  1.0000
  H   H546      1.0  0.41092  0.37183  0.07035  1.0000
  H   H547      1.0  0.25368  0.43584  0.57896  1.0000
  H   H548      1.0  0.45487  0.47774  0.00086  1.0000
  C   C309      1.0  0.45259  0.28120  0.81076  1.0000
  H   H549      1.0  0.47838  0.47126  0.91095  1.0000
  H   H550      1.0  0.48476  0.41020  0.07492  1.0000
  C   C310      1.0  0.45717  0.41858  0.93302  1.0000
  C   C311      1.0  0.26908  0.43983  0.77192  1.0000
  H   H551      1.0  0.27141  0.43579  0.30139  1.0000
  H   H552      1.0  0.28206  0.38759  0.25696  1.0000
  C   C312      1.0  0.46193  0.28473  0.74618  1.0000
  C   C313      1.0  0.27457  0.45066  0.85081  1.0000
  H   H553      1.0  0.31947  0.45494  0.09429  1.0000
  C   C314      1.0  0.44917  0.28742  0.71944  1.0000
  H   H554      1.0  0.24493  0.45300  0.74327  1.0000
  S   S76       1.0  0.48463  0.34232  0.07548  1.0000
  C   C315      1.0  0.43109  0.24373  0.79318  1.0000
  C   C316      1.0  0.45722  0.46605  0.99324  1.0000
  C   C317      1.0  0.48156  0.34009  0.79620  1.0000
  H   H555      1.0  0.28121  0.44236  0.84170  1.0000
  S   S77       1.0  0.26150  0.47065  0.67302  1.0000
  H   H556      1.0  0.46373  0.25284  0.16725  1.0000
  H   H557      1.0  0.46820  0.30238  0.68130  1.0000
  H   H558      1.0  0.26269  0.42629  0.78026  1.0000
  H   H559      1.0  0.27770  0.48289  0.60091  1.0000
  H   H560      1.0  0.44329  0.30012  0.78961  1.0000
  C   C318      1.0  0.43938  0.25781  0.76473  1.0000
  H   H561      1.0  0.28426  0.48893  0.49811  1.0000
  H   H562      1.0  0.45002  0.27264  0.83475  1.0000
  H   H563      1.0  0.46132  0.42065  0.90421  1.0000
  C   C319      1.0  0.31788  0.48701  0.45873  1.0000
  C   C320      1.0  0.26428  0.44811  0.57529  1.0000
  C   C321      1.0  0.37375  0.47679  0.84405  1.0000
  H   H564      1.0  0.28207  0.44390  0.78242  1.0000
  H   H565      1.0  0.47034  0.28079  0.72838  1.0000
  H   H566      1.0  0.43178  0.28535  0.86560  1.0000
  H   H567      1.0  0.30347  0.46516  0.13853  1.0000
  H   H568      1.0  0.47666  0.28279  0.24642  1.0000
  C   C322      1.0  0.30166  0.41408  0.17392  1.0000
  S   S78       1.0  0.48323  0.31804  0.24165  1.0000
  C   C323      1.0  0.28032  0.39189  0.28479  1.0000
  H   H569      1.0  0.26566  0.47052  0.49826  1.0000
  C   C324      1.0  0.43638  0.29586  0.84561  1.0000
  S   S79       1.0  0.32512  0.48346  0.31987  1.0000
  H   H570      1.0  0.24975  0.46060  0.54897  1.0000
  H   H571      1.0  0.30276  0.40646  0.22929  1.0000
  H   H572      1.0  0.27451  0.36634  0.30560  1.0000
  H   H573      1.0  0.40202  0.36529  0.11492  1.0000
  C   C325      1.0  0.24452  0.48618  0.29532  1.0000
  H   H574      1.0  0.29235  0.39660  0.29970  1.0000
  C   C326      1.0  0.47690  0.34099  0.83295  1.0000
  C   C327      1.0  0.25770  0.43021  0.25086  1.0000
  C   C328      1.0  0.47178  0.25573  0.23490  1.0000
  H   H575      1.0  0.26277  0.43371  0.89568  1.0000
  C   C329      1.0  0.26884  0.37617  0.30493  1.0000
  C   C330      1.0  0.38685  0.46929  0.83515  1.0000
  Fe  Fe38      1.0  0.47937  0.38328  0.98335  1.0000
  H   H576      1.0  0.42447  0.45287  0.92611  1.0000
  H   H577      1.0  0.48254  0.25483  0.14590  1.0000
  C   C331      1.0  0.29984  0.43040  0.28709  1.0000
  C   C332      1.0  0.31597  0.43794  0.34704  1.0000
  H   H578      1.0  0.27266  0.48038  0.43608  1.0000
  C   C333      1.0  0.27435  0.43474  0.27213  1.0000
  H   H579      1.0  0.46991  0.29741  0.75752  1.0000
  H   H580      1.0  0.25366  0.48153  0.28456  1.0000
  H   H581      1.0  0.31346  0.41272  0.16602  1.0000
  H   H582      1.0  0.28752  0.43323  0.21252  1.0000
  H   H583      1.0  0.27952  0.42787  0.68653  1.0000
  C   C334      1.0  0.44900  0.47369  0.93376  1.0000
  H   H584      1.0  0.44397  0.27611  0.70099  1.0000
  H   H585      1.0  0.42699  0.46397  0.96941  1.0000
  H   H586      1.0  0.31527  0.44137  0.37620  1.0000
  H   H587      1.0  0.44814  0.30378  0.67484  1.0000
  C   C335      1.0  0.28615  0.42113  0.22659  1.0000
  C   C336      1.0  0.24664  0.47970  0.68398  1.0000
  H   H588      1.0  0.26806  0.40734  0.31013  1.0000
  H   H589      1.0  0.40562  0.48490  0.03382  1.0000
  N   N17       1.0  0.45940  0.46514  0.95241  1.0000
  H   H590      1.0  0.32552  0.44894  0.33358  1.0000
  H   H591      1.0  0.24823  0.41830  0.26141  1.0000
  H   H592      1.0  0.36592  0.47528  0.81930  1.0000
  H   H593      1.0  0.26108  0.39989  0.26569  1.0000
  H   H594      1.0  0.43872  0.28916  0.73382  1.0000
  C   C337      1.0  0.47187  0.46633  0.01809  1.0000
  H   H595      1.0  0.30743  0.42245  0.28365  1.0000
  H   H596      1.0  0.44583  0.45531  0.00195  1.0000
  H   H597      1.0  0.44329  0.25615  0.27068  1.0000
  N   N18       1.0  0.26038  0.45077  0.78817  1.0000
  H   H598      1.0  0.47290  0.26187  0.41147  1.0000
  H   H599      1.0  0.45121  0.27883  0.27965  1.0000
  H   H600      1.0  0.25013  0.46180  0.59781  1.0000
  H   H601      1.0  0.40772  0.47074  0.92910  1.0000
  C   C338      1.0  0.27241  0.48038  0.57274  1.0000
  C   C339      1.0  0.27872  0.42767  0.71679  1.0000
  C   C340      1.0  0.25792  0.46268  0.57335  1.0000
  C   C341      1.0  0.46776  0.26431  0.78573  1.0000
  H   H602      1.0  0.28403  0.47197  0.79023  1.0000
  C   C342      1.0  0.29899  0.43362  0.32873  1.0000
  H   H603      1.0  0.45366  0.44650  0.90856  1.0000
  C   C343      1.0  0.27257  0.40565  0.28249  1.0000
  N   N19       1.0  0.28339  0.42266  0.26715  1.0000
  C   C344      1.0  0.27056  0.43995  0.72967  1.0000
  C   C345      1.0  0.46998  0.27947  0.12382  1.0000
  C   C346      1.0  0.45330  0.44685  0.93899  1.0000
  C   C347      1.0  0.45477  0.26762  0.27504  1.0000
  H   H604      1.0  0.24872  0.44648  0.28447  1.0000
  H   H605      1.0  0.45654  0.27360  0.13024  1.0000
  H   H606      1.0  0.30061  0.42489  0.15840  1.0000
  H   H607      1.0  0.48255  0.47861  0.01535  1.0000
  H   H608      1.0  0.27177  0.47168  0.75147  1.0000
  H   H609      1.0  0.27070  0.44728  0.54961  1.0000
  H   H610      1.0  0.46111  0.31488  0.71263  1.0000
  H   H611      1.0  0.38059  0.45572  0.82657  1.0000
  Fe  Fe39      1.0  0.30406  0.47999  0.35889  1.0000
  H   H612      1.0  0.25146  0.45399  0.84219  1.0000
  H   H613      1.0  0.25962  0.45650  0.24371  1.0000
  H   H614      1.0  0.44346  0.41186  0.93347  1.0000
  H   H615      1.0  0.25392  0.48278  0.78325  1.0000
  H   H616      1.0  0.47771  0.34693  0.77549  1.0000
  H   H617      1.0  0.42878  0.45672  0.09112  1.0000
  H   H618      1.0  0.47277  0.27266  0.10021  1.0000
  H   H619      1.0  0.44193  0.25146  0.73988  1.0000
  C   C348      1.0  0.47345  0.25068  0.39616  1.0000
  H   H620      1.0  0.27297  0.45006  0.59879  1.0000
  H   H621      1.0  0.47763  0.46531  0.07554  1.0000
  H   H622      1.0  0.46945  0.34834  0.84012  1.0000
  S   S80       1.0  0.32822  0.48944  0.56794  1.0000
  H   H623      1.0  0.42316  0.47788  0.89383  1.0000
  C   C349      1.0  0.26511  0.48280  0.79816  1.0000
  C   C350      1.0  0.27097  0.44723  0.89140  1.0000
  H   H624      1.0  0.23860  0.43222  0.76165  1.0000
  H   H625      1.0  0.46283  0.47521  0.06657  1.0000
  S   S81       1.0  0.47382  0.33038  0.90584  1.0000
  C   C351      1.0  0.48536  0.27697  0.79659  1.0000
  H   H626      1.0  0.26231  0.48068  0.82758  1.0000
  Fe  Fe40      1.0  0.28978  0.48202  0.67829  1.0000
  H   H627      1.0  0.47628  0.45595  0.01129  1.0000
  H   H628      1.0  0.47771  0.28651  0.17910  1.0000
  C   C352      1.0  0.48048  0.27897  0.15705  1.0000
  N   N20       1.0  0.48433  0.25789  0.20503  1.0000
  Fe  Fe41      1.0  0.31869  0.48600  0.62676  1.0000
  S   S82       1.0  0.30611  0.48993  0.72860  1.0000
  H   H629      1.0  0.34913  0.48945  0.83141  1.0000
  H   H630      1.0  0.24245  0.48341  0.58002  1.0000
  H   H631      1.0  0.48506  0.28341  0.82297  1.0000
  H   H632      1.0  0.47666  0.25283  0.26116  1.0000
  C   C353      1.0  0.48132  0.33181  0.86002  1.0000
  H   H633      1.0  0.39463  0.46977  0.85962  1.0000
  H   H634      1.0  0.24130  0.47973  0.38797  1.0000
  H   H635      1.0  0.25392  0.48346  0.44899  1.0000
  H   H636      1.0  0.47613  0.44169  0.95141  1.0000
  H   H637      1.0  0.37369  0.48556  0.12913  1.0000
  C   C354      1.0  0.26744  0.48767  0.45438  1.0000
  C   C355      1.0  0.32460  0.49249  0.49388  1.0000
  H   H638      1.0  0.43504  0.48941  0.04439  1.0000
  H   H639      1.0  0.46011  0.24470  0.22883  1.0000
  H   H640      1.0  0.48560  0.46914  0.95501  1.0000
  H   H641      1.0  0.23881  0.44081  0.24031  1.0000
  H   H642      1.0  0.23626  0.45832  0.40543  1.0000
  Fe  Fe42      1.0  0.43896  0.63341  0.66796  1.0000
  S   S83       1.0  0.46562  0.63727  0.65826  1.0000
  S   S84       1.0  0.42952  0.65428  0.68412  1.0000
  Fe  Fe43      1.0  0.42707  0.59591  0.64576  1.0000
  S   S85       1.0  0.45303  0.59743  0.63414  1.0000
  S   S86       1.0  0.40727  0.57032  0.63158  1.0000
  Fe  Fe44      1.0  0.45964  0.61211  0.68771  1.0000
  H   H643      1.0  0.40065  0.56780  0.54420  1.0000
  Fe  Fe45      1.0  0.45620  0.62202  0.60593  1.0000
  H   H644      1.0  0.46596  0.72845  0.23855  1.0000
  S   S87       1.0  0.43339  0.60921  0.70038  1.0000
  S   S88       1.0  0.42987  0.61957  0.61467  1.0000
  Fe  Fe46      1.0  0.32387  0.50989  0.69263  1.0000
  S   S89       1.0  0.33877  0.53656  0.71327  1.0000
  S   S90       1.0  0.30632  0.50382  0.64479  1.0000
  Fe  Fe47      1.0  0.45090  0.61548  0.32965  1.0000
  S   S91       1.0  0.43559  0.63112  0.31659  1.0000
  C   C356      1.0  0.46046  0.71979  0.53699  1.0000
  Fe  Fe48      1.0  0.45669  0.60987  0.24592  1.0000
  S   S92       1.0  0.44146  0.62506  0.22855  1.0000
  Fe  Fe49      1.0  0.45476  0.64351  0.27378  1.0000
  S   S93       1.0  0.46765  0.67217  0.26527  1.0000
  Fe  Fe50      1.0  0.42368  0.61134  0.27282  1.0000
  S   S94       1.0  0.39571  0.60034  0.26487  1.0000
  S   S95       1.0  0.43796  0.59514  0.28772  1.0000
  S   S96       1.0  0.31224  0.51037  0.27523  1.0000
  S   S97       1.0  0.30901  0.50782  0.36464  1.0000
  Fe  Fe51      1.0  0.32897  0.51134  0.32299  1.0000
  S   S98       1.0  0.35600  0.52792  0.33252  1.0000
  S   S99       1.0  0.46477  0.51355  0.01556  1.0000
  H   H645      1.0  0.42728  0.55716  0.13106  1.0000
  C   C357      1.0  0.44405  0.51018  0.00681  1.0000
  C   C358      1.0  0.43977  0.52040  0.98205  1.0000
  C   C359      1.0  0.42306  0.51783  0.97610  1.0000
  C   C360      1.0  0.41066  0.50478  0.99427  1.0000
  H   H646      1.0  0.47115  0.72434  0.42167  1.0000
  H   H647      1.0  0.23886  0.70880  0.17476  1.0000
  H   H648      1.0  0.44927  0.53004  0.96691  1.0000
  H   H649      1.0  0.41980  0.52570  0.95685  1.0000
  H   H650      1.0  0.24836  0.73405  0.86892  1.0000
  N   N21       1.0  0.41075  0.53290  0.10774  1.0000
  H   H651      1.0  0.47319  0.70084  0.77686  1.0000
  C   C361      1.0  0.45740  0.68680  0.26154  1.0000
  C   C362      1.0  0.44070  0.68235  0.27082  1.0000
  C   C363      1.0  0.43326  0.69461  0.26921  1.0000
  C   C364      1.0  0.44238  0.71141  0.25826  1.0000
  C   C365      1.0  0.45900  0.71578  0.24842  1.0000
  C   C366      1.0  0.46649  0.70357  0.25031  1.0000
  H   H652      1.0  0.43353  0.66948  0.27937  1.0000
  H   H653      1.0  0.42032  0.69102  0.27636  1.0000
  H   H654      1.0  0.41001  0.62212  0.38252  1.0000
  H   H655      1.0  0.39670  0.58739  0.54286  1.0000
  H   H656      1.0  0.37312  0.50136  0.78662  1.0000
  C   C367      1.0  0.38435  0.57949  0.28027  1.0000
  C   C368      1.0  0.39235  0.56844  0.28943  1.0000
  C   C369      1.0  0.38328  0.55230  0.30364  1.0000
  C   C370      1.0  0.36612  0.54700  0.30879  1.0000
  C   C371      1.0  0.35790  0.55769  0.29823  1.0000
  C   C372      1.0  0.36703  0.57393  0.28403  1.0000
  H   H657      1.0  0.40553  0.57230  0.28577  1.0000
  H   H658      1.0  0.38964  0.54395  0.31120  1.0000
  H   H659      1.0  0.34464  0.55371  0.30212  1.0000
  H   H660      1.0  0.36072  0.58236  0.27667  1.0000
  S   S100      1.0  0.45151  0.60382  0.38598  1.0000
  H   H661      1.0  0.40688  0.52857  0.04934  1.0000
  C   C373      1.0  0.24675  0.74062  0.61431  1.0000
  C   C374      1.0  0.46191  0.62445  0.50501  1.0000
  C   C375      1.0  0.46664  0.63575  0.47538  1.0000
  C   C376      1.0  0.46300  0.62981  0.43890  1.0000
  C   C377      1.0  0.45513  0.61235  0.43145  1.0000
  H   H662      1.0  0.41748  0.58806  0.55007  1.0000
  H   H663      1.0  0.33528  0.55604  0.41428  1.0000
  H   H664      1.0  0.43317  0.52132  0.81712  1.0000
  H   H665      1.0  0.26305  0.54731  0.21327  1.0000
  C   C378      1.0  0.44062  0.67602  0.67430  1.0000
  C   C379      1.0  0.45795  0.68275  0.67189  1.0000
  C   C380      1.0  0.46643  0.70035  0.66636  1.0000
  C   C381      1.0  0.45768  0.71129  0.66227  1.0000
  C   C382      1.0  0.44033  0.70446  0.66337  1.0000
  C   C383      1.0  0.43186  0.68693  0.66972  1.0000
  H   H666      1.0  0.46483  0.67448  0.67521  1.0000
  C   C384      1.0  0.27647  0.71939  0.41755  1.0000
  H   H667      1.0  0.43345  0.71273  0.65993  1.0000
  H   H668      1.0  0.41844  0.68177  0.67115  1.0000
  H   H669      1.0  0.41352  0.56717  0.71470  1.0000
  H   H670      1.0  0.34411  0.53980  0.41179  1.0000
  H   H671      1.0  0.43008  0.69882  0.82991  1.0000
  H   H672      1.0  0.31486  0.53103  0.58887  1.0000
  C   C385      1.0  0.35720  0.54692  0.68869  1.0000
  C   C386      1.0  0.36071  0.53929  0.65744  1.0000
  C   C387      1.0  0.37585  0.54703  0.63938  1.0000
  C   C388      1.0  0.38759  0.56253  0.65221  1.0000
  C   C389      1.0  0.38388  0.57057  0.68263  1.0000
  C   C390      1.0  0.36871  0.56273  0.70093  1.0000
  H   H673      1.0  0.35177  0.52740  0.64704  1.0000
  H   H674      1.0  0.37859  0.54081  0.61568  1.0000
  H   H675      1.0  0.39280  0.58264  0.69236  1.0000
  H   H676      1.0  0.36597  0.56881  0.72483  1.0000
  H   H677      1.0  0.39752  0.70869  0.72167  1.0000
  H   H678      1.0  0.38250  0.50923  0.06276  1.0000
  H   H679      1.0  0.24620  0.71534  0.62228  1.0000
  H   H680      1.0  0.24446  0.72120  0.21642  1.0000
  C   C391      1.0  0.25042  0.54595  0.26655  1.0000
  C   C392      1.0  0.48033  0.73441  0.40530  1.0000
  N   N22       1.0  0.41677  0.54388  0.72915  1.0000
  C   C393      1.0  0.41531  0.56058  0.73971  1.0000
  C   C394      1.0  0.40075  0.53306  0.71014  1.0000
  C   C395      1.0  0.41901  0.53413  0.76185  1.0000
  C   C396      1.0  0.43273  0.54404  0.78982  1.0000
  C   C397      1.0  0.40112  0.55941  0.76652  1.0000
  H   H681      1.0  0.37338  0.50277  0.69543  1.0000
  C   C398      1.0  0.40256  0.57713  0.77972  1.0000
  H   H682      1.0  0.42701  0.56955  0.75212  1.0000
  H   H683      1.0  0.39797  0.54039  0.68769  1.0000
  H   H684      1.0  0.39005  0.52980  0.72906  1.0000
  H   H685      1.0  0.48145  0.49769  0.97201  1.0000
  H   H686      1.0  0.43160  0.55609  0.79882  1.0000
  H   H687      1.0  0.44518  0.54676  0.77801  1.0000
  H   H688      1.0  0.38883  0.55336  0.75293  1.0000
  H   H689      1.0  0.40144  0.55190  0.79098  1.0000
  H   H690      1.0  0.35094  0.49909  0.97082  1.0000
  H   H691      1.0  0.27083  0.72643  0.29634  1.0000
  H   H692      1.0  0.40233  0.58526  0.75621  1.0000
  H   H693      1.0  0.39193  0.57600  0.79769  1.0000
  H   H694      1.0  0.41428  0.58342  0.79543  1.0000
  H   H695      1.0  0.34765  0.55514  0.37559  1.0000
  H   H696      1.0  0.47001  0.69619  0.59137  1.0000
  H   H697      1.0  0.23741  0.56489  0.30812  1.0000
  C   C399      1.0  0.46824  0.73079  0.76314  1.0000
  H   H698      1.0  0.41977  0.53084  0.83827  1.0000
  H   H699      1.0  0.35804  0.51208  0.74119  1.0000
  H   H700      1.0  0.40943  0.64398  0.56947  1.0000
  H   H701      1.0  0.28983  0.50173  0.80992  1.0000
  H   H702      1.0  0.39314  0.51469  0.14334  1.0000
  H   H703      1.0  0.46502  0.62714  0.87329  1.0000
  C   C400      1.0  0.43072  0.54695  0.70205  1.0000
  H   H704      1.0  0.44363  0.57473  0.70002  1.0000
  H   H705      1.0  0.27901  0.52262  0.55794  1.0000
  C   C401      1.0  0.38193  0.49575  0.85617  1.0000
  C   C402      1.0  0.31249  0.53073  0.55900  1.0000
  C   C403      1.0  0.47266  0.58081  0.84276  1.0000
  C   C404      1.0  0.46047  0.56304  0.68223  1.0000
  H   H706      1.0  0.44166  0.53870  0.15141  1.0000
  C   C405      1.0  0.26223  0.49329  0.52078  1.0000
  H   H707      1.0  0.23771  0.56635  0.23486  1.0000
  H   H708      1.0  0.45127  0.56516  0.73546  1.0000
  H   H709      1.0  0.25537  0.55979  0.27365  1.0000
  H   H710      1.0  0.34428  0.49328  0.76374  1.0000
  H   H711      1.0  0.42196  0.52297  0.75289  1.0000
  H   H712      1.0  0.28995  0.72499  0.81027  1.0000
  H   H713      1.0  0.44583  0.72152  0.40389  1.0000
  H   H714      1.0  0.44109  0.54015  0.26697  1.0000
  S   S101      1.0  0.27102  0.51445  0.32112  1.0000
  H   H715      1.0  0.42626  0.54801  0.67382  1.0000
  H   H716      1.0  0.25622  0.69491  0.29597  1.0000
  H   H717      1.0  0.33241  0.50304  0.95990  1.0000
  C   C406      1.0  0.24973  0.50165  0.31479  1.0000
  H   H718      1.0  0.37730  0.73922  0.38553  1.0000
  S   S102      1.0  0.33726  0.49336  0.67333  1.0000
  C   C407      1.0  0.45261  0.52528  0.11670  1.0000
  H   H719      1.0  0.38749  0.61448  0.38164  1.0000
  H   H720      1.0  0.26555  0.70727  0.41895  1.0000
  H   H721      1.0  0.43468  0.53583  0.70112  1.0000
  C   C408      1.0  0.42289  0.52392  0.11080  1.0000
  C   C409      1.0  0.39147  0.73406  0.34287  1.0000
  C   C410      1.0  0.44831  0.70156  0.76767  1.0000
  H   H722      1.0  0.40215  0.50754  0.71449  1.0000
  H   H723      1.0  0.26394  0.50607  0.50968  1.0000
  C   C411      1.0  0.24934  0.72905  0.71191  1.0000
  H   H724      1.0  0.45628  0.60645  0.98404  1.0000
  H   H725      1.0  0.29006  0.54876  0.23908  1.0000
  H   H726      1.0  0.44303  0.73303  0.53477  1.0000
  H   H727      1.0  0.35518  0.51888  0.91879  1.0000
  H   H728      1.0  0.38843  0.72064  0.35127  1.0000
  C   C412      1.0  0.41502  0.49457  0.01886  1.0000
  H   H729      1.0  0.27355  0.50143  0.44788  1.0000
  H   H730      1.0  0.24159  0.51259  0.73029  1.0000
  H   H731      1.0  0.44934  0.69973  0.73778  1.0000
  H   H732      1.0  0.43556  0.69289  0.77470  1.0000
  H   H733      1.0  0.48130  0.62110  0.15930  1.0000
  H   H734      1.0  0.40751  0.72854  0.74591  1.0000
  H   H735      1.0  0.47986  0.70551  0.66538  1.0000
  H   H736      1.0  0.48123  0.56810  0.09874  1.0000
  H   H737      1.0  0.45734  0.66702  0.44886  1.0000
  H   H738      1.0  0.42733  0.72723  0.33656  1.0000
  C   C413      1.0  0.34864  0.50502  0.91376  1.0000
  H   H739      1.0  0.34442  0.51413  0.77608  1.0000
  H   H740      1.0  0.45638  0.56167  0.65318  1.0000
  H   H741      1.0  0.29992  0.72821  0.38807  1.0000
  H   H742      1.0  0.47759  0.69941  0.54589  1.0000
  H   H743      1.0  0.44197  0.54083  0.84330  1.0000
  H   H744      1.0  0.45781  0.73331  0.32619  1.0000
  C   C414      1.0  0.47311  0.67449  0.56562  1.0000
  H   H745      1.0  0.39541  0.49904  0.08284  1.0000
  H   H746      1.0  0.43158  0.73973  0.37842  1.0000
  H   H747      1.0  0.24117  0.71945  0.57656  1.0000
  C   C415      1.0  0.45536  0.67541  0.77880  1.0000
  H   H748      1.0  0.42179  0.70108  0.72882  1.0000
  C   C416      1.0  0.46908  0.69965  0.37944  1.0000
  C   C417      1.0  0.27840  0.50069  0.79462  1.0000
  H   H749      1.0  0.33823  0.50314  0.89433  1.0000
  C   C418      1.0  0.24773  0.51029  0.57888  1.0000
  H   H750      1.0  0.43284  0.56316  0.07386  1.0000
  C   C419      1.0  0.44505  0.54934  0.29024  1.0000
  H   H751      1.0  0.28452  0.56610  0.25569  1.0000
  C   C420      1.0  0.40971  0.71893  0.72800  1.0000
  C   C421      1.0  0.38346  0.50620  0.67498  1.0000
  H   H752      1.0  0.25040  0.72590  0.50783  1.0000
  H   H753      1.0  0.46441  0.55238  0.68952  1.0000
  C   C422      1.0  0.42051  0.55820  0.20031  1.0000
  H   H754      1.0  0.26129  0.52901  0.24000  1.0000
  H   H755      1.0  0.41502  0.70533  0.77240  1.0000
  H   H756      1.0  0.47935  0.60000  0.28009  1.0000
  S   S103      1.0  0.43233  0.72628  0.25638  1.0000
  C   C423      1.0  0.34105  0.49704  0.94988  1.0000
  H   H757      1.0  0.41607  0.56868  0.19434  1.0000
  H   H758      1.0  0.25744  0.52252  0.58799  1.0000
  H   H759      1.0  0.40087  0.54505  0.06714  1.0000
  H   H760      1.0  0.46989  0.72772  0.73410  1.0000
  C   C424      1.0  0.43357  0.71266  0.83508  1.0000
  S   S104      1.0  0.28060  0.73090  0.68942  1.0000
  H   H761      1.0  0.41842  0.54903  0.99831  1.0000
  H   H762      1.0  0.47425  0.66988  0.53772  1.0000
  C   C425      1.0  0.40025  0.51593  0.69325  1.0000
  C   C426      1.0  0.47376  0.57899  0.14624  1.0000
  H   H763      1.0  0.29141  0.70565  0.39671  1.0000
  H   H764      1.0  0.27450  0.71944  0.77396  1.0000
  H   H765      1.0  0.42338  0.71666  0.82586  1.0000
  C   C427      1.0  0.45908  0.58393  0.82769  1.0000
  H   H766      1.0  0.43417  0.56291  0.19671  1.0000
  C   C428      1.0  0.28217  0.51167  0.56700  1.0000
  H   H767      1.0  0.25965  0.73657  0.80525  1.0000
  C   C429      1.0  0.24303  0.72169  0.43453  1.0000
  H   H768      1.0  0.26743  0.73297  0.37807  1.0000
  C   C430      1.0  0.44806  0.70384  0.55620  1.0000
  H   H769      1.0  0.40992  0.51812  0.67207  1.0000
  C   C431      1.0  0.23834  0.50102  0.71401  1.0000
  H   H770      1.0  0.28484  0.51365  0.59685  1.0000
  C   C432      1.0  0.45596  0.73542  0.54378  1.0000
  H   H771      1.0  0.42318  0.70803  0.88958  1.0000
  H   H772      1.0  0.41780  0.68233  0.58319  1.0000
  C   C433      1.0  0.46014  0.59176  0.79326  1.0000
  Fe  Fe52      1.0  0.29156  0.50377  0.31660  1.0000
  C   C434      1.0  0.48166  0.61063  0.96760  1.0000
  C   C435      1.0  0.44441  0.72196  0.37388  1.0000
  H   H773      1.0  0.46817  0.56685  0.15964  1.0000
  H   H774      1.0  0.42332  0.51738  0.08446  1.0000
  H   H775      1.0  0.38447  0.52691  0.11680  1.0000
  C   C436      1.0  0.23921  0.72148  0.60584  1.0000
  C   C437      1.0  0.42451  0.55947  0.01832  1.0000
  H   H776      1.0  0.25711  0.49527  0.61374  1.0000
  C   C438      1.0  0.42107  0.71136  0.74693  1.0000
  H   H777      1.0  0.38083  0.51399  0.65329  1.0000
  H   H778      1.0  0.28221  0.54811  0.28467  1.0000
  H   H779      1.0  0.43550  0.70264  0.54642  1.0000
  H   H780      1.0  0.24462  0.51131  0.54979  1.0000
  C   C439      1.0  0.47978  0.61601  0.92804  1.0000
  H   H781      1.0  0.44156  0.67652  0.60227  1.0000
  H   H782      1.0  0.43986  0.68776  0.49675  1.0000
  C   C440      1.0  0.26348  0.54284  0.24144  1.0000
  C   C441      1.0  0.25078  0.49481  0.70431  1.0000
  C   C442      1.0  0.27145  0.73454  0.40729  1.0000
  H   H783      1.0  0.47135  0.57519  0.68541  1.0000
  H   H784      1.0  0.41858  0.51349  0.13116  1.0000
  H   H785      1.0  0.44136  0.70903  0.36182  1.0000
  H   H786      1.0  0.26349  0.50159  0.71295  1.0000
  H   H787      1.0  0.23981  0.73858  0.93078  1.0000
  H   H788      1.0  0.46602  0.56563  0.26091  1.0000
  C   C443      1.0  0.28111  0.55205  0.25622  1.0000
  H   H789      1.0  0.25059  0.53929  0.29257  1.0000
  H   H790      1.0  0.26703  0.72040  0.49015  1.0000
  H   H791      1.0  0.27460  0.74065  0.84067  1.0000
  C   C444      1.0  0.46032  0.69447  0.78687  1.0000
  H   H792      1.0  0.44365  0.72927  0.72582  1.0000
  C   C445      1.0  0.24850  0.73154  0.30345  1.0000
  C   C446      1.0  0.42711  0.55222  0.05488  1.0000
  H   H793      1.0  0.44963  0.59418  0.78238  1.0000
  C   C447      1.0  0.43838  0.67379  0.57296  1.0000
  C   C448      1.0  0.24918  0.70304  0.29954  1.0000
  H   H794      1.0  0.38973  0.49588  0.88046  1.0000
  C   C449      1.0  0.44416  0.66155  0.45748  1.0000
  C   C450      1.0  0.25219  0.70233  0.69725  1.0000
  C   C451      1.0  0.35805  0.50287  0.83417  1.0000
  N   N23       1.0  0.37015  0.50463  0.86507  1.0000
  H   H795      1.0  0.47327  0.72311  0.54772  1.0000
  H   H796      1.0  0.43691  0.66783  0.44234  1.0000
  C   C452      1.0  0.38022  0.52335  0.87134  1.0000
  N   N24       1.0  0.26774  0.49502  0.56036  1.0000
  C   C453      1.0  0.36580  0.50890  0.79622  1.0000
  C   C454      1.0  0.39129  0.52792  0.90622  1.0000
  H   H797      1.0  0.30294  0.50359  0.55386  1.0000
  C   C455      1.0  0.40191  0.54698  0.90789  1.0000
  C   C456      1.0  0.44649  0.56335  0.70717  1.0000
  H   H798      1.0  0.33493  0.50454  0.49707  1.0000
  H   H799      1.0  0.43800  0.55793  0.28861  1.0000
  H   H800      1.0  0.37205  0.53086  0.87201  1.0000
  H   H801      1.0  0.38869  0.52855  0.84798  1.0000
  H   H802      1.0  0.45006  0.65713  0.51250  1.0000
  H   H803      1.0  0.44203  0.54208  0.31607  1.0000
  H   H804      1.0  0.37399  0.52257  0.79708  1.0000
  C   C457      1.0  0.42951  0.72699  0.36643  1.0000
  H   H805      1.0  0.39985  0.52092  0.90688  1.0000
  H   H806      1.0  0.38362  0.52479  0.93123  1.0000
  H   H807      1.0  0.43279  0.56693  0.37220  1.0000
  H   H808      1.0  0.39869  0.61465  0.34041  1.0000
  H   H809      1.0  0.40421  0.73895  0.33156  1.0000
  H   H810      1.0  0.40711  0.52856  0.77693  1.0000
  H   H811      1.0  0.41039  0.55073  0.88413  1.0000
  H   H812      1.0  0.39391  0.55464  0.90829  1.0000
  H   H813      1.0  0.40961  0.54991  0.93319  1.0000
  N   N25       1.0  0.39370  0.57312  0.43112  1.0000
  C   C458      1.0  0.37726  0.56112  0.41572  1.0000
  C   C459      1.0  0.40746  0.56698  0.42091  1.0000
  C   C460      1.0  0.39232  0.57277  0.47233  1.0000
  C   C461      1.0  0.39779  0.59130  0.41921  1.0000
  C   C462      1.0  0.39766  0.59446  0.37764  1.0000
  C   C463      1.0  0.36183  0.56538  0.42545  1.0000
  C   C464      1.0  0.40866  0.58234  0.49406  1.0000
  C   C465      1.0  0.40625  0.55833  0.38295  1.0000
  C   C466      1.0  0.42188  0.55480  0.37438  1.0000
  C   C467      1.0  0.39853  0.61256  0.37032  1.0000
  C   C468      1.0  0.34631  0.55332  0.40556  1.0000
  C   C469      1.0  0.40560  0.58129  0.53521  1.0000
  H   H814      1.0  0.37479  0.54787  0.42505  1.0000
  H   H815      1.0  0.37751  0.56027  0.38549  1.0000
  H   H816      1.0  0.41973  0.57771  0.42267  1.0000
  H   H817      1.0  0.40806  0.55725  0.44066  1.0000
  H   H818      1.0  0.38734  0.55931  0.48196  1.0000
  H   H819      1.0  0.38330  0.57849  0.48149  1.0000
  H   H820      1.0  0.38930  0.59672  0.43253  1.0000
  H   H821      1.0  0.41044  0.59957  0.42886  1.0000
  H   H822      1.0  0.38629  0.58564  0.36383  1.0000
  H   H823      1.0  0.40875  0.59326  0.36480  1.0000
  H   H824      1.0  0.35926  0.56391  0.45514  1.0000
  H   H825      1.0  0.36361  0.57858  0.41750  1.0000
  H   H826      1.0  0.41399  0.59604  0.48700  1.0000
  H   H827      1.0  0.41810  0.57669  0.48855  1.0000
  H   H828      1.0  0.39561  0.54587  0.38213  1.0000
  H   H829      1.0  0.40452  0.56637  0.36104  1.0000
  H   H830      1.0  0.42429  0.54677  0.39583  1.0000
  H   H831      1.0  0.42008  0.54787  0.34784  1.0000
  H   H832      1.0  0.24288  0.71088  0.37937  1.0000
  S   S105      1.0  0.47386  0.56121  0.98644  1.0000
  H   H833      1.0  0.41523  0.72503  0.70193  1.0000
  H   H834      1.0  0.47329  0.64920  0.48069  1.0000
  C   C470      1.0  0.35228  0.50693  0.76771  1.0000
  H   H835      1.0  0.41096  0.65428  0.61363  1.0000
  H   H836      1.0  0.41820  0.71752  0.37877  1.0000
  H   H837      1.0  0.41673  0.56726  0.02185  1.0000
  C   C471      1.0  0.44289  0.66378  0.49870  1.0000
  H   H838      1.0  0.43838  0.72922  0.88341  1.0000
  H   H839      1.0  0.45743  0.69880  0.39298  1.0000
  H   H840      1.0  0.43673  0.56772  0.00724  1.0000
  H   H841      1.0  0.46538  0.64556  0.82259  1.0000
  C   C472      1.0  0.45077  0.60102  0.46103  1.0000
  S   S106      1.0  0.47114  0.62900  0.28941  1.0000
  S   S107      1.0  0.47048  0.57109  0.88675  1.0000
  H   H842      1.0  0.41770  0.55451  0.22928  1.0000
  H   H843      1.0  0.46417  0.66404  0.58160  1.0000
  H   H844      1.0  0.47782  0.72788  0.77889  1.0000
  S   S108      1.0  0.46756  0.63263  0.55036  1.0000
  C   C473      1.0  0.25363  0.49522  0.58433  1.0000
  H   H845      1.0  0.43910  0.64774  0.45024  1.0000
  C   C474      1.0  0.28823  0.71678  0.38919  1.0000
  N   N26       1.0  0.45094  0.71998  0.77560  1.0000
  H   H846      1.0  0.47285  0.62944  0.80720  1.0000
  C   C475      1.0  0.38623  0.50497  0.08879  1.0000
  H   H847      1.0  0.46538  0.53337  0.12580  1.0000
  C   C476      1.0  0.46592  0.68250  0.36057  1.0000
  H   H848      1.0  0.28157  0.50374  0.76551  1.0000
  H   H849      1.0  0.24160  0.51936  0.34398  1.0000
  H   H850      1.0  0.46650  0.59545  0.01104  1.0000
  H   H851      1.0  0.44526  0.58745  0.45573  1.0000
  H   H852      1.0  0.40637  0.55499  0.12831  1.0000
  C   C477      1.0  0.45377  0.60702  0.49753  1.0000
  C   C478      1.0  0.40820  0.65502  0.58417  1.0000
  H   H853      1.0  0.28227  0.71430  0.36168  1.0000
  H   H854      1.0  0.27368  0.51026  0.80596  1.0000
  H   H855      1.0  0.45038  0.59810  0.51986  1.0000
  H   H856      1.0  0.45736  0.73884  0.57327  1.0000
  H   H857      1.0  0.46998  0.55033  0.29001  1.0000
  C   C479      1.0  0.39346  0.52029  0.11582  1.0000
  H   H858      1.0  0.46774  0.71076  0.32661  1.0000
  H   H859      1.0  0.25981  0.69538  0.68853  1.0000
  C   C480      1.0  0.26358  0.73118  0.49905  1.0000
  H   H860      1.0  0.38352  0.49424  0.66223  1.0000
  S   S109      1.0  0.46480  0.59219  0.20844  1.0000
  H   H861      1.0  0.30925  0.54184  0.55161  1.0000
  S   S110      1.0  0.46896  0.73338  0.65686  1.0000
  H   H862      1.0  0.36898  0.49601  0.92095  1.0000
  H   H863      1.0  0.46088  0.68974  0.49548  1.0000
  H   H864      1.0  0.35019  0.51037  0.84037  1.0000
  H   H865      1.0  0.42966  0.65713  0.50611  1.0000
  C   C481      1.0  0.29863  0.51402  0.54741  1.0000
  H   H866      1.0  0.39081  0.50271  0.83462  1.0000
  H   H867      1.0  0.39849  0.53787  0.18178  1.0000
  C   C482      1.0  0.44893  0.68297  0.50966  1.0000
  C   C483      1.0  0.47541  0.71463  0.35202  1.0000
  H   H868      1.0  0.32415  0.53184  0.54484  1.0000
  C   C484      1.0  0.41447  0.54769  0.13431  1.0000
  H   H869      1.0  0.47936  0.70708  0.24266  1.0000
  C   C485      1.0  0.47368  0.59388  0.16385  1.0000
  C   C486      1.0  0.41998  0.67182  0.56830  1.0000
  H   H870      1.0  0.43593  0.54568  0.05005  1.0000
  H   H871      1.0  0.46039  0.71756  0.50707  1.0000
  H   H872      1.0  0.29711  0.51470  0.51747  1.0000
  C   C487      1.0  0.41050  0.53930  0.06944  1.0000
  H   H873      1.0  0.47268  0.58321  0.39236  1.0000
  C   C488      1.0  0.25750  0.72090  0.29973  1.0000
  C   C489      1.0  0.46812  0.69024  0.56357  1.0000
  H   H874      1.0  0.24563  0.71152  0.44920  1.0000
  H   H875      1.0  0.41670  0.67230  0.53913  1.0000
  C   C490      1.0  0.43169  0.49723  0.02510  1.0000
  N   N27       1.0  0.45077  0.68732  0.55003  1.0000
  C   C491      1.0  0.43870  0.72511  0.75370  1.0000
  C   C492      1.0  0.46481  0.59938  0.98289  1.0000
  H   H876      1.0  0.44765  0.58036  0.84292  1.0000
  H   H877      1.0  0.46111  0.57999  0.32087  1.0000
  C   C493      1.0  0.27423  0.73944  0.53251  1.0000
  H   H878      1.0  0.45310  0.52208  0.08736  1.0000
  H   H879      1.0  0.47247  0.60425  0.91217  1.0000
  H   H880      1.0  0.44618  0.54692  0.10635  1.0000
  C   C494      1.0  0.44105  0.53502  0.12211  1.0000
  H   H881      1.0  0.44832  0.51335  0.13277  1.0000
  C   C495      1.0  0.25929  0.72023  0.70028  1.0000
  C   C496      1.0  0.44988  0.72344  0.81581  1.0000
  H   H882      1.0  0.46047  0.72205  0.83087  1.0000
  C   C497      1.0  0.41196  0.54280  0.17528  1.0000
  C   C498      1.0  0.43518  0.71552  0.87645  1.0000
  S   S111      1.0  0.38979  0.50112  0.98572  1.0000
  H   H883      1.0  0.39517  0.65418  0.58142  1.0000
  C   C499      1.0  0.36046  0.49658  0.89862  1.0000
  H   H884      1.0  0.45911  0.58772  0.96570  1.0000
  C   C500      1.0  0.28649  0.72909  0.78377  1.0000
  H   H885      1.0  0.36103  0.49648  0.11047  1.0000
  H   H886      1.0  0.44841  0.70685  0.58599  1.0000
  C   C501      1.0  0.48116  0.60950  0.14622  1.0000
  C   C502      1.0  0.43176  0.53353  0.82414  1.0000
  H   H887      1.0  0.43711  0.73641  0.76648  1.0000
  H   H888      1.0  0.43908  0.66108  0.56819  1.0000
  H   H889      1.0  0.46675  0.63869  0.41656  1.0000
  H   H890      1.0  0.41683  0.53274  0.18194  1.0000
  H   H891      1.0  0.45132  0.73696  0.82043  1.0000
  H   H892      1.0  0.46021  0.69615  0.81692  1.0000
  C   C503      1.0  0.48119  0.57965  0.11165  1.0000
  C   C504      1.0  0.46030  0.73459  0.35610  1.0000
  N   N28       1.0  0.47622  0.73204  0.36500  1.0000
  N   N29       1.0  0.25854  0.73753  0.43089  1.0000
  H   H893      1.0  0.46438  0.67074  0.79197  1.0000
  C   C505      1.0  0.47490  0.59674  0.77331  1.0000
  H   H894      1.0  0.47716  0.68270  0.34581  1.0000
  H   H895      1.0  0.47864  0.70137  0.40103  1.0000
  H   H896      1.0  0.32306  0.49484  0.43527  1.0000
  H   H897      1.0  0.27172  0.73005  0.55489  1.0000
  C   C506      1.0  0.46371  0.55958  0.28807  1.0000
  H   H898      1.0  0.29621  0.72973  0.76353  1.0000
  H   H899      1.0  0.28320  0.72200  0.44405  1.0000
  H   H900      1.0  0.44490  0.71127  0.88771  1.0000
  C   C507      1.0  0.48437  0.49378  0.94483  1.0000
  Fe  Fe53      1.0  0.48099  0.53850  0.99218  1.0000
  S   S112      1.0  0.47722  0.60708  0.72995  1.0000
  H   H901      1.0  0.47170  0.62355  0.93033  1.0000
  H   H902      1.0  0.45543  0.67947  0.34086  1.0000
  H   H903      1.0  0.46262  0.67218  0.38103  1.0000
  H   H904      1.0  0.44277  0.66806  0.78950  1.0000
  H   H905      1.0  0.48055  0.64815  0.88192  1.0000
  C   C508      1.0  0.23771  0.50756  0.32840  1.0000
  H   H906      1.0  0.45541  0.67300  0.74893  1.0000
  H   H907      1.0  0.48233  0.60551  0.34657  1.0000
  C   C509      1.0  0.46966  0.57286  0.31965  1.0000
  H   H908      1.0  0.24158  0.55359  0.20055  1.0000
  H   H909      1.0  0.46742  0.56525  0.34504  1.0000
  H   H910      1.0  0.47904  0.49967  0.92369  1.0000
  H   H911      1.0  0.38258  0.73421  0.32106  1.0000
  C   C510      1.0  0.47738  0.63637  0.86500  1.0000
  C   C511      1.0  0.47570  0.64087  0.82521  1.0000
  H   H912      1.0  0.48122  0.74239  0.47846  1.0000
  H   H913      1.0  0.48594  0.61591  0.85428  1.0000
  Fe  Fe54      1.0  0.29532  0.75965  0.68798  1.0000
  S   S113      1.0  0.28342  0.77909  0.68648  1.0000
  H   H914      1.0  0.38854  0.78476  0.46820  1.0000
  Fe  Fe55      1.0  0.32998  0.78701  0.67676  1.0000
  S   S114      1.0  0.31991  0.80788  0.67403  1.0000
  S   S115      1.0  0.35755  0.79775  0.66636  1.0000
  Fe  Fe56      1.0  0.30501  0.79531  0.72293  1.0000
  S   S116      1.0  0.30214  0.81026  0.77394  1.0000
  Fe  Fe57      1.0  0.29997  0.78962  0.63784  1.0000
  S   S117      1.0  0.29143  0.79697  0.58330  1.0000
  S   S118      1.0  0.31589  0.77503  0.72716  1.0000
  S   S119      1.0  0.31097  0.76956  0.63803  1.0000
  Fe  Fe58      1.0  0.44758  0.77271  0.58949  1.0000
  H   H915      1.0  0.47507  0.79028  0.50475  1.0000
  S   S120      1.0  0.44064  0.77090  0.52826  1.0000
  Fe  Fe59      1.0  0.46112  0.79019  0.66562  1.0000
  S   S121      1.0  0.44863  0.76577  0.69563  1.0000
  H   H916      1.0  0.40488  0.80197  0.44660  1.0000
  Fe  Fe60      1.0  0.45701  0.75303  0.64970  1.0000
  H   H917      1.0  0.41873  0.89082  0.15458  1.0000
  Fe  Fe61      1.0  0.42671  0.76255  0.65945  1.0000
  C   C512      1.0  0.25555  0.78978  0.75272  1.0000
  S   S122      1.0  0.47138  0.77778  0.62133  1.0000
  S   S123      1.0  0.43864  0.78738  0.63075  1.0000
  Fe  Fe62      1.0  0.32129  0.76802  0.29853  1.0000
  S   S124      1.0  0.33274  0.79373  0.32514  1.0000
  S   S125      1.0  0.33679  0.75291  0.28067  1.0000
  Fe  Fe63      1.0  0.28635  0.76827  0.30547  1.0000
  S   S126      1.0  0.29602  0.79477  0.33074  1.0000
  C   C513      1.0  0.47427  0.78941  0.44549  1.0000
  Fe  Fe64      1.0  0.31596  0.80104  0.28695  1.0000
  S   S127      1.0  0.32958  0.82538  0.25359  1.0000
  Fe  Fe65      1.0  0.31190  0.78482  0.36571  1.0000
  S   S128      1.0  0.31749  0.78361  0.42700  1.0000
  S   S129      1.0  0.30496  0.77528  0.25967  1.0000
  S   S130      1.0  0.30163  0.75842  0.34116  1.0000
  Fe  Fe66      1.0  0.44402  0.75536  0.25784  1.0000
  S   S131      1.0  0.47083  0.77232  0.26632  1.0000
  H   H918      1.0  0.31667  0.78334  0.90287  1.0000
  Fe  Fe67      1.0  0.43265  0.78516  0.26685  1.0000
  S   S132      1.0  0.45853  0.80381  0.27751  1.0000
  S   S133      1.0  0.41342  0.79716  0.26749  1.0000
  Fe  Fe68      1.0  0.46535  0.79110  0.22914  1.0000
  H   H919      1.0  0.39343  0.92365  0.87961  1.0000
  Fe  Fe69      1.0  0.46135  0.78353  0.31345  1.0000
  H   H920      1.0  0.34959  0.93324  0.16841  1.0000
  S   S134      1.0  0.43911  0.77315  0.21733  1.0000
  S   S135      1.0  0.43492  0.76601  0.30624  1.0000
  Fe  Fe70      1.0  0.36695  0.89668  0.00719  1.0000
  S   S136      1.0  0.37033  0.88381  0.05886  1.0000
  S   S137      1.0  0.37308  0.92587  0.00263  1.0000
  Fe  Fe71      1.0  0.35473  0.86219  0.96162  1.0000
  S   S138      1.0  0.35777  0.84763  0.01064  1.0000
  S   S139      1.0  0.35266  0.84895  0.90480  1.0000
  Fe  Fe72      1.0  0.34622  0.86253  0.04462  1.0000
  S   S140      1.0  0.32665  0.84754  0.08662  1.0000
  Fe  Fe73      1.0  0.38138  0.86972  0.02190  1.0000
  S   S141      1.0  0.40382  0.86453  0.03908  1.0000
  S   S142      1.0  0.34152  0.87614  0.99474  1.0000
  S   S143      1.0  0.37953  0.88353  0.97140  1.0000
  S   S144      1.0  0.45839  0.89094  0.91791  1.0000
  H   H921      1.0  0.44067  0.79554  0.75298  1.0000
  C   C514      1.0  0.41996  0.87310  0.00786  1.0000
  C   C515      1.0  0.43132  0.86515  0.00257  1.0000
  C   C516      1.0  0.44354  0.87106  0.97580  1.0000
  C   C517      1.0  0.44430  0.88482  0.95396  1.0000
  C   C518      1.0  0.43346  0.89331  0.96039  1.0000
  C   C519      1.0  0.42130  0.88746  0.98744  1.0000
  H   H922      1.0  0.43033  0.85399  0.01800  1.0000
  H   H923      1.0  0.45198  0.86457  0.97139  1.0000
  H   H924      1.0  0.43438  0.90428  0.94425  1.0000
  H   H925      1.0  0.41307  0.89415  0.99262  1.0000
  H   H926      1.0  0.40849  0.77666  0.79537  1.0000
  H   H927      1.0  0.38162  0.84823  0.76283  1.0000
  H   H928      1.0  0.41841  0.84488  0.07628  1.0000
  C   C520      1.0  0.48138  0.81712  0.14339  1.0000
  C   C521      1.0  0.32916  0.83054  0.20621  1.0000
  C   C522      1.0  0.31694  0.82038  0.18178  1.0000
  C   C523      1.0  0.31657  0.82558  0.14523  1.0000
  C   C524      1.0  0.32868  0.84073  0.13203  1.0000
  C   C525      1.0  0.34127  0.85058  0.15609  1.0000
  C   C526      1.0  0.34132  0.84566  0.19293  1.0000
  H   H929      1.0  0.30742  0.80879  0.19137  1.0000
  H   H930      1.0  0.30667  0.81790  0.12712  1.0000
  H   H931      1.0  0.35057  0.86235  0.14670  1.0000
  H   H932      1.0  0.35068  0.85385  0.21147  1.0000
  C   C527      1.0  0.39232  0.78424  0.27030  1.0000
  C   C528      1.0  0.38110  0.79223  0.27681  1.0000
  C   C529      1.0  0.36409  0.78267  0.27872  1.0000
  C   C530      1.0  0.35811  0.76494  0.27540  1.0000
  C   C531      1.0  0.36933  0.75684  0.26854  1.0000
  C   C532      1.0  0.38647  0.76650  0.26569  1.0000
  H   H933      1.0  0.38559  0.80596  0.28018  1.0000
  H   H934      1.0  0.35561  0.78912  0.28233  1.0000
  C   C533      1.0  0.45062  0.83284  0.20206  1.0000
  H   H935      1.0  0.39510  0.76025  0.26033  1.0000
  H   H936      1.0  0.37471  0.86348  0.74096  1.0000
  C   C534      1.0  0.45045  0.77576  0.48477  1.0000
  H   H937      1.0  0.34749  0.90428  0.05454  1.0000
  C   C535      1.0  0.38050  0.83451  0.20291  1.0000
  C   C536      1.0  0.46442  0.78364  0.41379  1.0000
  C   C537      1.0  0.44751  0.77387  0.41784  1.0000
  C   C538      1.0  0.44066  0.76982  0.45305  1.0000
  H   H938      1.0  0.45872  0.84954  0.09550  1.0000
  H   H939      1.0  0.41406  0.83217  0.11574  1.0000
  H   H940      1.0  0.43977  0.76937  0.39384  1.0000
  H   H941      1.0  0.42764  0.76204  0.45583  1.0000
  H   H942      1.0  0.31170  0.89922  0.07525  1.0000
  H   H943      1.0  0.25576  0.77758  0.36524  1.0000
  H   H944      1.0  0.38191  0.90943  0.91498  1.0000
  C   C539      1.0  0.29754  0.79227  0.53932  1.0000
  C   C540      1.0  0.30514  0.78043  0.53464  1.0000
  C   C541      1.0  0.31074  0.77768  0.49990  1.0000
  C   C542      1.0  0.30852  0.78644  0.46907  1.0000
  C   C543      1.0  0.30035  0.79784  0.47339  1.0000
  C   C544      1.0  0.29490  0.80072  0.50832  1.0000
  H   H945      1.0  0.30685  0.77351  0.55797  1.0000
  H   H946      1.0  0.31694  0.76875  0.49693  1.0000
  H   H947      1.0  0.29863  0.80480  0.45006  1.0000
  H   H948      1.0  0.28892  0.80984  0.51149  1.0000
  C   C545      1.0  0.31637  0.82075  0.81027  1.0000
  C   C546      1.0  0.33258  0.82093  0.81209  1.0000
  C   C547      1.0  0.34331  0.82937  0.84137  1.0000
  C   C548      1.0  0.33811  0.83781  0.86941  1.0000
  C   C549      1.0  0.32184  0.83745  0.86780  1.0000
  C   C550      1.0  0.31111  0.82901  0.83849  1.0000
  H   H949      1.0  0.33687  0.81460  0.79088  1.0000
  H   H950      1.0  0.35574  0.82930  0.84229  1.0000
  H   H951      1.0  0.31758  0.84386  0.88889  1.0000
  H   H952      1.0  0.29865  0.82902  0.83757  1.0000
  C   C551      1.0  0.38882  0.76497  0.67862  1.0000
  C   C552      1.0  0.39488  0.78043  0.66009  1.0000
  C   C553      1.0  0.38512  0.79033  0.65655  1.0000
  C   C554      1.0  0.36906  0.78465  0.67084  1.0000
  C   C555      1.0  0.36274  0.76901  0.68871  1.0000
  C   C556      1.0  0.37269  0.75924  0.69284  1.0000
  H   H953      1.0  0.40712  0.78485  0.64863  1.0000
  H   H954      1.0  0.39003  0.80240  0.64261  1.0000
  H   H955      1.0  0.35032  0.76457  0.69975  1.0000
  C   C557      1.0  0.34310  0.75699  0.38637  1.0000
  C   C558      1.0  0.37934  0.96010  0.99478  1.0000
  C   C559      1.0  0.38643  0.94818  0.00384  1.0000
  C   C560      1.0  0.40343  0.95448  0.01361  1.0000
  H   H956      1.0  0.36634  0.95564  0.98716  1.0000
  H   H957      1.0  0.40922  0.94558  0.02069  1.0000
  S   S145      1.0  0.47666  0.83995  0.03039  1.0000
  H   H958      1.0  0.46903  0.87545  0.14252  1.0000
  H   H959      1.0  0.47008  0.97158  0.03560  1.0000
  H   H960      1.0  0.27758  0.76862  0.39190  1.0000
  C   C561      1.0  0.43169  0.86866  0.12023  1.0000
  H   H961      1.0  0.42602  0.97707  0.02162  1.0000
  H   H962      1.0  0.24684  0.77892  0.73650  1.0000
  H   H963      1.0  0.40167  0.92590  0.92550  1.0000
  H   H964      1.0  0.40513  0.80618  0.07546  1.0000
  N   N30       1.0  0.40004  0.87671  0.85874  1.0000
  C   C562      1.0  0.38839  0.86452  0.83139  1.0000
  C   C563      1.0  0.40023  0.86758  0.89413  1.0000
  C   C564      1.0  0.39333  0.89052  0.86691  1.0000
  C   C565      1.0  0.41741  0.88515  0.84424  1.0000
  C   C566      1.0  0.42593  0.87320  0.82992  1.0000
  C   C567      1.0  0.38669  0.87196  0.79368  1.0000
  C   C568      1.0  0.40346  0.90444  0.89503  1.0000
  C   C569      1.0  0.39761  0.84837  0.89177  1.0000
  C   C570      1.0  0.40102  0.84189  0.92858  1.0000
  C   C571      1.0  0.44266  0.88355  0.81271  1.0000
  C   C572      1.0  0.37593  0.85788  0.76763  1.0000
  C   C573      1.0  0.39453  0.91654  0.90423  1.0000
  H   H965      1.0  0.37570  0.85901  0.84321  1.0000
  H   H966      1.0  0.39201  0.85347  0.82573  1.0000
  H   H967      1.0  0.41197  0.87427  0.90949  1.0000
  H   H968      1.0  0.39018  0.86794  0.91250  1.0000
  H   H969      1.0  0.38027  0.88467  0.87678  1.0000
  H   H970      1.0  0.39282  0.89761  0.84185  1.0000
  H   H971      1.0  0.41766  0.89429  0.82234  1.0000
  H   H972      1.0  0.42587  0.89305  0.86604  1.0000
  H   H973      1.0  0.41827  0.86415  0.80886  1.0000
  H   H974      1.0  0.42848  0.86607  0.85294  1.0000
  H   H975      1.0  0.38055  0.88132  0.79628  1.0000
  H   H976      1.0  0.39898  0.87824  0.78078  1.0000
  H   H977      1.0  0.41576  0.91235  0.88382  1.0000
  H   H978      1.0  0.40557  0.89873  0.92071  1.0000
  H   H979      1.0  0.38449  0.84073  0.88411  1.0000
  H   H980      1.0  0.40576  0.84579  0.87135  1.0000
  H   H981      1.0  0.41434  0.84823  0.93613  1.0000
  H   H982      1.0  0.39329  0.84445  0.95031  1.0000
  H   H983      1.0  0.39799  0.82792  0.92686  1.0000
  H   H984      1.0  0.44100  0.89119  0.78957  1.0000
  H   H985      1.0  0.45114  0.89224  0.83339  1.0000
  H   H986      1.0  0.44861  0.87487  0.80217  1.0000
  H   H987      1.0  0.36328  0.85146  0.77899  1.0000
  H   H988      1.0  0.26780  0.79516  0.80477  1.0000
  H   H989      1.0  0.39836  0.76345  0.43958  1.0000
  H   H990      1.0  0.32770  0.83409  0.61218  1.0000
  H   H991      1.0  0.40960  0.81974  0.03571  1.0000
  H   H992      1.0  0.35657  0.79727  0.43185  1.0000
  C   C574      1.0  0.41491  0.81337  0.05589  1.0000
  H   H993      1.0  0.41219  0.81266  0.70319  1.0000
  H   H994      1.0  0.34449  0.79967  0.11852  1.0000
  C   C575      1.0  0.39527  0.76383  0.36517  1.0000
  H   H995      1.0  0.43479  0.81946  0.09441  1.0000
  H   H996      1.0  0.34078  0.76658  0.40414  1.0000
  H   H997      1.0  0.41909  0.80419  0.04096  1.0000
  H   H998      1.0  0.37708  0.84140  0.18047  1.0000
  H   H999      1.0  0.36656  0.84150  0.24556  1.0000
  H   H1000     1.0  0.36077  0.77316  0.53885  1.0000
  C   C576      1.0  0.42970  0.82652  0.07598  1.0000
  H   H1001     1.0  0.26040  0.74546  0.61012  1.0000
  N   N31       1.0  0.35716  0.80543  0.54708  1.0000
  H   H1002     1.0  0.24678  0.78011  0.80549  1.0000
  H   H1003     1.0  0.43911  0.83289  0.05497  1.0000
  H   H1004     1.0  0.35173  0.82795  0.53470  1.0000
  H   H1005     1.0  0.42731  0.84136  0.16874  1.0000
  H   H1006     1.0  0.40920  0.88490  0.10986  1.0000
  H   H1007     1.0  0.45991  0.98209  0.00703  1.0000
  H   H1008     1.0  0.40447  0.85449  0.12204  1.0000
  H   H1009     1.0  0.31041  0.79909  0.88137  1.0000
  C   C577      1.0  0.28582  0.77654  0.83615  1.0000
  C   C578      1.0  0.40127  0.78881  0.45702  1.0000
  H   H1010     1.0  0.36922  0.78144  0.58318  1.0000
  H   H1011     1.0  0.46463  0.88752  0.10632  1.0000
  C   C579      1.0  0.42433  0.83954  0.09732  1.0000
  C   C580      1.0  0.41433  0.86462  0.13760  1.0000
  H   H1012     1.0  0.43144  0.87387  0.09240  1.0000
  H   H1013     1.0  0.36484  0.94231  0.07161  1.0000
  H   H1014     1.0  0.36402  0.83622  0.09309  1.0000
  H   H1015     1.0  0.25734  0.77292  0.86317  1.0000
  H   H1016     1.0  0.39713  0.87707  0.15029  1.0000
  S   S146      1.0  0.47246  0.81587  0.69692  1.0000
  H   H1017     1.0  0.41429  0.86041  0.16621  1.0000
  C   C581      1.0  0.37340  0.81448  0.56696  1.0000
  C   C582      1.0  0.40963  0.88036  0.13811  1.0000
  H   H1018     1.0  0.44050  0.87941  0.13661  1.0000
  N   N32       1.0  0.43754  0.85390  0.11806  1.0000
  C   C583      1.0  0.47209  0.98295  0.01847  1.0000
  H   H1019     1.0  0.33523  0.75297  0.56879  1.0000
  H   H1020     1.0  0.38461  0.83786  0.26168  1.0000
  H   H1021     1.0  0.36918  0.81004  0.22970  1.0000
  H   H1022     1.0  0.35389  0.75061  0.58536  1.0000
  H   H1023     1.0  0.32182  0.82832  0.56530  1.0000
  H   H1024     1.0  0.42847  0.80509  0.69129  1.0000
  C   C584      1.0  0.38878  0.97777  0.99518  1.0000
  C   C585      1.0  0.43962  0.84871  0.15666  1.0000
  C   C586      1.0  0.39025  0.74483  0.37571  1.0000
  H   H1025     1.0  0.28226  0.75025  0.76015  1.0000
  H   H1026     1.0  0.28316  0.74601  0.40790  1.0000
  H   H1027     1.0  0.45139  0.86251  0.06839  1.0000
  H   H1028     1.0  0.36478  0.74309  0.26559  1.0000
  C   C587      1.0  0.45364  0.85981  0.09727  1.0000
  H   H1029     1.0  0.44506  0.86019  0.17465  1.0000
  H   H1030     1.0  0.33103  0.80728  0.59767  1.0000
  C   C588      1.0  0.34046  0.81912  0.58673  1.0000
  H   H1031     1.0  0.45149  0.81771  0.79786  1.0000
  H   H1032     1.0  0.34583  0.79082  0.59494  1.0000
  H   H1033     1.0  0.35104  0.82388  0.60622  1.0000
  C   C589      1.0  0.34694  0.75930  0.58452  1.0000
  C   C590      1.0  0.45063  0.83806  0.16219  1.0000
  H   H1034     1.0  0.33601  0.78193  0.55320  1.0000
  H   H1035     1.0  0.43941  0.76825  0.77972  1.0000
  H   H1036     1.0  0.35580  0.81583  0.20154  1.0000
  H   H1037     1.0  0.25490  0.75818  0.77347  1.0000
  H   H1038     1.0  0.33310  0.75654  0.19837  1.0000
  C   C591      1.0  0.36848  0.81556  0.20262  1.0000
  H   H1039     1.0  0.39096  0.80278  0.20744  1.0000
  H   H1040     1.0  0.45534  0.81075  0.06977  1.0000
  C   C592      1.0  0.41301  0.97242  0.01409  1.0000
  C   C593      1.0  0.37958  0.84327  0.23910  1.0000
  H   H1041     1.0  0.34165  0.84496  0.57627  1.0000
  H   H1042     1.0  0.37139  0.81434  0.59699  1.0000
  C   C594      1.0  0.46735  0.78556  0.48075  1.0000
  C   C595      1.0  0.33245  0.83245  0.58486  1.0000
  C   C596      1.0  0.34835  0.78869  0.56602  1.0000
  C   C597      1.0  0.35761  0.77610  0.56678  1.0000
  H   H1043     1.0  0.36789  0.74723  0.70706  1.0000
  C   C598      1.0  0.37051  0.81139  0.13551  1.0000
  H   H1044     1.0  0.33440  0.80868  0.53240  1.0000
  C   C599      1.0  0.25596  0.76046  0.85021  1.0000
  C   C600      1.0  0.46757  0.87610  0.11253  1.0000
  H   H1045     1.0  0.42217  0.80496  0.39386  1.0000
  H   H1046     1.0  0.24136  0.74769  0.59608  1.0000
  H   H1047     1.0  0.40987  0.77659  0.50066  1.0000
  C   C601      1.0  0.42579  0.76498  0.78178  1.0000
  N   N33       1.0  0.37113  0.80433  0.17294  1.0000
  C   C602      1.0  0.34596  0.81549  0.54836  1.0000
  H   H1048     1.0  0.41981  0.75958  0.75526  1.0000
  H   H1049     1.0  0.38702  0.85715  0.23747  1.0000
  H   H1050     1.0  0.44801  0.82507  0.73421  1.0000
  H   H1051     1.0  0.37607  0.84130  0.55954  1.0000
  H   H1052     1.0  0.35023  0.78921  0.49843  1.0000
  H   H1053     1.0  0.46833  0.75160  0.42469  1.0000
  H   H1054     1.0  0.43428  0.83586  0.74233  1.0000
  H   H1055     1.0  0.38506  0.77693  0.16995  1.0000
  S   S147      1.0  0.47416  0.85304  0.93273  1.0000
  H   H1056     1.0  0.34086  0.78678  0.21860  1.0000
  C   C603      1.0  0.26058  0.78162  0.39337  1.0000
  H   H1057     1.0  0.38366  0.81734  0.80757  1.0000
  C   C604      1.0  0.33862  0.90891  0.06831  1.0000
  H   H1058     1.0  0.38190  0.80749  0.56297  1.0000
  H   H1059     1.0  0.34705  0.81437  0.47489  1.0000
  C   C605      1.0  0.38836  0.80397  0.17806  1.0000
  H   H1060     1.0  0.43230  0.84169  0.80824  1.0000
  C   C606      1.0  0.38341  0.83310  0.55595  1.0000
  H   H1061     1.0  0.45692  0.79891  0.13112  1.0000
  H   H1062     1.0  0.38752  0.83355  0.52726  1.0000
  H   H1063     1.0  0.40613  0.85412  0.57126  1.0000
  C   C607      1.0  0.39904  0.84079  0.57971  1.0000
  C   C608      1.0  0.35580  0.82266  0.08859  1.0000
  C   C609      1.0  0.42582  0.81631  0.70081  1.0000
  C   C610      1.0  0.36006  0.80145  0.50777  1.0000
  C   C611      1.0  0.43469  0.82297  0.73787  1.0000
  H   H1064     1.0  0.37133  0.90786  0.11820  1.0000
  H   H1065     1.0  0.37195  0.79935  0.50544  1.0000
  C   C612      1.0  0.35985  0.81452  0.47831  1.0000
  H   H1066     1.0  0.36815  0.82768  0.48560  1.0000
  C   C613      1.0  0.31113  0.78631  0.87772  1.0000
  H   H1067     1.0  0.32809  0.76197  0.15323  1.0000
  H   H1068     1.0  0.38837  0.78874  0.12830  1.0000
  H   H1069     1.0  0.34918  0.81915  0.14497  1.0000
  H   H1070     1.0  0.37075  0.75693  0.42126  1.0000
  C   C614      1.0  0.39197  0.78952  0.15750  1.0000
  H   H1071     1.0  0.42925  0.84122  0.67827  1.0000
  H   H1072     1.0  0.37093  0.77782  0.42132  1.0000
  H   H1073     1.0  0.27067  0.79441  0.39197  1.0000
  C   C615      1.0  0.43941  0.81925  0.80241  1.0000
  H   H1074     1.0  0.38043  0.82427  0.13290  1.0000
  H   H1075     1.0  0.34073  0.74510  0.40194  1.0000
  H   H1076     1.0  0.36776  0.90802  0.17755  1.0000
  H   H1077     1.0  0.45871  0.82537  0.20520  1.0000
  H   H1078     1.0  0.40716  0.83334  0.57668  1.0000
  C   C616      1.0  0.43204  0.82977  0.67115  1.0000
  H   H1079     1.0  0.37169  0.92751  0.23108  1.0000
  H   H1080     1.0  0.40948  0.81928  0.32837  1.0000
  C   C617      1.0  0.37366  0.76839  0.40384  1.0000
  C   C618      1.0  0.36085  0.76397  0.37197  1.0000
  H   H1081     1.0  0.36233  0.77549  0.35588  1.0000
  H   H1082     1.0  0.37214  0.91849  0.07678  1.0000
  H   H1083     1.0  0.41622  0.93409  0.10748  1.0000
  C   C619      1.0  0.28522  0.74661  0.78754  1.0000
  H   H1084     1.0  0.39361  0.83596  0.19952  1.0000
  C   C620      1.0  0.26740  0.76894  0.40973  1.0000
  C   C621      1.0  0.41445  0.80287  0.36877  1.0000
  C   C622      1.0  0.40214  0.77620  0.42667  1.0000
  S   S148      1.0  0.47396  0.78817  0.36999  1.0000
  H   H1085     1.0  0.36218  0.75412  0.35338  1.0000
  N   N34       1.0  0.39172  0.77524  0.39308  1.0000
  H   H1086     1.0  0.39104  0.80068  0.39367  1.0000
  C   C623      1.0  0.40335  0.92485  0.10271  1.0000
  C   C624      1.0  0.39579  0.79261  0.37648  1.0000
  H   H1087     1.0  0.38919  0.79140  0.34992  1.0000
  H   H1088     1.0  0.42576  0.82440  0.64483  1.0000
  C   C625      1.0  0.39096  0.93292  0.11413  1.0000
  H   H1089     1.0  0.39802  0.81617  0.16934  1.0000
  H   H1090     1.0  0.40188  0.92141  0.07315  1.0000
  H   H1091     1.0  0.48256  0.93851  0.92719  1.0000
  H   H1092     1.0  0.41928  0.79613  0.34836  1.0000
  H   H1093     1.0  0.34560  0.90263  0.17959  1.0000
  H   H1094     1.0  0.31855  0.89317  0.03284  1.0000
  H   H1095     1.0  0.41344  0.82822  0.37417  1.0000
  H   H1096     1.0  0.41538  0.77946  0.41919  1.0000
  H   H1097     1.0  0.48318  0.87864  0.06468  1.0000
  C   C626      1.0  0.41699  0.82046  0.35362  1.0000
  H   H1098     1.0  0.24922  0.74700  0.38405  1.0000
  H   H1099     1.0  0.40878  0.76852  0.35913  1.0000
  H   H1100     1.0  0.38185  0.97363  0.07014  1.0000
  H   H1101     1.0  0.38927  0.76444  0.33867  1.0000
  H   H1102     1.0  0.42082  0.75511  0.80303  1.0000
  H   H1103     1.0  0.25989  0.75313  0.47937  1.0000
  H   H1104     1.0  0.29520  0.76023  0.86932  1.0000
  H   H1105     1.0  0.37332  0.80346  0.11414  1.0000
  H   H1106     1.0  0.46373  0.84543  0.15468  1.0000
  C   C627      1.0  0.48189  0.81089  0.76817  1.0000
  H   H1107     1.0  0.35783  0.90607  0.24083  1.0000
  H   H1108     1.0  0.39315  0.93645  0.14344  1.0000
  H   H1109     1.0  0.44565  0.83351  0.66752  1.0000
  H   H1110     1.0  0.33421  0.75397  0.36306  1.0000
  C   C628      1.0  0.35861  0.78628  0.17644  1.0000
  H   H1111     1.0  0.38135  0.80438  0.84750  1.0000
  H   H1112     1.0  0.41086  0.81956  0.83427  1.0000
  N   N35       1.0  0.42778  0.81177  0.77050  1.0000
  H   H1113     1.0  0.45551  0.84425  0.22024  1.0000
  C   C629      1.0  0.47908  0.82201  0.74317  1.0000
  H   H1114     1.0  0.28407  0.78872  0.84180  1.0000
  C   C630      1.0  0.36516  0.81010  0.44112  1.0000
  H   H1115     1.0  0.46364  0.75474  0.75562  1.0000
  H   H1116     1.0  0.46444  0.74653  0.52855  1.0000
  H   H1117     1.0  0.38272  0.96015  0.12870  1.0000
  C   C631      1.0  0.38555  0.80599  0.81867  1.0000
  H   H1118     1.0  0.44195  0.83710  0.86991  1.0000
  H   H1119     1.0  0.35772  0.77914  0.15026  1.0000
  H   H1120     1.0  0.40150  0.91321  0.11882  1.0000
  H   H1121     1.0  0.27273  0.77404  0.43685  1.0000
  S   S149      1.0  0.40129  0.75287  0.68508  1.0000
  H   H1122     1.0  0.39372  0.94457  0.09754  1.0000
  C   C632      1.0  0.48425  0.87873  0.09492  1.0000
  C   C633      1.0  0.46714  0.80990  0.12146  1.0000
  H   H1123     1.0  0.25007  0.79969  0.75568  1.0000
  C   C634      1.0  0.45112  0.84359  0.84855  1.0000
  C   C635      1.0  0.35970  0.92878  0.16031  1.0000
  C   C636      1.0  0.37294  0.92051  0.10674  1.0000
  H   H1124     1.0  0.32063  0.88292  0.07445  1.0000
  H   H1125     1.0  0.42607  0.79430  0.47952  1.0000
  C   C637      1.0  0.41296  0.78946  0.48878  1.0000
  H   H1126     1.0  0.45276  0.84628  0.79038  1.0000
  H   H1127     1.0  0.34946  0.92231  0.23273  1.0000
  C   C638      1.0  0.32130  0.89522  0.06255  1.0000
  H   H1128     1.0  0.33889  0.92059  0.05426  1.0000
  C   C639      1.0  0.46624  0.81674  0.08668  1.0000
  H   H1129     1.0  0.44606  0.82623  0.14587  1.0000
  C   C640      1.0  0.47935  0.83107  0.07331  1.0000
  H   H1130     1.0  0.34231  0.89966  0.12046  1.0000
  H   H1131     1.0  0.43028  0.82720  0.34669  1.0000
  H   H1132     1.0  0.24370  0.75589  0.83579  1.0000
  C   C641      1.0  0.41041  0.79231  0.15950  1.0000
  C   C642      1.0  0.34284  0.91214  0.10969  1.0000
  H   H1133     1.0  0.29525  0.77973  0.81414  1.0000
  C   C643      1.0  0.36015  0.94225  0.09997  1.0000
  H   H1134     1.0  0.46144  0.74786  0.36307  1.0000
  N   N36       1.0  0.35926  0.92616  0.11938  1.0000
  C   C644      1.0  0.48180  0.83879  0.75498  1.0000
  H   H1135     1.0  0.40128  0.80063  0.75976  1.0000
  H   H1136     1.0  0.37140  0.93904  0.16932  1.0000
  C   C645      1.0  0.34077  0.78386  0.18890  1.0000
  C   C646      1.0  0.41026  0.81092  0.77706  1.0000
  H   H1137     1.0  0.40524  0.79701  0.82949  1.0000
  H   H1138     1.0  0.33245  0.91480  0.12277  1.0000
  H   H1139     1.0  0.40884  0.82287  0.76794  1.0000
  C   C647      1.0  0.40388  0.80829  0.81698  1.0000
  H   H1140     1.0  0.34749  0.94259  0.09664  1.0000
  C   C648      1.0  0.37049  0.95961  0.11869  1.0000
  H   H1141     1.0  0.36358  0.96178  0.14250  1.0000
  C   C649      1.0  0.35790  0.91300  0.18390  1.0000
  H   H1142     1.0  0.34344  0.82227  0.07941  1.0000
  H   H1143     1.0  0.38285  0.98654  0.98793  1.0000
  H   H1144     1.0  0.43459  0.81223  0.82789  1.0000
  C   C650      1.0  0.25868  0.78395  0.79047  1.0000
  H   H1145     1.0  0.28624  0.77307  0.89518  1.0000
  C   C651      1.0  0.44354  0.83847  0.81043  1.0000
  H   H1146     1.0  0.41961  0.78841  0.73791  1.0000
  H   H1147     1.0  0.41263  0.78177  0.14490  1.0000
  H   H1148     1.0  0.31626  0.76386  0.19203  1.0000
  C   C652      1.0  0.42793  0.79432  0.76157  1.0000
  H   H1149     1.0  0.37806  0.81046  0.44257  1.0000
  C   C653      1.0  0.29382  0.77273  0.87109  1.0000
  C   C654      1.0  0.35388  0.81263  0.12390  1.0000
  H   H1150     1.0  0.36290  0.77930  0.19743  1.0000
  H   H1151     1.0  0.26742  0.79550  0.73781  1.0000
  H   H1152     1.0  0.36099  0.81704  0.06654  1.0000
  H   H1153     1.0  0.37778  0.79447  0.80281  1.0000
  H   H1154     1.0  0.36464  0.81952  0.42065  1.0000
  C   C655      1.0  0.35933  0.91759  0.22459  1.0000
  H   H1155     1.0  0.33557  0.79224  0.17460  1.0000
  H   H1156     1.0  0.47976  0.84757  0.73600  1.0000
  H   H1157     1.0  0.41803  0.80451  0.14661  1.0000
  H   H1158     1.0  0.41448  0.79246  0.18833  1.0000
  H   H1159     1.0  0.41180  0.79818  0.51056  1.0000
  H   H1160     1.0  0.46226  0.84021  0.85190  1.0000
  H   H1161     1.0  0.27920  0.75237  0.46618  1.0000
  H   H1162     1.0  0.45501  0.85759  0.85274  1.0000
  H   H1163     1.0  0.42841  0.78554  0.81846  1.0000
  N   N37       1.0  0.26977  0.76293  0.82310  1.0000
  C   C656      1.0  0.40570  0.98427  0.00482  1.0000
  H   H1164     1.0  0.31944  0.78672  0.85442  1.0000
  C   C657      1.0  0.42213  0.78080  0.79197  1.0000
  H   H1165     1.0  0.47831  0.97189  0.97078  1.0000
  H   H1166     1.0  0.39566  0.84097  0.60893  1.0000
  C   C658      1.0  0.26492  0.76891  0.78754  1.0000
  S   S150      1.0  0.43386  0.74753  0.61664  1.0000
  Fe  Fe74      1.0  0.47830  0.88077  0.93013  1.0000
  H   H1167     1.0  0.27560  0.77306  0.76842  1.0000
  H   H1168     1.0  0.43789  0.82469  0.21075  1.0000
  S   S151      1.0  0.25829  0.75406  0.30279  1.0000
  H   H1169     1.0  0.29761  0.75573  0.79636  1.0000
  C   C659      1.0  0.32888  0.76542  0.18270  1.0000
  H   H1170     1.0  0.36177  0.97438  0.08076  1.0000
  H   H1171     1.0  0.34388  0.76161  0.61305  1.0000
  H   H1172     1.0  0.47899  0.74417  0.29074  1.0000
  C   C660      1.0  0.37361  0.97445  0.09256  1.0000
  H   H1173     1.0  0.47996  0.79799  0.75968  1.0000
  H   H1174     1.0  0.25048  0.78269  0.41054  1.0000
  H   H1175     1.0  0.37991  0.98674  0.10734  1.0000
  H   H1176     1.0  0.27145  0.75057  0.54243  1.0000
  C   C661      1.0  0.47322  0.75043  0.76698  1.0000
  S   S152      1.0  0.48347  0.80893  0.18750  1.0000
  H   H1177     1.0  0.24663  0.76124  0.92368  1.0000
  C   C662      1.0  0.25356  0.75091  0.41259  1.0000
  H   H1178     1.0  0.28761  0.74371  0.52569  1.0000
  H   H1179     1.0  0.24287  0.75232  0.42714  1.0000
  C   C663      1.0  0.48106  0.75146  0.42291  1.0000
  C   C664      1.0  0.26572  0.74435  0.46827  1.0000
  C   C665      1.0  0.27169  0.74615  0.81543  1.0000
  C   C666      1.0  0.48402  0.98371  0.98735  1.0000
  H   H1180     1.0  0.47516  0.75437  0.79618  1.0000
  C   C667      1.0  0.24161  0.74854  0.90988  1.0000
  C   C668      1.0  0.25366  0.74716  0.88082  1.0000
  H   H1181     1.0  0.26545  0.74857  0.89463  1.0000
  H   H1182     1.0  0.39866  0.74356  0.39749  1.0000
  H   H1183     1.0  0.25461  0.74281  0.71416  1.0000
  H   H1184     1.0  0.24450  0.74321  0.64319  1.0000
  Fe  Fe75      1.0  0.67444  0.15515  0.64711  1.0000
  S   S153      1.0  0.66669  0.12740  0.62931  1.0000
  S   S154      1.0  0.70201  0.16979  0.65917  1.0000
  Fe  Fe76      1.0  0.63892  0.15352  0.64515  1.0000
  S   S155      1.0  0.62939  0.12632  0.62683  1.0000
  S   S156      1.0  0.62165  0.16771  0.65496  1.0000
  Fe  Fe77      1.0  0.64593  0.12248  0.67034  1.0000
  S   S157      1.0  0.63229  0.09895  0.70554  1.0000
  Fe  Fe78      1.0  0.65070  0.13388  0.58751  1.0000
  S   S158      1.0  0.64149  0.12501  0.52899  1.0000
  S   S159      1.0  0.65468  0.14962  0.69036  1.0000
  S   S160      1.0  0.65938  0.16166  0.60360  1.0000
  Fe  Fe79      1.0  0.66178  0.16721  0.27304  1.0000
  S   S161      1.0  0.67017  0.14550  0.26240  1.0000
  S   S162      1.0  0.67725  0.19587  0.27546  1.0000
  Fe  Fe80      1.0  0.62670  0.14237  0.29462  1.0000
  S   S163      1.0  0.63303  0.11920  0.28542  1.0000
  S   S164      1.0  0.60254  0.13863  0.32286  1.0000
  Fe  Fe81      1.0  0.65693  0.13462  0.31522  1.0000
  S   S165      1.0  0.66935  0.12854  0.36582  1.0000
  Fe  Fe82      1.0  0.64524  0.13227  0.23342  1.0000
  S   S166      1.0  0.64125  0.12330  0.17255  1.0000
  S   S167      1.0  0.64977  0.15689  0.32632  1.0000
  S   S168      1.0  0.63759  0.15495  0.24212  1.0000
  Fe  Fe83      1.0  0.58705  0.02505  0.93987  1.0000
  S   S169      1.0  0.57862  0.03783  0.98537  1.0000
  Fe  Fe84      1.0  0.61186  0.06041  0.91261  1.0000
  S   S170      1.0  0.60461  0.07506  0.95677  1.0000
  S   S171      1.0  0.63165  0.07723  0.87288  1.0000
  Fe  Fe85      1.0  0.60535  0.05502  0.99579  1.0000
  S   S172      1.0  0.61264  0.06042  0.05708  1.0000
  Fe  Fe86      1.0  0.57867  0.05729  0.94414  1.0000
  S   S173      1.0  0.55840  0.06762  0.93576  1.0000
  S   S174      1.0  0.61430  0.04087  0.95245  1.0000
  S   S175      1.0  0.58563  0.04399  0.89766  1.0000
  Fe  Fe87      1.0  0.51794  0.16711  0.70292  1.0000
  C   C669      1.0  0.50497  0.22071  0.42320  1.0000
  S   S176      1.0  0.53039  0.19536  0.71701  1.0000
  Fe  Fe88      1.0  0.52697  0.13699  0.67988  1.0000
  S   S177      1.0  0.50041  0.12052  0.66848  1.0000
  S   S178      1.0  0.54484  0.12380  0.66932  1.0000
  Fe  Fe89      1.0  0.49877  0.14364  0.64126  1.0000
  H   H1185     1.0  0.72449  0.24078  0.57993  1.0000
  C   C670      1.0  0.71132  0.14744  0.29141  1.0000
  H   H1186     1.0  0.55667  0.08215  0.85192  1.0000
  S   S179      1.0  0.52576  0.15930  0.64925  1.0000
  S   S180      1.0  0.52207  0.14610  0.73478  1.0000
  Fe  Fe90      1.0  0.49958  0.17452  0.30788  1.0000
  H   H1187     1.0  0.63872  0.05657  0.76338  1.0000
  Fe  Fe91      1.0  0.53010  0.16611  0.29469  1.0000
  S   S181      1.0  0.51904  0.14079  0.32180  1.0000
  S   S182      1.0  0.55515  0.17492  0.26738  1.0000
  Fe  Fe92      1.0  0.49597  0.13771  0.28894  1.0000
  Fe  Fe93      1.0  0.51017  0.15444  0.36552  1.0000
  H   H1188     1.0  0.62094  0.18253  0.23035  1.0000
  S   S183      1.0  0.50764  0.16263  0.25997  1.0000
  S   S184      1.0  0.52312  0.18015  0.33991  1.0000
  S   S185      1.0  0.49798  0.03168  0.03934  1.0000
  H   H1189     1.0  0.57386  0.08365  0.68612  1.0000
  C   C671      1.0  0.49473  0.14748  0.54151  1.0000
  H   H1190     1.0  0.65889  0.09350  0.66527  1.0000
  C   C672      1.0  0.64146  0.20763  0.23633  1.0000
  C   C673      1.0  0.50817  0.15229  0.46971  1.0000
  H   H1191     1.0  0.50059  0.11145  0.88740  1.0000
  H   H1192     1.0  0.68775  0.09289  0.66291  1.0000
  H   H1193     1.0  0.64110  0.18982  0.29444  1.0000
  C   C674      1.0  0.63120  0.19983  0.33917  1.0000
  H   H1194     1.0  0.50340  0.20716  0.53925  1.0000
  H   H1195     1.0  0.65125  0.07222  0.68307  1.0000
  C   C675      1.0  0.54182  0.05834  0.96563  1.0000
  C   C676      1.0  0.52639  0.05925  0.95798  1.0000
  C   C677      1.0  0.51277  0.05094  0.98040  1.0000
  C   C678      1.0  0.51469  0.04188  0.01077  1.0000
  C   C679      1.0  0.53017  0.04126  0.01885  1.0000
  C   C680      1.0  0.54373  0.04963  0.99648  1.0000
  H   H1196     1.0  0.52494  0.06625  0.93465  1.0000
  H   H1197     1.0  0.50081  0.05146  0.97397  1.0000
  H   H1198     1.0  0.53170  0.03449  0.04266  1.0000
  H   H1199     1.0  0.55571  0.04972  0.00384  1.0000
  C   C681      1.0  0.58915  0.14809  0.30586  1.0000
  C   C682      1.0  0.59196  0.15639  0.27231  1.0000
  C   C683      1.0  0.58128  0.16438  0.26024  1.0000
  C   C684      1.0  0.56789  0.16416  0.28185  1.0000
  C   C685      1.0  0.56492  0.15554  0.31500  1.0000
  C   C686      1.0  0.57547  0.14743  0.32684  1.0000
  H   H1200     1.0  0.60226  0.15651  0.25567  1.0000
  H   H1201     1.0  0.58336  0.17072  0.23417  1.0000
  H   H1202     1.0  0.55475  0.15548  0.33200  1.0000
  H   H1203     1.0  0.57316  0.14087  0.35266  1.0000
  C   C687      1.0  0.63347  0.10554  0.14098  1.0000
  C   C688      1.0  0.62714  0.08852  0.15223  1.0000
  C   C689      1.0  0.62112  0.07503  0.12621  1.0000
  C   C690      1.0  0.62094  0.07820  0.08844  1.0000
  C   C691      1.0  0.62708  0.09523  0.07719  1.0000
  C   C692      1.0  0.63344  0.10872  0.10317  1.0000
  H   H1204     1.0  0.62711  0.08572  0.18100  1.0000
  H   H1205     1.0  0.61663  0.06199  0.13550  1.0000
  H   H1206     1.0  0.62720  0.09803  0.04841  1.0000
  H   H1207     1.0  0.63834  0.12176  0.09389  1.0000
  H   H1208     1.0  0.62259  0.17956  0.16417  1.0000
  H   H1209     1.0  0.50603  0.99784  0.01799  1.0000
  C   C693      1.0  0.65019  0.12752  0.48424  1.0000
  C   C694      1.0  0.64025  0.12813  0.45415  1.0000
  C   C695      1.0  0.64613  0.12903  0.41801  1.0000
  C   C696      1.0  0.66179  0.12850  0.41121  1.0000
  C   C697      1.0  0.67160  0.12751  0.44124  1.0000
  C   C698      1.0  0.66603  0.12742  0.47752  1.0000
  H   H1210     1.0  0.62778  0.12765  0.45866  1.0000
  H   H1211     1.0  0.63826  0.12945  0.39531  1.0000
  H   H1212     1.0  0.68348  0.12647  0.43642  1.0000
  H   H1213     1.0  0.67365  0.12642  0.50015  1.0000
  C   C699      1.0  0.63116  0.09434  0.75321  1.0000
  C   C700      1.0  0.64309  0.10436  0.77831  1.0000
  C   C701      1.0  0.64282  0.09910  0.81489  1.0000
  C   C702      1.0  0.63034  0.08406  0.82734  1.0000
  C   C703      1.0  0.61792  0.07447  0.80267  1.0000
  C   C704      1.0  0.61849  0.07946  0.76578  1.0000
  H   H1214     1.0  0.65284  0.11586  0.76928  1.0000
  H   H1215     1.0  0.65248  0.10664  0.83368  1.0000
  H   H1216     1.0  0.60832  0.06280  0.81163  1.0000
  H   H1217     1.0  0.60925  0.07149  0.74667  1.0000
  C   C705      1.0  0.56585  0.13657  0.66310  1.0000
  C   C706      1.0  0.57188  0.15430  0.66792  1.0000
  C   C707      1.0  0.58903  0.16385  0.66503  1.0000
  C   C708      1.0  0.60012  0.15570  0.65716  1.0000
  C   C709      1.0  0.59388  0.13807  0.65147  1.0000
  C   C710      1.0  0.57685  0.12856  0.65431  1.0000
  H   H1218     1.0  0.56343  0.16060  0.67474  1.0000
  H   H1219     1.0  0.59373  0.17751  0.66958  1.0000
  H   H1220     1.0  0.60212  0.13161  0.64548  1.0000
  H   H1221     1.0  0.57226  0.11489  0.65049  1.0000
  C   C711      1.0  0.63229  0.19657  0.29764  1.0000
  H   H1222     1.0  0.72274  0.19824  0.32181  1.0000
  C   C712      1.0  0.70407  0.20318  0.64945  1.0000
  C   C713      1.0  0.51784  0.22181  0.29479  1.0000
  C   C714      1.0  0.50076  0.21646  0.30082  1.0000
  H   H1223     1.0  0.59275  0.16751  0.42119  1.0000
  H   H1224     1.0  0.62016  0.18709  0.28846  1.0000
  H   H1225     1.0  0.52351  0.21244  0.29154  1.0000
  C   C715      1.0  0.72954  0.19960  0.66617  1.0000
  C   C716      1.0  0.50389  0.20619  0.71142  1.0000
  C   C717      1.0  0.52113  0.21073  0.71163  1.0000
  H   H1226     1.0  0.62614  0.17346  0.35443  1.0000
  Fe  Fe94      1.0  0.49518  0.13053  0.72265  1.0000
  C   C718      1.0  0.67414  0.19409  0.38008  1.0000
  C   C719      1.0  0.58583  0.09289  0.69699  1.0000
  N   N38       1.0  0.52479  0.11060  0.54134  1.0000
  C   C720      1.0  0.53797  0.12825  0.53851  1.0000
  C   C721      1.0  0.52288  0.10193  0.50443  1.0000
  C   C722      1.0  0.50874  0.11213  0.55305  1.0000
  C   C723      1.0  0.52952  0.10014  0.56922  1.0000
  C   C724      1.0  0.54679  0.09886  0.56440  1.0000
  C   C725      1.0  0.54353  0.13835  0.57490  1.0000
  H   H1227     1.0  0.52737  0.10124  0.42865  1.0000
  S   S186      1.0  0.49065  0.15229  0.69406  1.0000
  H   H1228     1.0  0.51370  0.12408  0.97623  1.0000
  C   C726      1.0  0.54993  0.08786  0.59430  1.0000
  C   C727      1.0  0.55617  0.15632  0.56829  1.0000
  H   H1229     1.0  0.49495  0.08647  0.57463  1.0000
  H   H1230     1.0  0.53357  0.13624  0.52060  1.0000
  H   H1231     1.0  0.54925  0.12779  0.52489  1.0000
  H   H1232     1.0  0.53514  0.10230  0.49464  1.0000
  H   H1233     1.0  0.51507  0.08811  0.50634  1.0000
  H   H1234     1.0  0.50572  0.12115  0.53523  1.0000
  H   H1235     1.0  0.50997  0.11777  0.58099  1.0000
  H   H1236     1.0  0.52893  0.10505  0.59737  1.0000
  H   H1237     1.0  0.52033  0.08679  0.56887  1.0000
  H   H1238     1.0  0.55697  0.11157  0.56602  1.0000
  H   H1239     1.0  0.54758  0.09290  0.53772  1.0000
  H   H1240     1.0  0.53287  0.13962  0.58936  1.0000
  H   H1241     1.0  0.54949  0.13194  0.59318  1.0000
  H   H1242     1.0  0.52861  0.09094  0.35721  1.0000
  C   C728      1.0  0.49357  0.22878  0.30481  1.0000
  H   H1243     1.0  0.50290  0.10889  0.47976  1.0000
  H   H1244     1.0  0.52352  0.12327  0.46903  1.0000
  H   H1245     1.0  0.71964  0.16580  0.47313  1.0000
  H   H1246     1.0  0.51344  0.08395  0.29833  1.0000
  C   C729      1.0  0.49099  0.14475  0.47478  1.0000
  H   H1247     1.0  0.56264  0.08776  0.59170  1.0000
  H   H1248     1.0  0.54880  0.09302  0.62177  1.0000
  H   H1249     1.0  0.54086  0.07452  0.59194  1.0000
  H   H1250     1.0  0.56029  0.16303  0.59491  1.0000
  H   H1251     1.0  0.56717  0.15573  0.55392  1.0000
  H   H1252     1.0  0.55055  0.16376  0.55174  1.0000
  H   H1253     1.0  0.49741  0.19330  0.41513  1.0000
  C   C730      1.0  0.49700  0.21878  0.70710  1.0000
  H   H1254     1.0  0.54529  0.02229  0.88147  1.0000
  H   H1255     1.0  0.50519  0.20558  0.37475  1.0000
  C   C731      1.0  0.70295  0.16672  0.42917  1.0000
  H   H1256     1.0  0.59268  0.13622  0.56843  1.0000
  H   H1257     1.0  0.69367  0.18350  0.33148  1.0000
  C   C732      1.0  0.52303  0.07816  0.78998  1.0000
  C   C733      1.0  0.60378  0.16444  0.49134  1.0000
  H   H1258     1.0  0.69697  0.14650  0.72274  1.0000
  H   H1259     1.0  0.70190  0.15390  0.35734  1.0000
  H   H1260     1.0  0.50960  0.10616  0.41574  1.0000
  H   H1261     1.0  0.69075  0.16811  0.42747  1.0000
  H   H1262     1.0  0.57874  0.11594  0.20430  1.0000
  C   C734      1.0  0.65950  0.07424  0.62769  1.0000
  H   H1263     1.0  0.53167  0.05869  0.86532  1.0000
  H   H1264     1.0  0.60085  0.11175  0.51609  1.0000
  N   N39       1.0  0.57119  0.08811  0.08227  1.0000
  C   C735      1.0  0.57707  0.10441  0.10475  1.0000
  C   C736      1.0  0.55243  0.08113  0.07816  1.0000
  C   C737      1.0  0.57594  0.07517  0.10296  1.0000
  C   C738      1.0  0.57940  0.09041  0.04533  1.0000
  C   C739      1.0  0.57806  0.10491  0.02156  1.0000
  C   C740      1.0  0.59607  0.11262  0.11210  1.0000
  C   C741      1.0  0.56983  0.05690  0.08612  1.0000
  C   C742      1.0  0.54366  0.09414  0.07651  1.0000
  C   C743      1.0  0.52533  0.08532  0.06590  1.0000
  C   C744      1.0  0.58888  0.10764  0.98761  1.0000
  C   C745      1.0  0.57337  0.04452  0.11194  1.0000
  H   H1265     1.0  0.57086  0.10205  0.13184  1.0000
  H   H1266     1.0  0.57337  0.11432  0.09202  1.0000
  H   H1267     1.0  0.54857  0.07283  0.05342  1.0000
  H   H1268     1.0  0.54645  0.07268  0.10144  1.0000
  H   H1269     1.0  0.57131  0.07418  0.13154  1.0000
  H   H1270     1.0  0.58967  0.07930  0.10528  1.0000
  H   H1271     1.0  0.59274  0.09223  0.04820  1.0000
  H   H1272     1.0  0.57401  0.07854  0.02853  1.0000
  H   H1273     1.0  0.58223  0.11727  0.03649  1.0000
  H   H1274     1.0  0.56507  0.10150  0.01197  1.0000
  H   H1275     1.0  0.59992  0.10484  0.13176  1.0000
  H   H1276     1.0  0.60321  0.11382  0.08660  1.0000
  H   H1277     1.0  0.57635  0.05687  0.06012  1.0000
  H   H1278     1.0  0.55629  0.05178  0.08056  1.0000
  H   H1279     1.0  0.54420  0.10021  0.10382  1.0000
  H   H1280     1.0  0.54949  0.10435  0.05657  1.0000
  H   H1281     1.0  0.52410  0.07980  0.03787  1.0000
  H   H1282     1.0  0.51880  0.07495  0.08526  1.0000
  H   H1283     1.0  0.51913  0.09471  0.06636  1.0000
  H   H1284     1.0  0.58464  0.09599  0.97020  1.0000
  H   H1285     1.0  0.58790  0.11826  0.97136  1.0000
  H   H1286     1.0  0.60212  0.11088  0.99534  1.0000
  H   H1287     1.0  0.58688  0.04877  0.11777  1.0000
  H   H1288     1.0  0.56660  0.04356  0.13802  1.0000
  H   H1289     1.0  0.56926  0.03167  0.09906  1.0000
  C   C746      1.0  0.62095  0.18351  0.35905  1.0000
  H   H1290     1.0  0.60784  0.17871  0.34931  1.0000
  C   C747      1.0  0.52317  0.19577  0.60834  1.0000
  H   H1291     1.0  0.62113  0.18613  0.38882  1.0000
  N   N40       1.0  0.59842  0.12371  0.78188  1.0000
  C   C748      1.0  0.58289  0.12750  0.78693  1.0000
  C   C749      1.0  0.59864  0.11077  0.80992  1.0000
  C   C750      1.0  0.61331  0.14012  0.78612  1.0000
  C   C751      1.0  0.59888  0.11633  0.74433  1.0000
  C   C752      1.0  0.58273  0.10174  0.73125  1.0000
  C   C753      1.0  0.58041  0.14031  0.75967  1.0000
  C   C754      1.0  0.63045  0.13830  0.78637  1.0000
  C   C755      1.0  0.59985  0.11665  0.85052  1.0000
  C   C756      1.0  0.60098  0.10288  0.87602  1.0000
  C   C757      1.0  0.56317  0.14108  0.76358  1.0000
  C   C758      1.0  0.64460  0.15571  0.78951  1.0000
  H   H1292     1.0  0.58283  0.13316  0.81441  1.0000
  H   H1293     1.0  0.57169  0.11549  0.78602  1.0000
  H   H1294     1.0  0.58723  0.09909  0.80760  1.0000
  H   H1295     1.0  0.60898  0.10627  0.80456  1.0000
  H   H1296     1.0  0.61233  0.14716  0.81131  1.0000
  H   H1297     1.0  0.61369  0.14887  0.76324  1.0000
  H   H1298     1.0  0.60224  0.12643  0.72317  1.0000
  H   H1299     1.0  0.60898  0.11125  0.74310  1.0000
  H   H1300     1.0  0.57301  0.10689  0.72449  1.0000
  H   H1301     1.0  0.57775  0.09186  0.75234  1.0000
  H   H1302     1.0  0.58968  0.15336  0.76496  1.0000
  H   H1303     1.0  0.58180  0.13680  0.73108  1.0000
  H   H1304     1.0  0.63229  0.13219  0.76068  1.0000
  H   H1305     1.0  0.63165  0.13058  0.80978  1.0000
  H   H1306     1.0  0.61100  0.12833  0.85564  1.0000
  H   H1307     1.0  0.58868  0.11920  0.85858  1.0000
  H   H1308     1.0  0.61238  0.10028  0.87044  1.0000
  H   H1309     1.0  0.60156  0.10726  0.90486  1.0000
  H   H1310     1.0  0.58995  0.09086  0.87278  1.0000
  H   H1311     1.0  0.59183  0.10231  0.67547  1.0000
  H   H1312     1.0  0.56196  0.15087  0.74497  1.0000
  H   H1313     1.0  0.55343  0.12861  0.75601  1.0000
  H   H1314     1.0  0.56113  0.14457  0.79197  1.0000
  H   H1315     1.0  0.64428  0.16387  0.76610  1.0000
  H   H1316     1.0  0.64370  0.16223  0.81545  1.0000
  H   H1317     1.0  0.65670  0.15401  0.78923  1.0000
  C   C759      1.0  0.53849  0.10486  0.84457  1.0000
  C   C760      1.0  0.51008  0.08551  0.77647  1.0000
  C   C761      1.0  0.54341  0.11751  0.87663  1.0000
  C   C762      1.0  0.51523  0.09496  0.74048  1.0000
  H   H1318     1.0  0.66656  0.18199  0.39363  1.0000
  C   C763      1.0  0.68273  0.11092  0.71771  1.0000
  H   H1319     1.0  0.53349  0.11062  0.82263  1.0000
  H   H1320     1.0  0.50674  0.21967  0.45292  1.0000
  H   H1321     1.0  0.50833  0.09442  0.79689  1.0000
  H   H1322     1.0  0.55250  0.12996  0.86742  1.0000
  H   H1323     1.0  0.53233  0.11955  0.88747  1.0000
  H   H1324     1.0  0.53552  0.08777  0.78432  1.0000
  H   H1325     1.0  0.70238  0.16787  0.29538  1.0000
  C   C764      1.0  0.51478  0.10028  0.43720  1.0000
  H   H1326     1.0  0.69958  0.13742  0.30067  1.0000
  C   C765      1.0  0.51773  0.00096  0.95045  1.0000
  H   H1327     1.0  0.51657  0.21543  0.63475  1.0000
  H   H1328     1.0  0.51662  0.07630  0.23859  1.0000
  H   H1329     1.0  0.58040  0.14636  0.43721  1.0000
  C   C766      1.0  0.71240  0.19236  0.65827  1.0000
  H   H1330     1.0  0.60505  0.20865  0.58854  1.0000
  C   C767      1.0  0.50014  0.23398  0.58035  1.0000
  C   C768      1.0  0.60974  0.18978  0.55433  1.0000
  H   H1331     1.0  0.63924  0.18189  0.54204  1.0000
  H   H1332     1.0  0.54187  0.01309  0.00240  1.0000
  C   C769      1.0  0.72987  0.22825  0.65683  1.0000
  H   H1333     1.0  0.53513  0.08801  0.29267  1.0000
  H   H1334     1.0  0.62239  0.19888  0.54779  1.0000
  H   H1335     1.0  0.66131  0.06189  0.62736  1.0000
  H   H1336     1.0  0.61660  0.17045  0.58068  1.0000
  H   H1337     1.0  0.51557  0.23786  0.37822  1.0000
  C   C770      1.0  0.51254  0.08115  0.18231  1.0000
  C   C771      1.0  0.51770  0.23763  0.40822  1.0000
  H   H1338     1.0  0.49148  0.22096  0.63087  1.0000
  H   H1339     1.0  0.55863  0.05377  0.85940  1.0000
  H   H1340     1.0  0.49882  0.05918  0.14828  1.0000
  H   H1341     1.0  0.61837  0.16366  0.44311  1.0000
  H   H1342     1.0  0.50626  0.04348  0.87790  1.0000
  C   C772      1.0  0.69833  0.09242  0.73417  1.0000
  H   H1343     1.0  0.58187  0.21006  0.27208  1.0000
  C   C773      1.0  0.61420  0.14678  0.53198  1.0000
  H   H1344     1.0  0.64804  0.04215  0.77992  1.0000
  H   H1345     1.0  0.72940  0.08970  0.73321  1.0000
  H   H1346     1.0  0.50656  0.12324  0.02273  1.0000
  H   H1347     1.0  0.59662  0.22372  0.24057  1.0000
  H   H1348     1.0  0.59607  0.16317  0.56298  1.0000
  H   H1349     1.0  0.54218  0.18887  0.58201  1.0000
  H   H1350     1.0  0.72273  0.17863  0.54085  1.0000
  S   S187      1.0  0.48797  0.19459  0.30314  1.0000
  C   C774      1.0  0.51480  0.08677  0.22316  1.0000
  H   H1351     1.0  0.51998  0.15967  0.55991  1.0000
  H   H1352     1.0  0.66871  0.08337  0.60944  1.0000
  N   N41       1.0  0.52871  0.10364  0.23161  1.0000
  C   C775      1.0  0.52703  0.10810  0.27102  1.0000
  C   C776      1.0  0.52606  0.11682  0.20744  1.0000
  C   C777      1.0  0.54516  0.10196  0.22378  1.0000
  C   C778      1.0  0.56047  0.11330  0.24681  1.0000
  C   C779      1.0  0.53404  0.01937  0.89855  1.0000
  C   C780      1.0  0.53779  0.13560  0.21332  1.0000
  C   C781      1.0  0.53254  0.14738  0.18899  1.0000
  H   H1353     1.0  0.50254  0.06192  0.89488  1.0000
  H   H1354     1.0  0.70247  0.12416  0.75824  1.0000
  H   H1355     1.0  0.51555  0.11090  0.27451  1.0000
  H   H1356     1.0  0.53729  0.12006  0.27950  1.0000
  H   H1357     1.0  0.52736  0.11398  0.17816  1.0000
  H   H1358     1.0  0.51313  0.11633  0.21062  1.0000
  H   H1359     1.0  0.71518  0.11635  0.70881  1.0000
  H   H1360     1.0  0.54833  0.10447  0.19442  1.0000
  C   C782      1.0  0.73352  0.22509  0.25941  1.0000
  H   H1361     1.0  0.56216  0.12691  0.24633  1.0000
  H   H1362     1.0  0.60547  0.17773  0.48397  1.0000
  H   H1363     1.0  0.50693  0.08895  0.16683  1.0000
  H   H1364     1.0  0.53749  0.13983  0.24191  1.0000
  H   H1365     1.0  0.55066  0.13735  0.20570  1.0000
  H   H1366     1.0  0.54110  0.16080  0.19349  1.0000
  H   H1367     1.0  0.53297  0.14404  0.15971  1.0000
  H   H1368     1.0  0.51976  0.14643  0.19576  1.0000
  H   H1369     1.0  0.65675  0.08460  0.73878  1.0000
  H   H1370     1.0  0.54992  0.10359  0.83422  1.0000
  H   H1371     1.0  0.59402  0.08584  0.70357  1.0000
  H   H1372     1.0  0.57414  0.06712  0.82889  1.0000
  S   S188      1.0  0.51765  0.15359  0.42601  1.0000
  C   C783      1.0  0.59710  0.11546  0.54285  1.0000
  C   C784      1.0  0.60110  0.13055  0.12860  1.0000
  H   H1373     1.0  0.68578  0.16957  0.36795  1.0000
  H   H1374     1.0  0.67148  0.08917  0.77454  1.0000
  H   H1375     1.0  0.65184  0.20288  0.23769  1.0000
  H   H1376     1.0  0.66726  0.19019  0.50839  1.0000
  H   H1377     1.0  0.67226  0.20483  0.39457  1.0000
  H   H1378     1.0  0.59445  0.13031  0.15450  1.0000
  C   C785      1.0  0.59284  0.15468  0.42728  1.0000
  C   C786      1.0  0.69577  0.18194  0.36093  1.0000
  H   H1379     1.0  0.65807  0.19027  0.46379  1.0000
  H   H1380     1.0  0.51388  0.09005  0.86228  1.0000
  H   H1381     1.0  0.61466  0.13569  0.13462  1.0000
  H   H1382     1.0  0.59843  0.13923  0.10913  1.0000
  H   H1383     1.0  0.49587  0.19300  0.71513  1.0000
  H   H1384     1.0  0.73156  0.22940  0.52239  1.0000
  H   H1385     1.0  0.67623  0.13946  0.74126  1.0000
  C   C787      1.0  0.69906  0.20649  0.27000  1.0000
  C   C788      1.0  0.52527  0.08747  0.85612  1.0000
  H   H1386     1.0  0.64256  0.18346  0.18483  1.0000
  H   H1387     1.0  0.64587  0.21903  0.21859  1.0000
  C   C789      1.0  0.56060  0.06005  0.83237  1.0000
  H   H1388     1.0  0.54651  0.21144  0.58300  1.0000
  H   H1389     1.0  0.54922  0.11271  0.89885  1.0000
  H   H1390     1.0  0.61766  0.19984  0.20707  1.0000
  H   H1391     1.0  0.58459  0.10613  0.54957  1.0000
  C   C790      1.0  0.63316  0.18919  0.17911  1.0000
  H   H1392     1.0  0.63878  0.20044  0.16133  1.0000
  C   C791      1.0  0.62699  0.19432  0.21468  1.0000
  C   C792      1.0  0.66118  0.08148  0.66655  1.0000
  C   C793      1.0  0.69253  0.19666  0.38117  1.0000
  C   C794      1.0  0.48733  0.18807  0.62111  1.0000
  C   C795      1.0  0.64435  0.16840  0.49735  1.0000
  C   C796      1.0  0.70689  0.22309  0.28449  1.0000
  H   H1393     1.0  0.52924  0.19660  0.63547  1.0000
  H   H1394     1.0  0.69090  0.19783  0.64337  1.0000
  H   H1395     1.0  0.55916  0.10939  0.27583  1.0000
  C   C797      1.0  0.68910  0.14023  0.74628  1.0000
  H   H1396     1.0  0.53176  0.16389  0.49721  1.0000
  H   H1397     1.0  0.54197  0.11143  0.34031  1.0000
  H   H1398     1.0  0.62646  0.22819  0.24735  1.0000
  H   H1399     1.0  0.52916  0.08402  0.88296  1.0000
  H   H1400     1.0  0.66977  0.19375  0.35149  1.0000
  H   H1401     1.0  0.70148  0.15388  0.41873  1.0000
  H   H1402     1.0  0.60357  0.20341  0.30358  1.0000
  N   N42       1.0  0.52143  0.07270  0.82943  1.0000
  H   H1403     1.0  0.62557  0.20947  0.34435  1.0000
  H   H1404     1.0  0.52460  0.08259  0.16975  1.0000
  H   H1405     1.0  0.51714  0.08648  0.71907  1.0000
  C   C798      1.0  0.52609  0.09408  0.29901  1.0000
  C   C799      1.0  0.51185  0.15556  0.53639  1.0000
  H   H1406     1.0  0.50054  0.18652  0.55419  1.0000
  H   H1407     1.0  0.58714  0.11977  0.24997  1.0000
  H   H1408     1.0  0.53507  0.03108  0.91403  1.0000
  H   H1409     1.0  0.50269  0.08707  0.23262  1.0000
  C   C800      1.0  0.66057  0.18213  0.48484  1.0000
  C   C801      1.0  0.71646  0.18056  0.40705  1.0000
  H   H1410     1.0  0.52183  0.06713  0.77168  1.0000
  H   H1411     1.0  0.60297  0.19819  0.25617  1.0000
  H   H1412     1.0  0.70278  0.18643  0.23912  1.0000
  H   H1413     1.0  0.58737  0.13311  0.52049  1.0000
  H   H1414     1.0  0.50012  0.05022  0.81382  1.0000
  C   C802      1.0  0.71275  0.22100  0.64892  1.0000
  C   C803      1.0  0.51490  0.20930  0.60715  1.0000
  H   H1415     1.0  0.73293  0.20266  0.22987  1.0000
  C   C804      1.0  0.51848  0.15792  0.50078  1.0000
  H   H1416     1.0  0.67589  0.06228  0.76445  1.0000
  H   H1417     1.0  0.55410  0.07841  0.80306  1.0000
  H   H1418     1.0  0.59534  0.14905  0.40149  1.0000
  C   C805      1.0  0.65009  0.05581  0.77599  1.0000
  H   H1419     1.0  0.63851  0.16038  0.47334  1.0000
  C   C806      1.0  0.66511  0.06411  0.75141  1.0000
  C   C807      1.0  0.70862  0.19910  0.25077  1.0000
  H   H1420     1.0  0.63296  0.18737  0.49938  1.0000
  H   H1421     1.0  0.52830  0.05094  0.81938  1.0000
  C   C808      1.0  0.48782  0.12103  0.98091  1.0000
  C   C809      1.0  0.65364  0.22494  0.29044  1.0000
  C   C810      1.0  0.60476  0.19544  0.59073  1.0000
  C   C811      1.0  0.66859  0.08336  0.74675  1.0000
  H   H1422     1.0  0.49785  0.07502  0.77171  1.0000
  C   C812      1.0  0.60639  0.20890  0.27587  1.0000
  H   H1423     1.0  0.53100  0.00161  0.04143  1.0000
  C   C813      1.0  0.72403  0.23231  0.27946  1.0000
  H   H1424     1.0  0.66866  0.17592  0.47271  1.0000
  C   C814      1.0  0.62498  0.22072  0.27290  1.0000
  H   H1425     1.0  0.67009  0.11090  0.71213  1.0000
  H   H1426     1.0  0.56310  0.99987  0.00940  1.0000
  C   C815      1.0  0.71289  0.16508  0.34880  1.0000
  H   H1427     1.0  0.64387  0.20466  0.35142  1.0000
  C   C816      1.0  0.52758  0.23932  0.29210  1.0000
  C   C817      1.0  0.50725  0.23604  0.70293  1.0000
  H   H1428     1.0  0.51418  0.18249  0.60533  1.0000
  C   C818      1.0  0.53254  0.06284  0.83639  1.0000
  H   H1429     1.0  0.60598  0.11481  0.56414  1.0000
  H   H1430     1.0  0.54426  0.08860  0.22806  1.0000
  N   N43       1.0  0.63765  0.21232  0.27425  1.0000
  H   H1431     1.0  0.69401  0.14827  0.77103  1.0000
  H   H1432     1.0  0.59051  0.15845  0.49924  1.0000
  H   H1433     1.0  0.70890  0.18028  0.48138  1.0000
  C   C819      1.0  0.53137  0.22801  0.70785  1.0000
  H   H1434     1.0  0.68055  0.07237  0.68242  1.0000
  H   H1435     1.0  0.49204  0.21981  0.41815  1.0000
  H   H1436     1.0  0.69792  0.07909  0.73406  1.0000
  C   C820      1.0  0.53286  0.00498  0.92471  1.0000
  H   H1437     1.0  0.62719  0.23030  0.29541  1.0000
  C   C821      1.0  0.49948  0.05210  0.87286  1.0000
  H   H1438     1.0  0.53109  0.19756  0.55144  1.0000
  H   H1439     1.0  0.66260  0.21861  0.29585  1.0000
  C   C822      1.0  0.52938  0.10128  0.33795  1.0000
  H   H1440     1.0  0.52680  0.10637  0.74413  1.0000
  H   H1441     1.0  0.51939  0.20497  0.41049  1.0000
  H   H1442     1.0  0.50622  0.05390  0.19080  1.0000
  C   C823      1.0  0.50084  0.06253  0.17780  1.0000
  C   C824      1.0  0.68943  0.12246  0.75202  1.0000
  C   C825      1.0  0.60630  0.15589  0.45544  1.0000
  H   H1443     1.0  0.62261  0.14739  0.55556  1.0000
  C   C826      1.0  0.50367  0.06060  0.83491  1.0000
  H   H1444     1.0  0.69960  0.20902  0.36800  1.0000
  C   C827      1.0  0.55140  0.07234  0.83015  1.0000
  C   C828      1.0  0.72572  0.20838  0.24542  1.0000
  N   N44       1.0  0.68210  0.09284  0.72035  1.0000
  S   S189      1.0  0.57108  0.99700  0.92261  1.0000
  C   C829      1.0  0.53865  0.00104  0.01761  1.0000
  C   C830      1.0  0.50308  0.11790  0.99472  1.0000
  C   C831      1.0  0.53654  0.19865  0.57927  1.0000
  H   H1445     1.0  0.57561  0.09826  0.23474  1.0000
  C   C832      1.0  0.60911  0.17120  0.55646  1.0000
  H   H1446     1.0  0.69025  0.11752  0.69387  1.0000
  C   C833      1.0  0.67865  0.08471  0.68280  1.0000
  H   H1447     1.0  0.68184  0.11701  0.77638  1.0000
  C   C834      1.0  0.57641  0.11167  0.23296  1.0000
  H   H1448     1.0  0.64766  0.16034  0.51728  1.0000
  H   H1449     1.0  0.52242  0.21969  0.58883  1.0000
  H   H1450     1.0  0.60580  0.14274  0.45978  1.0000
  H   H1451     1.0  0.69619  0.19762  0.41034  1.0000
  H   H1452     1.0  0.52297  0.01556  0.88030  1.0000
  H   H1453     1.0  0.54473  0.23169  0.70837  1.0000
  N   N45       1.0  0.61498  0.16449  0.52308  1.0000
  H   H1454     1.0  0.48689  0.17576  0.60913  1.0000
  H   H1455     1.0  0.55622  0.05010  0.81058  1.0000
  C   C835      1.0  0.63274  0.17628  0.51588  1.0000
  C   C836      1.0  0.49096  0.11130  0.83274  1.0000
  H   H1456     1.0  0.48701  0.20884  0.21550  1.0000
  C   C837      1.0  0.50691  0.20526  0.40474  1.0000
  H   H1457     1.0  0.69964  0.22892  0.29947  1.0000
  H   H1458     1.0  0.59199  0.18691  0.59830  1.0000
  C   C838      1.0  0.49085  0.10461  0.86815  1.0000
  H   H1459     1.0  0.61902  0.14131  0.50922  1.0000
  H   H1460     1.0  0.71908  0.17951  0.58886  1.0000
  H   H1461     1.0  0.51994  0.10665  0.34584  1.0000
  H   H1462     1.0  0.50680  0.99969  0.93295  1.0000
  H   H1463     1.0  0.70041  0.09661  0.76333  1.0000
  H   H1464     1.0  0.64687  0.07205  0.61689  1.0000
  H   H1465     1.0  0.65129  0.22963  0.31754  1.0000
  C   C839      1.0  0.70774  0.16773  0.46954  1.0000
  H   H1466     1.0  0.65213  0.06221  0.80325  1.0000
  H   H1467     1.0  0.59770  0.22948  0.28863  1.0000
  H   H1468     1.0  0.51299  0.24023  0.59115  1.0000
  H   H1469     1.0  0.56140  0.01147  0.04959  1.0000
  C   C840      1.0  0.71289  0.16492  0.30644  1.0000
  C   C841      1.0  0.71393  0.10288  0.71187  1.0000
  H   H1470     1.0  0.61354  0.19524  0.61277  1.0000
  H   H1471     1.0  0.70611  0.22923  0.64251  1.0000
  C   C842      1.0  0.49329  0.09524  0.55396  1.0000
  H   H1472     1.0  0.50071  0.12314  0.82513  1.0000
  C   C843      1.0  0.51566  0.10969  0.47345  1.0000
  H   H1473     1.0  0.51981  0.01256  0.96756  1.0000
  H   H1474     1.0  0.60094  0.19080  0.53325  1.0000
  H   H1475     1.0  0.71915  0.19320  0.42040  1.0000
  C   C844      1.0  0.48821  0.24182  0.20366  1.0000
  H   H1476     1.0  0.50056  0.23146  0.55070  1.0000
  H   H1477     1.0  0.71331  0.09721  0.68417  1.0000
  N   N46       1.0  0.71271  0.18115  0.36693  1.0000
  C   C845      1.0  0.59503  0.21873  0.26884  1.0000
  C   C846      1.0  0.59678  0.13341  0.54128  1.0000
  H   H1478     1.0  0.50529  0.09931  0.73107  1.0000
  H   H1479     1.0  0.49139  0.13504  0.97850  1.0000
  H   H1480     1.0  0.50658  0.08663  0.43950  1.0000
  H   H1481     1.0  0.50056  0.10402  0.99489  1.0000
  H   H1482     1.0  0.66242  0.05716  0.72487  1.0000
  N   N47       1.0  0.49676  0.20278  0.59632  1.0000
  H   H1483     1.0  0.49495  0.06740  0.83122  1.0000
  H   H1484     1.0  0.69794  0.15758  0.48466  1.0000
  H   H1485     1.0  0.53013  0.23673  0.41071  1.0000
  H   H1486     1.0  0.73131  0.10906  0.75789  1.0000
  C   C847      1.0  0.72977  0.10293  0.73042  1.0000
  H   H1487     1.0  0.49104  0.24070  0.37601  1.0000
  C   C848      1.0  0.49546  0.19679  0.55710  1.0000
  H   H1488     1.0  0.49088  0.08865  0.52701  1.0000
  H   H1489     1.0  0.71116  0.14761  0.26108  1.0000
  C   C849      1.0  0.55480  0.00009  0.03228  1.0000
  H   H1490     1.0  0.72761  0.20825  0.56499  1.0000
  H   H1491     1.0  0.53212  0.99371  0.90799  1.0000
  H   H1492     1.0  0.54459  0.00916  0.94075  1.0000
  H   H1493     1.0  0.72373  0.16211  0.35814  1.0000
  H   H1494     1.0  0.72200  0.14418  0.30054  1.0000
  H   H1495     1.0  0.49395  0.18915  0.64764  1.0000
  H   H1496     1.0  0.66911  0.23744  0.24384  1.0000
  C   C850      1.0  0.52449  0.24060  0.70327  1.0000
  H   H1497     1.0  0.72540  0.20856  0.36457  1.0000
  C   C851      1.0  0.72880  0.18338  0.56758  1.0000
  H   H1498     1.0  0.72460  0.17442  0.29575  1.0000
  C   C852      1.0  0.72565  0.19684  0.35093  1.0000
  C   C853      1.0  0.49073  0.21732  0.60137  1.0000
  H   H1499     1.0  0.49523  0.24093  0.22863  1.0000
  C   C854      1.0  0.66286  0.24095  0.26728  1.0000
  H   H1500     1.0  0.72807  0.17802  0.41076  1.0000
  H   H1501     1.0  0.48859  0.06049  0.19024  1.0000
  H   H1502     1.0  0.73610  0.19135  0.67304  1.0000
  H   H1503     1.0  0.49654  0.24224  0.18035  1.0000
  Fe  Fe95      1.0  0.67749  0.41656  0.66856  1.0000
  S   S190      1.0  0.68034  0.44392  0.67373  1.0000
  S   S191      1.0  0.69835  0.40659  0.67626  1.0000
  Fe  Fe96      1.0  0.64031  0.40546  0.64936  1.0000
  S   S192      1.0  0.64079  0.43218  0.65307  1.0000
  S   S193      1.0  0.61648  0.38552  0.62845  1.0000
  Fe  Fe97      1.0  0.66479  0.43893  0.62176  1.0000
  S   S194      1.0  0.67437  0.45437  0.57000  1.0000
  Fe  Fe98      1.0  0.65598  0.43431  0.70460  1.0000
  S   S195      1.0  0.65175  0.43947  0.76498  1.0000
  S   S196      1.0  0.66329  0.41204  0.61558  1.0000
  S   S197      1.0  0.65412  0.40697  0.70168  1.0000
  Fe  Fe99      1.0  0.54384  0.31207  0.70144  1.0000
  S   S198      1.0  0.53209  0.32872  0.67550  1.0000
  S   S199      1.0  0.57005  0.32416  0.72371  1.0000
  Fe  Fe100     1.0  0.51277  0.27990  0.69078  1.0000
  C   C855      1.0  0.64676  0.46898  0.12582  1.0000
  Fe  Fe101     1.0  0.52268  0.30786  0.63270  1.0000
  H   H1504     1.0  0.67910  0.41991  0.48627  1.0000
  H   H1505     1.0  0.72231  0.46493  0.35634  1.0000
  S   S200      1.0  0.53576  0.29190  0.65735  1.0000
  S   S201      1.0  0.52211  0.29860  0.73777  1.0000
  Fe  Fe102     1.0  0.65078  0.44080  0.35300  1.0000
  S   S202      1.0  0.66440  0.42328  0.34237  1.0000
  S   S203      1.0  0.64142  0.44340  0.41044  1.0000
  Fe  Fe103     1.0  0.64507  0.44456  0.26829  1.0000
  S   S204      1.0  0.65831  0.42700  0.25384  1.0000
  S   S205      1.0  0.62846  0.45169  0.22723  1.0000
  Fe  Fe104     1.0  0.64435  0.41083  0.30050  1.0000
  S   S206      1.0  0.63012  0.38227  0.29537  1.0000
  Fe  Fe105     1.0  0.67701  0.44131  0.29728  1.0000
  S   S207      1.0  0.70507  0.45329  0.28950  1.0000
  S   S208      1.0  0.63025  0.42752  0.31282  1.0000
  S   S209      1.0  0.66440  0.45990  0.31000  1.0000
  C   C856      1.0  0.66067  0.39644  0.50695  1.0000
  S   S210      1.0  0.52870  0.31816  0.27004  1.0000
  Fe  Fe106     1.0  0.50582  0.30637  0.36382  1.0000
  S   S211      1.0  0.53232  0.30943  0.35696  1.0000
  H   H1506     1.0  0.65692  0.46477  0.17742  1.0000
  Fe  Fe107     1.0  0.53473  0.33235  0.32373  1.0000
  S   S212      1.0  0.55410  0.35819  0.33769  1.0000
  Fe  Fe108     1.0  0.52362  0.29465  0.30455  1.0000
  S   S213      1.0  0.53293  0.27348  0.29114  1.0000
  S   S214      1.0  0.50853  0.33034  0.33379  1.0000
  Fe  Fe109     1.0  0.58677  0.44540  0.97541  1.0000
  S   S215      1.0  0.57072  0.41781  0.96906  1.0000
  S   S216      1.0  0.61422  0.45423  0.96771  1.0000
  H   H1507     1.0  0.62042  0.40900  0.48374  1.0000
  C   C857      1.0  0.51678  0.41253  0.97772  1.0000
  C   C858      1.0  0.52076  0.39973  0.96044  1.0000
  C   C859      1.0  0.53738  0.40124  0.95810  1.0000
  C   C860      1.0  0.54999  0.41578  0.97212  1.0000
  C   C861      1.0  0.54601  0.42869  0.98880  1.0000
  C   C862      1.0  0.52941  0.42694  0.99208  1.0000
  H   H1508     1.0  0.51113  0.38889  0.94797  1.0000
  H   H1509     1.0  0.54045  0.39132  0.94475  1.0000
  H   H1510     1.0  0.55568  0.43995  0.99969  1.0000
  H   H1511     1.0  0.52636  0.43671  0.00595  1.0000
  H   H1512     1.0  0.68316  0.26554  0.27194  1.0000
  H   H1513     1.0  0.67425  0.48065  0.76520  1.0000
  H   H1514     1.0  0.49840  0.36659  0.17814  1.0000
  C   C863      1.0  0.64575  0.46360  0.16248  1.0000
  S   S217      1.0  0.49280  0.29825  0.41830  1.0000
  C   C864      1.0  0.63040  0.45729  0.18006  1.0000
  C   C865      1.0  0.64240  0.45052  0.79375  1.0000
  C   C866      1.0  0.54724  0.39790  0.09736  1.0000
  H   H1515     1.0  0.55150  0.44579  0.90131  1.0000
  H   H1516     1.0  0.59758  0.36631  0.52882  1.0000
  C   C867      1.0  0.60910  0.37493  0.30880  1.0000
  C   C868      1.0  0.60341  0.38478  0.33196  1.0000
  C   C869      1.0  0.58654  0.37934  0.34079  1.0000
  C   C870      1.0  0.57520  0.36387  0.32692  1.0000
  C   C871      1.0  0.58087  0.35364  0.30469  1.0000
  C   C872      1.0  0.59783  0.35917  0.29567  1.0000
  H   H1517     1.0  0.61198  0.39660  0.34336  1.0000
  H   H1518     1.0  0.58226  0.38728  0.35812  1.0000
  H   H1519     1.0  0.57218  0.34161  0.29409  1.0000
  H   H1520     1.0  0.60218  0.35136  0.27811  1.0000
  C   C873      1.0  0.71992  0.44356  0.29413  1.0000
  C   C874      1.0  0.71529  0.42614  0.30088  1.0000
  H   H1521     1.0  0.62150  0.37575  0.38956  1.0000
  C   C875      1.0  0.49766  0.32715  0.17282  1.0000
  H   H1522     1.0  0.70227  0.41807  0.30208  1.0000
  C   C876      1.0  0.64773  0.44579  0.52111  1.0000
  H   H1523     1.0  0.59802  0.41642  0.56473  1.0000
  H   H1524     1.0  0.60717  0.35338  0.58211  1.0000
  H   H1525     1.0  0.55536  0.42064  0.06241  1.0000
  C   C877      1.0  0.69430  0.46609  0.80008  1.0000
  H   H1526     1.0  0.60652  0.39203  0.82478  1.0000
  C   C878      1.0  0.52246  0.40453  0.08580  1.0000
  H   H1527     1.0  0.63363  0.45296  0.88458  1.0000
  C   C879      1.0  0.56119  0.36424  0.55856  1.0000
  H   H1528     1.0  0.53253  0.25383  0.70027  1.0000
  H   H1529     1.0  0.60538  0.35431  0.49835  1.0000
  H   H1530     1.0  0.49685  0.35454  0.44203  1.0000
  C   C880      1.0  0.66476  0.44970  0.52605  1.0000
  C   C881      1.0  0.67472  0.45147  0.49500  1.0000
  C   C882      1.0  0.66778  0.44905  0.45943  1.0000
  C   C883      1.0  0.65083  0.44556  0.45448  1.0000
  C   C884      1.0  0.63500  0.39444  0.43142  1.0000
  H   H1531     1.0  0.66011  0.38755  0.52952  1.0000
  H   H1532     1.0  0.68790  0.45482  0.49873  1.0000
  H   H1533     1.0  0.67556  0.45044  0.43583  1.0000
  H   H1534     1.0  0.61339  0.34056  0.55007  1.0000
  H   H1535     1.0  0.59185  0.33804  0.55333  1.0000
  C   C885      1.0  0.64139  0.44719  0.83148  1.0000
  H   H1536     1.0  0.64609  0.43795  0.84215  1.0000
  C   C886      1.0  0.60389  0.36884  0.65618  1.0000
  C   C887      1.0  0.58828  0.35829  0.64269  1.0000
  C   C888      1.0  0.57793  0.34453  0.66317  1.0000
  C   C889      1.0  0.58308  0.34126  0.69752  1.0000
  C   C890      1.0  0.59875  0.35179  0.71111  1.0000
  C   C891      1.0  0.60916  0.36562  0.69050  1.0000
  H   H1537     1.0  0.58424  0.36066  0.61610  1.0000
  H   H1538     1.0  0.56605  0.33631  0.65210  1.0000
  H   H1539     1.0  0.60285  0.34915  0.73750  1.0000
  H   H1540     1.0  0.62129  0.37356  0.70084  1.0000
  C   C892      1.0  0.71925  0.42009  0.68519  1.0000
  C   C893      1.0  0.73325  0.45568  0.81581  1.0000
  H   H1541     1.0  0.50821  0.32469  0.18339  1.0000
  C   C894      1.0  0.72395  0.43773  0.68982  1.0000
  C   C895      1.0  0.50171  0.30134  0.52815  1.0000
  H   H1542     1.0  0.67740  0.45196  0.86237  1.0000
  H   H1543     1.0  0.71469  0.44343  0.68809  1.0000
  N   N48       1.0  0.60292  0.38939  0.18703  1.0000
  C   C896      1.0  0.59362  0.37357  0.16462  1.0000
  C   C897      1.0  0.61734  0.38697  0.20619  1.0000
  C   C898      1.0  0.59120  0.39086  0.21619  1.0000
  C   C899      1.0  0.60881  0.40552  0.16466  1.0000
  C   C900      1.0  0.61355  0.40381  0.12428  1.0000
  C   C901      1.0  0.57667  0.37265  0.14863  1.0000
  C   C902      1.0  0.59871  0.40528  0.24496  1.0000
  C   C903      1.0  0.63103  0.38497  0.18171  1.0000
  C   C904      1.0  0.64341  0.38003  0.20419  1.0000
  C   C905      1.0  0.62133  0.42123  0.10644  1.0000
  C   C906      1.0  0.57070  0.35956  0.11749  1.0000
  C   C907      1.0  0.58518  0.40803  0.26779  1.0000
  H   H1544     1.0  0.59104  0.36196  0.18155  1.0000
  H   H1545     1.0  0.60127  0.37195  0.14181  1.0000
  H   H1546     1.0  0.62403  0.39808  0.22430  1.0000
  H   H1547     1.0  0.61263  0.37569  0.22438  1.0000
  H   H1548     1.0  0.58579  0.37866  0.23145  1.0000
  H   H1549     1.0  0.58054  0.39316  0.20357  1.0000
  H   H1550     1.0  0.59917  0.41130  0.16362  1.0000
  H   H1551     1.0  0.61970  0.41547  0.17833  1.0000
  H   H1552     1.0  0.60239  0.39634  0.10790  1.0000
  H   H1553     1.0  0.62243  0.39730  0.12171  1.0000
  H   H1554     1.0  0.56707  0.36872  0.17028  1.0000
  H   H1555     1.0  0.57740  0.38521  0.13830  1.0000
  H   H1556     1.0  0.60602  0.41750  0.23182  1.0000
  H   H1557     1.0  0.60691  0.40191  0.26401  1.0000
  H   H1558     1.0  0.62586  0.37499  0.16041  1.0000
  H   H1559     1.0  0.63821  0.39734  0.16874  1.0000
  H   H1560     1.0  0.64968  0.39003  0.22500  1.0000
  H   H1561     1.0  0.63703  0.36771  0.21819  1.0000
  H   H1562     1.0  0.65306  0.37864  0.18602  1.0000
  H   H1563     1.0  0.63268  0.42938  0.12159  1.0000
  H   H1564     1.0  0.62486  0.41967  0.07790  1.0000
  H   H1565     1.0  0.61231  0.42770  0.10571  1.0000
  H   H1566     1.0  0.56976  0.34676  0.12693  1.0000
  H   H1567     1.0  0.55822  0.35865  0.10796  1.0000
  H   H1568     1.0  0.57938  0.36343  0.09410  1.0000
  H   H1569     1.0  0.59105  0.41763  0.28966  1.0000
  H   H1570     1.0  0.57737  0.41286  0.25049  1.0000
  H   H1571     1.0  0.57720  0.39594  0.28078  1.0000
  C   C908      1.0  0.57784  0.34291  0.41994  1.0000
  S   S218      1.0  0.58792  0.46174  0.02463  1.0000
  C   C909      1.0  0.52890  0.35559  0.46075  1.0000
  N   N49       1.0  0.53637  0.46077  0.89271  1.0000
  C   C910      1.0  0.53312  0.36639  0.05043  1.0000
  C   C911      1.0  0.49173  0.24689  0.58511  1.0000
  C   C912      1.0  0.63244  0.46778  0.10584  1.0000
  H   H1572     1.0  0.56059  0.47587  0.07631  1.0000
  H   H1573     1.0  0.64843  0.41379  0.49193  1.0000
  H   H1574     1.0  0.64302  0.37822  0.39557  1.0000
  H   H1575     1.0  0.51912  0.47251  0.87647  1.0000
  C   C913      1.0  0.52419  0.25440  0.46521  1.0000
  H   H1576     1.0  0.63561  0.37287  0.46258  1.0000
  C   C914      1.0  0.62858  0.38155  0.46293  1.0000
  H   H1577     1.0  0.50500  0.42366  0.05939  1.0000
  H   H1578     1.0  0.55371  0.28780  0.35651  1.0000
  H   H1579     1.0  0.54641  0.40207  0.38367  1.0000
  H   H1580     1.0  0.57389  0.33166  0.43811  1.0000
  H   H1581     1.0  0.52626  0.36898  0.12460  1.0000
  H   H1582     1.0  0.53655  0.28244  0.47198  1.0000
  C   C915      1.0  0.52792  0.35644  0.01449  1.0000
  C   C916      1.0  0.52586  0.46321  0.82724  1.0000
  H   H1583     1.0  0.69191  0.45122  0.92062  1.0000
  H   H1584     1.0  0.51431  0.34903  0.01409  1.0000
  H   H1585     1.0  0.55279  0.27202  0.43198  1.0000
  H   H1586     1.0  0.54570  0.41537  0.88487  1.0000
  Fe  Fe110     1.0  0.50220  0.31464  0.28183  1.0000
  H   H1587     1.0  0.64612  0.40740  0.53780  1.0000
  H   H1588     1.0  0.69197  0.32392  0.72619  1.0000
  C   C917      1.0  0.52518  0.38003  0.05422  1.0000
  H   H1589     1.0  0.51881  0.42813  0.85740  1.0000
  Fe  Fe111     1.0  0.50973  0.31416  0.70932  1.0000
  H   H1590     1.0  0.54687  0.37236  0.05073  1.0000
  H   H1591     1.0  0.59152  0.34756  0.41664  1.0000
  N   N50       1.0  0.51785  0.25380  0.42652  1.0000
  H   H1592     1.0  0.67619  0.43067  0.85117  1.0000
  H   H1593     1.0  0.49049  0.28681  0.77549  1.0000
  C   C918      1.0  0.60484  0.34744  0.55446  1.0000
  C   C919      1.0  0.63427  0.38504  0.39525  1.0000
  H   H1594     1.0  0.49127  0.25011  0.61449  1.0000
  H   H1595     1.0  0.60712  0.39245  0.55779  1.0000
  C   C920      1.0  0.60735  0.36095  0.52523  1.0000
  H   H1596     1.0  0.64450  0.40459  0.80572  1.0000
  C   C921      1.0  0.64582  0.40244  0.50945  1.0000
  C   C922      1.0  0.72036  0.46118  0.79527  1.0000
  C   C923      1.0  0.49143  0.25228  0.39093  1.0000
  N   N51       1.0  0.62893  0.38914  0.50052  1.0000
  H   H1597     1.0  0.62415  0.41245  0.55291  1.0000
  H   H1598     1.0  0.65877  0.47421  0.11290  1.0000
  C   C924      1.0  0.67725  0.41151  0.51031  1.0000
  C   C925      1.0  0.63427  0.45565  0.85567  1.0000
  H   H1599     1.0  0.68759  0.40676  0.51143  1.0000
  H   H1600     1.0  0.63389  0.36842  0.52558  1.0000
  C   C926      1.0  0.57043  0.47902  0.09772  1.0000
  H   H1601     1.0  0.68727  0.30117  0.72855  1.0000
  C   C927      1.0  0.63602  0.39132  0.79914  1.0000
  H   H1602     1.0  0.72795  0.39929  0.68370  1.0000
  H   H1603     1.0  0.49438  0.29872  0.55279  1.0000
  H   H1604     1.0  0.57118  0.28921  0.38474  1.0000
  C   C928      1.0  0.62501  0.37505  0.52809  1.0000
  C   C929      1.0  0.50318  0.30192  0.46125  1.0000
  S   S219      1.0  0.63470  0.47582  0.06039  1.0000
  C   C930      1.0  0.63615  0.46244  0.78047  1.0000
  C   C931      1.0  0.51904  0.30854  0.53068  1.0000
  H   H1605     1.0  0.66079  0.38991  0.48064  1.0000
  H   H1606     1.0  0.64297  0.38511  0.78266  1.0000
  H   H1607     1.0  0.71095  0.42499  0.77638  1.0000
  H   H1608     1.0  0.56108  0.34842  0.51246  1.0000
  H   H1609     1.0  0.49876  0.26153  0.77545  1.0000
  H   H1610     1.0  0.61341  0.37794  0.76991  1.0000
  C   C932      1.0  0.49579  0.32154  0.81320  1.0000
  H   H1611     1.0  0.62576  0.39842  0.75181  1.0000
  H   H1612     1.0  0.61566  0.37326  0.45518  1.0000
  C   C933      1.0  0.52245  0.46142  0.86873  1.0000
  H   H1613     1.0  0.55426  0.37193  0.56960  1.0000
  H   H1614     1.0  0.71481  0.42189  0.60776  1.0000
  H   H1615     1.0  0.62692  0.38042  0.55638  1.0000
  H   H1616     1.0  0.67769  0.41905  0.53562  1.0000
  H   H1617     1.0  0.57491  0.46831  0.09926  1.0000
  H   H1618     1.0  0.70237  0.30254  0.66997  1.0000
  H   H1619     1.0  0.63782  0.39436  0.37276  1.0000
  H   H1620     1.0  0.59188  0.44158  0.86744  1.0000
  C   C934      1.0  0.72042  0.46692  0.38579  1.0000
  H   H1621     1.0  0.64808  0.40313  0.43586  1.0000
  H   H1622     1.0  0.55633  0.40189  0.04052  1.0000
  C   C935      1.0  0.64090  0.44403  0.48554  1.0000
  H   H1623     1.0  0.55714  0.29909  0.40002  1.0000
  Fe  Fe112     1.0  0.61533  0.47211  0.01482  1.0000
  C   C936      1.0  0.61632  0.39755  0.50142  1.0000
  H   H1624     1.0  0.54175  0.31703  0.50022  1.0000
  H   H1625     1.0  0.67739  0.40663  0.40635  1.0000
  H   H1626     1.0  0.63199  0.38411  0.82484  1.0000
  H   H1627     1.0  0.50090  0.42089  0.10787  1.0000
  H   H1628     1.0  0.60427  0.38896  0.48941  1.0000
  H   H1629     1.0  0.62726  0.40229  0.42845  1.0000
  H   H1630     1.0  0.72115  0.32646  0.73332  1.0000
  C   C937      1.0  0.61270  0.40347  0.53960  1.0000
  H   H1631     1.0  0.65415  0.24670  0.25665  1.0000
  C   C938      1.0  0.55821  0.40903  0.06672  1.0000
  C   C939      1.0  0.52050  0.30861  0.46385  1.0000
  H   H1632     1.0  0.50798  0.33374  0.11889  1.0000
  H   H1633     1.0  0.52055  0.26442  0.19803  1.0000
  H   H1634     1.0  0.70504  0.41795  0.43743  1.0000
  H   H1635     1.0  0.52888  0.38857  0.03024  1.0000
  C   C940      1.0  0.68829  0.40453  0.39469  1.0000
  C   C941      1.0  0.70445  0.41861  0.40729  1.0000
  C   C942      1.0  0.70522  0.43644  0.39471  1.0000
  H   H1636     1.0  0.52640  0.41342  0.10966  1.0000
  H   H1637     1.0  0.53725  0.28310  0.53913  1.0000
  H   H1638     1.0  0.61970  0.41239  0.80859  1.0000
  H   H1639     1.0  0.68806  0.39196  0.40396  1.0000
  C   C943      1.0  0.62100  0.39136  0.77723  1.0000
  H   H1640     1.0  0.50409  0.27101  0.24350  1.0000
  C   C944      1.0  0.61605  0.45606  0.16006  1.0000
  H   H1641     1.0  0.73111  0.47858  0.39361  1.0000
  H   H1642     1.0  0.51156  0.37312  0.05078  1.0000
  C   C945      1.0  0.60038  0.41247  0.53694  1.0000
  H   H1643     1.0  0.60548  0.42407  0.51999  1.0000
  H   H1644     1.0  0.54840  0.44912  0.85471  1.0000
  C   C946      1.0  0.59906  0.43449  0.70321  1.0000
  C   C947      1.0  0.61702  0.46109  0.12313  1.0000
  H   H1645     1.0  0.73392  0.34599  0.64022  1.0000
  H   H1646     1.0  0.56558  0.38622  0.43117  1.0000
  C   C948      1.0  0.52835  0.31187  0.49837  1.0000
  H   H1647     1.0  0.58840  0.40380  0.52501  1.0000
  H   H1648     1.0  0.60411  0.45127  0.17336  1.0000
  C   C949      1.0  0.55796  0.28790  0.38518  1.0000
  H   H1649     1.0  0.49425  0.31488  0.87031  1.0000
  H   H1650     1.0  0.53122  0.36521  0.99087  1.0000
  H   H1651     1.0  0.55200  0.38773  0.10419  1.0000
  H   H1652     1.0  0.70426  0.43600  0.36437  1.0000
  H   H1653     1.0  0.54975  0.40626  0.12206  1.0000
  C   C950      1.0  0.62822  0.46777  0.84252  1.0000
  C   C951      1.0  0.61074  0.39967  0.79952  1.0000
  C   C952      1.0  0.58550  0.38414  0.76392  1.0000
  C   C953      1.0  0.49828  0.41444  0.08072  1.0000
  H   H1654     1.0  0.52471  0.26746  0.37567  1.0000
  H   H1655     1.0  0.71947  0.41938  0.56082  1.0000
  H   H1656     1.0  0.69359  0.43770  0.40445  1.0000
  S   S220      1.0  0.52986  0.31454  0.57292  1.0000
  H   H1657     1.0  0.69154  0.39548  0.77614  1.0000
  H   H1658     1.0  0.53434  0.34733  0.01156  1.0000
  H   H1659     1.0  0.52782  0.31135  0.43927  1.0000
  C   C954      1.0  0.54756  0.27136  0.40411  1.0000
  C   C955      1.0  0.52770  0.27137  0.48657  1.0000
  C   C956      1.0  0.57298  0.35712  0.43617  1.0000
  H   H1660     1.0  0.60920  0.40947  0.72893  1.0000
  H   H1661     1.0  0.56853  0.37865  0.49046  1.0000
  N   N52       1.0  0.52884  0.39026  0.08939  1.0000
  C   C957      1.0  0.73092  0.24965  0.55779  1.0000
  C   C958      1.0  0.53584  0.41546  0.86549  1.0000
  H   H1662     1.0  0.51601  0.27358  0.49096  1.0000
  H   H1663     1.0  0.49773  0.25564  0.30632  1.0000
  H   H1664     1.0  0.72366  0.27487  0.61220  1.0000
  H   H1665     1.0  0.50118  0.26673  0.43971  1.0000
  C   C959      1.0  0.52887  0.26880  0.40476  1.0000
  H   H1666     1.0  0.50424  0.46958  0.81455  1.0000
  H   H1667     1.0  0.57198  0.33898  0.39257  1.0000
  C   C960      1.0  0.51154  0.37375  0.18636  1.0000
  H   H1668     1.0  0.57939  0.36087  0.46293  1.0000
  H   H1669     1.0  0.52764  0.28082  0.41438  1.0000
  C   C961      1.0  0.52040  0.37849  0.12016  1.0000
  C   C962      1.0  0.73149  0.29555  0.65188  1.0000
  H   H1670     1.0  0.69968  0.47746  0.81846  1.0000
  H   H1671     1.0  0.67186  0.43421  0.91666  1.0000
  H   H1672     1.0  0.59044  0.38212  0.73693  1.0000
  H   H1673     1.0  0.54924  0.37858  0.50595  1.0000
  H   H1674     1.0  0.58616  0.37371  0.78158  1.0000
  H   H1675     1.0  0.49291  0.25786  0.82294  1.0000
  C   C963      1.0  0.51861  0.34933  0.42509  1.0000
  S   S221      1.0  0.49896  0.29471  0.66369  1.0000
  S   S222      1.0  0.48820  0.36165  0.98568  1.0000
  C   C964      1.0  0.50343  0.39898  0.08027  1.0000
  H   H1676     1.0  0.71844  0.44254  0.46253  1.0000
  H   H1677     1.0  0.49632  0.39022  0.10186  1.0000
  H   H1678     1.0  0.54366  0.41611  0.41826  1.0000
  H   H1679     1.0  0.53108  0.45394  0.81677  1.0000
  H   H1680     1.0  0.51785  0.36457  0.18990  1.0000
  H   H1681     1.0  0.53299  0.48355  0.94715  1.0000
  S   S223      1.0  0.49796  0.25134  0.69676  1.0000
  C   C965      1.0  0.52926  0.29159  0.19396  1.0000
  H   H1682     1.0  0.53454  0.47635  0.82131  1.0000
  H   H1683     1.0  0.71801  0.30478  0.72594  1.0000
  C   C966      1.0  0.53532  0.27100  0.52410  1.0000
  H   H1684     1.0  0.51163  0.38011  0.21308  1.0000
  C   C967      1.0  0.71863  0.45399  0.44755  1.0000
  H   H1685     1.0  0.54851  0.34713  0.41240  1.0000
  C   C968      1.0  0.52358  0.47042  0.94865  1.0000
  C   C969      1.0  0.54206  0.44656  0.88144  1.0000
  H   H1686     1.0  0.72985  0.24512  0.29043  1.0000
  H   H1687     1.0  0.67906  0.30976  0.69170  1.0000
  H   H1688     1.0  0.70837  0.47844  0.75088  1.0000
  H   H1689     1.0  0.69404  0.43982  0.75622  1.0000
  C   C970      1.0  0.72756  0.41914  0.30613  1.0000
  H   H1690     1.0  0.52599  0.40248  0.86473  1.0000
  H   H1691     1.0  0.52221  0.42394  0.90417  1.0000
  H   H1692     1.0  0.70717  0.32498  0.66800  1.0000
  C   C971      1.0  0.56658  0.38010  0.75942  1.0000
  C   C972      1.0  0.55809  0.36367  0.73735  1.0000
  C   C973      1.0  0.60287  0.41437  0.75003  1.0000
  C   C974      1.0  0.49749  0.33229  0.13622  1.0000
  H   H1693     1.0  0.57517  0.40829  0.79556  1.0000
  N   N53       1.0  0.59610  0.40144  0.77986  1.0000
  H   H1694     1.0  0.61276  0.42610  0.76107  1.0000
  H   H1695     1.0  0.53451  0.29339  0.22206  1.0000
  H   H1696     1.0  0.58246  0.42408  0.74735  1.0000
  H   H1697     1.0  0.52813  0.41247  0.06177  1.0000
  C   C975      1.0  0.52839  0.42843  0.87783  1.0000
  H   H1698     1.0  0.54892  0.37459  0.40205  1.0000
  C   C976      1.0  0.55521  0.37032  0.49320  1.0000
  H   H1699     1.0  0.52913  0.35703  0.07282  1.0000
  H   H1700     1.0  0.72143  0.25235  0.54128  1.0000
  H   H1701     1.0  0.53988  0.45621  0.94955  1.0000
  H   H1702     1.0  0.56318  0.36496  0.70926  1.0000
  Fe  Fe113     1.0  0.61075  0.47385  0.93115  1.0000
  C   C977      1.0  0.59020  0.41975  0.72884  1.0000
  H   H1703     1.0  0.50930  0.45362  0.99155  1.0000
  S   S224      1.0  0.58294  0.46372  0.93636  1.0000
  H   H1704     1.0  0.68841  0.46205  0.74153  1.0000
  H   H1705     1.0  0.60606  0.42328  0.84523  1.0000
  H   H1706     1.0  0.73371  0.44007  0.37308  1.0000
  H   H1707     1.0  0.53323  0.39413  0.16778  1.0000
  C   C978      1.0  0.50029  0.27245  0.21501  1.0000
  H   H1708     1.0  0.57127  0.47197  0.86846  1.0000
  H   H1709     1.0  0.60666  0.43069  0.68314  1.0000
  C   C979      1.0  0.58640  0.40713  0.80784  1.0000
  H   H1710     1.0  0.54454  0.36085  0.73535  1.0000
  H   H1711     1.0  0.58162  0.39718  0.82918  1.0000
  H   H1712     1.0  0.56339  0.41372  0.41427  1.0000
  C   C980      1.0  0.59598  0.42431  0.82785  1.0000
  N   N54       1.0  0.72027  0.45163  0.40707  1.0000
  H   H1713     1.0  0.56492  0.48042  0.12430  1.0000
  H   H1714     1.0  0.51156  0.27195  0.16102  1.0000
  C   C981      1.0  0.55386  0.35112  0.44018  1.0000
  H   H1715     1.0  0.50729  0.37076  0.11285  1.0000
  H   H1716     1.0  0.57773  0.36813  0.41754  1.0000
  H   H1717     1.0  0.70847  0.46260  0.86293  1.0000
  H   H1718     1.0  0.72512  0.35046  0.68208  1.0000
  H   H1719     1.0  0.58215  0.40897  0.71154  1.0000
  C   C982      1.0  0.52995  0.45718  0.93129  1.0000
  H   H1720     1.0  0.54117  0.41850  0.83774  1.0000
  H   H1721     1.0  0.56062  0.37823  0.78669  1.0000
  S   S225      1.0  0.49616  0.41090  0.98103  1.0000
  H   H1722     1.0  0.54951  0.33925  0.45628  1.0000
  H   H1723     1.0  0.52087  0.33822  0.41341  1.0000
  H   H1724     1.0  0.71682  0.47478  0.50727  1.0000
  H   H1725     1.0  0.55987  0.35274  0.75084  1.0000
  H   H1726     1.0  0.58040  0.40377  0.07905  1.0000
  H   H1727     1.0  0.56395  0.39043  0.74570  1.0000
  H   H1728     1.0  0.51096  0.44999  0.87334  1.0000
  H   H1729     1.0  0.63996  0.44491  0.54464  1.0000
  H   H1730     1.0  0.67964  0.43275  0.79175  1.0000
  H   H1731     1.0  0.72386  0.40565  0.31138  1.0000
  H   H1732     1.0  0.70079  0.41981  0.82014  1.0000
  C   C983      1.0  0.70154  0.45037  0.84818  1.0000
  C   C984      1.0  0.57665  0.41493  0.07651  1.0000
  H   H1733     1.0  0.63688  0.46522  0.75162  1.0000
  C   C985      1.0  0.50338  0.24630  0.30291  1.0000
  H   H1734     1.0  0.55751  0.47993  0.92023  1.0000
  H   H1735     1.0  0.67081  0.25926  0.31257  1.0000
  H   H1736     1.0  0.49369  0.28576  0.14967  1.0000
  H   H1737     1.0  0.57900  0.41951  0.87400  1.0000
  H   H1738     1.0  0.70868  0.48529  0.33740  1.0000
  C   C986      1.0  0.62924  0.47108  0.80475  1.0000
  H   H1739     1.0  0.58411  0.42315  0.05442  1.0000
  Fe  Fe114     1.0  0.58627  0.48137  0.98450  1.0000
  C   C987      1.0  0.52039  0.38708  0.15778  1.0000
  H   H1740     1.0  0.57942  0.42244  0.10243  1.0000
  H   H1741     1.0  0.69359  0.46092  0.37724  1.0000
  C   C988      1.0  0.67636  0.25457  0.28965  1.0000
  H   H1742     1.0  0.60143  0.43477  0.80813  1.0000
  H   H1743     1.0  0.54754  0.26969  0.52131  1.0000
  C   C989      1.0  0.58456  0.42943  0.85307  1.0000
  C   C990      1.0  0.69000  0.31216  0.70988  1.0000
  C   C991      1.0  0.50002  0.34359  0.43263  1.0000
  H   H1744     1.0  0.49764  0.26359  0.37369  1.0000
  H   H1745     1.0  0.69038  0.42969  0.90973  1.0000
  C   C992      1.0  0.52039  0.25164  0.29603  1.0000
  H   H1746     1.0  0.58976  0.43805  0.68796  1.0000
  S   S226      1.0  0.49559  0.32881  0.73872  1.0000
  H   H1747     1.0  0.60724  0.44585  0.71896  1.0000
  C   C993      1.0  0.49383  0.29805  0.49354  1.0000
  H   H1748     1.0  0.53007  0.38626  0.43658  1.0000
  C   C994      1.0  0.54379  0.39216  0.43909  1.0000
  H   H1749     1.0  0.57453  0.43140  0.83713  1.0000
  H   H1750     1.0  0.52397  0.36414  0.47595  1.0000
  H   H1751     1.0  0.72559  0.45940  0.52132  1.0000
  H   H1752     1.0  0.68375  0.40754  0.74604  1.0000
  H   H1753     1.0  0.68082  0.46050  0.80630  1.0000
  C   C995      1.0  0.56464  0.48080  0.86434  1.0000
  C   C996      1.0  0.54971  0.40689  0.41213  1.0000
  N   N55       1.0  0.54747  0.36399  0.45624  1.0000
  H   H1754     1.0  0.62469  0.48047  0.79422  1.0000
  C   C997      1.0  0.49094  0.33028  0.78595  1.0000
  C   C998      1.0  0.51531  0.27411  0.19019  1.0000
  C   C999      1.0  0.72076  0.31706  0.71142  1.0000
  N   N56       1.0  0.70244  0.45340  0.80749  1.0000
  H   H1755     1.0  0.49891  0.25885  0.57059  1.0000
  H   H1756     1.0  0.68736  0.40417  0.36439  1.0000
  H   H1757     1.0  0.67471  0.40170  0.79062  1.0000
  H   H1758     1.0  0.54705  0.39763  0.46700  1.0000
  H   H1759     1.0  0.52170  0.35939  0.40411  1.0000
  H   H1760     1.0  0.60588  0.46006  0.10826  1.0000
  H   H1761     1.0  0.50079  0.44713  0.80960  1.0000
  C   C1000     1.0  0.50066  0.25433  0.42805  1.0000
  H   H1762     1.0  0.51935  0.44476  0.93288  1.0000
  H   H1763     1.0  0.71585  0.29148  0.60314  1.0000
  C   C1001     1.0  0.51914  0.46651  0.98879  1.0000
  H   H1764     1.0  0.49865  0.28487  0.21547  1.0000
  H   H1765     1.0  0.51216  0.47003  0.93440  1.0000
  H   H1766     1.0  0.55959  0.47880  0.83621  1.0000
  C   C1002     1.0  0.50988  0.46034  0.80572  1.0000
  H   H1767     1.0  0.62787  0.44174  0.48196  1.0000
  C   C1003     1.0  0.69315  0.43728  0.78603  1.0000
  C   C1004     1.0  0.68646  0.40576  0.77499  1.0000
  C   C1005     1.0  0.55085  0.47783  0.89340  1.0000
  H   H1768     1.0  0.54101  0.34787  0.52626  1.0000
  H   H1769     1.0  0.71482  0.41553  0.39565  1.0000
  C   C1006     1.0  0.55193  0.37899  0.43086  1.0000
  H   H1770     1.0  0.50978  0.27700  0.80986  1.0000
  H   H1771     1.0  0.50334  0.31430  0.80610  1.0000
  H   H1772     1.0  0.72078  0.44002  0.57834  1.0000
  C   C1007     1.0  0.72299  0.42821  0.58476  1.0000
  H   H1773     1.0  0.51379  0.39607  0.15624  1.0000
  C   C1008     1.0  0.49077  0.32207  0.84975  1.0000
  C   C1009     1.0  0.69907  0.42227  0.79108  1.0000
  H   H1774     1.0  0.52468  0.30192  0.18762  1.0000
  H   H1775     1.0  0.55988  0.35385  0.57818  1.0000
  C   C1010     1.0  0.70464  0.47138  0.38861  1.0000
  H   H1776     1.0  0.53938  0.29242  0.17469  1.0000
  H   H1777     1.0  0.72516  0.47535  0.79851  1.0000
  H   H1778     1.0  0.70648  0.45496  0.45350  1.0000
  H   H1779     1.0  0.53031  0.46722  0.00475  1.0000
  H   H1780     1.0  0.57455  0.37243  0.55640  1.0000
  C   C1011     1.0  0.68464  0.43930  0.90542  1.0000
  H   H1781     1.0  0.52574  0.34408  0.47800  1.0000
  H   H1782     1.0  0.70786  0.44167  0.85610  1.0000
  H   H1783     1.0  0.72095  0.28873  0.67005  1.0000
  C   C1012     1.0  0.68385  0.44288  0.86475  1.0000
  S   S227      1.0  0.61980  0.47944  0.87203  1.0000
  C   C1013     1.0  0.55407  0.35636  0.52155  1.0000
  C   C1014     1.0  0.70530  0.31430  0.68686  1.0000
  C   C1015     1.0  0.73148  0.41291  0.68725  1.0000
  H   H1784     1.0  0.52694  0.26030  0.54045  1.0000
  H   H1785     1.0  0.49621  0.33352  0.45373  1.0000
  C   C1016     1.0  0.69536  0.47264  0.76035  1.0000
  H   H1786     1.0  0.54929  0.26070  0.38893  1.0000
  C   C1017     1.0  0.49737  0.26770  0.80149  1.0000
  S   S228      1.0  0.49680  0.29017  0.31314  1.0000
  H   H1787     1.0  0.49965  0.39245  0.05341  1.0000
  H   H1788     1.0  0.72127  0.45874  0.76550  1.0000
  H   H1789     1.0  0.72930  0.44166  0.81729  1.0000
  C   C1018     1.0  0.72800  0.47136  0.50596  1.0000
  C   C1019     1.0  0.73566  0.44786  0.39864  1.0000
  H   H1790     1.0  0.51272  0.46216  0.77614  1.0000
  H   H1791     1.0  0.51447  0.47603  0.00049  1.0000
  H   H1792     1.0  0.68542  0.24935  0.30071  1.0000
  H   H1793     1.0  0.72750  0.31856  0.63716  1.0000
  H   H1794     1.0  0.49285  0.33822  0.40723  1.0000
  C   C1020     1.0  0.72681  0.28888  0.61287  1.0000
  H   H1795     1.0  0.68814  0.49029  0.72834  1.0000
  H   H1796     1.0  0.53561  0.25135  0.46589  1.0000
  H   H1797     1.0  0.73505  0.46092  0.84415  1.0000
  H   H1798     1.0  0.70222  0.47392  0.41735  1.0000
  C   C1021     1.0  0.73238  0.46927  0.46624  1.0000
  C   C1022     1.0  0.68753  0.48607  0.75712  1.0000
  H   H1799     1.0  0.51504  0.24431  0.48181  1.0000
  H   H1800     1.0  0.54073  0.24332  0.28674  1.0000
  H   H1801     1.0  0.73429  0.48144  0.45234  1.0000
  H   H1802     1.0  0.69506  0.49008  0.36880  1.0000
  H   H1803     1.0  0.60326  0.48898  0.11503  1.0000
  C   C1023     1.0  0.70659  0.48732  0.36672  1.0000
  H   H1804     1.0  0.54629  0.48851  0.89137  1.0000
  H   H1805     1.0  0.49265  0.24450  0.44701  1.0000
  H   H1806     1.0  0.49804  0.58361  0.83388  1.0000
  H   H1807     1.0  0.61385  0.51448  0.05104  1.0000
  C   C1024     1.0  0.49008  0.59762  0.35008  1.0000
  C   C1025     1.0  0.58463  0.49561  0.08796  1.0000
  H   H1808     1.0  0.50674  0.54693  0.30761  1.0000
  H   H1809     1.0  0.54367  0.61763  0.86582  1.0000
  C   C1026     1.0  0.50902  0.61814  0.24202  1.0000
  H   H1810     1.0  0.49485  0.62242  0.09901  1.0000
  H   H1811     1.0  0.51114  0.65282  0.90468  1.0000
  H   H1812     1.0  0.48881  0.59711  0.44574  1.0000
  N   N57       1.0  0.49555  0.62591  0.90791  1.0000
  Fe  Fe115     1.0  0.51539  0.55567  0.96411  1.0000
  S   S229      1.0  0.50508  0.55251  0.02105  1.0000
  S   S230      1.0  0.53849  0.55000  0.94730  1.0000
  H   H1813     1.0  0.49200  0.57983  0.39232  1.0000
  C   C1027     1.0  0.48853  0.59378  0.78858  1.0000
  C   C1028     1.0  0.48630  0.58948  0.38850  1.0000
  H   H1814     1.0  0.58728  0.50070  0.84598  1.0000
  H   H1815     1.0  0.58375  0.54577  0.10467  1.0000
  H   H1816     1.0  0.51365  0.58141  0.27052  1.0000
  S   S231      1.0  0.51143  0.58069  0.95622  1.0000
  H   H1817     1.0  0.53244  0.66244  0.99683  1.0000
  C   C1029     1.0  0.52276  0.66167  0.97616  1.0000
  H   H1818     1.0  0.59394  0.49963  0.14400  1.0000
  H   H1819     1.0  0.65838  0.53665  0.02664  1.0000
  C   C1030     1.0  0.48885  0.61021  0.11192  1.0000
  H   H1820     1.0  0.52056  0.62972  0.24107  1.0000
  H   H1821     1.0  0.52877  0.64365  0.94346  1.0000
  S   S232      1.0  0.49117  0.54046  0.93570  1.0000
  H   H1822     1.0  0.54077  0.50332  0.02625  1.0000
  H   H1823     1.0  0.49849  0.62160  0.23257  1.0000
  H   H1824     1.0  0.49978  0.68928  0.56941  1.0000
  H   H1825     1.0  0.51669  0.61924  0.85066  1.0000
  H   H1826     1.0  0.57941  0.50575  0.08662  1.0000
  N   N58       1.0  0.61357  0.51641  0.11002  1.0000
  H   H1827     1.0  0.61895  0.54345  0.10533  1.0000
  H   H1828     1.0  0.51289  0.63436  0.97617  1.0000
  H   H1829     1.0  0.49867  0.60207  0.89708  1.0000
  H   H1830     1.0  0.51112  0.61394  0.93317  1.0000
  C   C1031     1.0  0.55934  0.50916  0.98420  1.0000
  C   C1032     1.0  0.54602  0.51122  0.00293  1.0000
  C   C1033     1.0  0.53940  0.52346  0.99196  1.0000
  C   C1034     1.0  0.54606  0.53397  0.96204  1.0000
  C   C1035     1.0  0.55937  0.53189  0.94330  1.0000
  C   C1036     1.0  0.56594  0.51959  0.95417  1.0000
  H   H1831     1.0  0.57196  0.50852  0.86339  1.0000
  H   H1832     1.0  0.52926  0.52490  0.00689  1.0000
  H   H1833     1.0  0.56474  0.53997  0.92028  1.0000
  H   H1834     1.0  0.57626  0.51838  0.93960  1.0000
  C   C1037     1.0  0.60801  0.53127  0.10662  1.0000
  S   S233      1.0  0.61414  0.49302  0.97752  1.0000
  H   H1835     1.0  0.52799  0.63586  0.88261  1.0000
  C   C1038     1.0  0.52118  0.62191  0.87940  1.0000
  H   H1836     1.0  0.52695  0.59892  0.88143  1.0000
  C   C1039     1.0  0.50608  0.61141  0.28102  1.0000
  H   H1837     1.0  0.50671  0.60857  0.41851  1.0000
  C   C1040     1.0  0.53332  0.61291  0.88559  1.0000
  C   C1041     1.0  0.48977  0.59549  0.28357  1.0000
  C   C1042     1.0  0.50322  0.50116  0.94035  1.0000
  H   H1838     1.0  0.49512  0.64813  0.93717  1.0000
  H   H1839     1.0  0.50683  0.49736  0.91360  1.0000
  H   H1840     1.0  0.60400  0.53646  0.16420  1.0000
  H   H1841     1.0  0.51033  0.60839  0.22302  1.0000
  C   C1043     1.0  0.51746  0.64459  0.95575  1.0000
  C   C1044     1.0  0.59700  0.53356  0.13798  1.0000
  C   C1045     1.0  0.50437  0.64325  0.92551  1.0000
  H   H1842     1.0  0.60126  0.53052  0.08028  1.0000
  H   H1843     1.0  0.51113  0.58465  0.33586  1.0000
  C   C1046     1.0  0.48743  0.58583  0.82287  1.0000
  C   C1047     1.0  0.49293  0.60299  0.41871  1.0000
  H   H1844     1.0  0.50531  0.62185  0.29872  1.0000
  S   S234      1.0  0.56692  0.49322  0.99936  1.0000
  H   H1845     1.0  0.52800  0.67244  0.95696  1.0000
  H   H1846     1.0  0.49476  0.56321  0.26741  1.0000
  H   H1847     1.0  0.51201  0.66290  0.99061  1.0000
  H   H1848     1.0  0.53862  0.61548  0.91369  1.0000
  C   C1048     1.0  0.62197  0.51481  0.07491  1.0000
  C   C1049     1.0  0.50626  0.61535  0.90588  1.0000
  H   H1849     1.0  0.63804  0.54187  0.06748  1.0000
  H   H1850     1.0  0.65631  0.52355  0.17303  1.0000
  H   H1851     1.0  0.48985  0.60325  0.96914  1.0000
  H   H1852     1.0  0.51696  0.60851  0.29002  1.0000
  H   H1853     1.0  0.71715  0.49853  0.37744  1.0000
  C   C1050     1.0  0.49002  0.67903  0.58437  1.0000
  Fe  Fe116     1.0  0.49871  0.57573  0.01143  1.0000
  H   H1854     1.0  0.48897  0.58745  0.25903  1.0000
  H   H1855     1.0  0.50177  0.63656  0.85374  1.0000
  H   H1856     1.0  0.64717  0.51395  0.02928  1.0000
  H   H1857     1.0  0.60222  0.56046  0.12731  1.0000
  H   H1858     1.0  0.50318  0.60680  0.35106  1.0000
  H   H1859     1.0  0.69425  0.49735  0.77468  1.0000
  C   C1051     1.0  0.48900  0.59533  0.09435  1.0000
  H   H1860     1.0  0.48800  0.71512  0.34434  1.0000
  H   H1861     1.0  0.63535  0.53246  0.14057  1.0000
  C   C1052     1.0  0.51484  0.55872  0.29376  1.0000
  H   H1862     1.0  0.58905  0.49396  0.06039  1.0000
  H   H1863     1.0  0.50005  0.59760  0.77361  1.0000
  H   H1864     1.0  0.63763  0.52743  0.00816  1.0000
  H   H1865     1.0  0.58567  0.52197  0.14154  1.0000
  H   H1866     1.0  0.62366  0.50242  0.07351  1.0000
  C   C1053     1.0  0.57771  0.49888  0.86727  1.0000
  C   C1054     1.0  0.50525  0.57028  0.28582  1.0000
  H   H1867     1.0  0.52587  0.56549  0.31128  1.0000
  H   H1868     1.0  0.63967  0.50422  0.12345  1.0000
  H   H1869     1.0  0.49419  0.56500  0.33970  1.0000
  H   H1870     1.0  0.48953  0.68324  0.61304  1.0000
  H   H1871     1.0  0.64002  0.51289  0.20534  1.0000
  H   H1872     1.0  0.48734  0.65098  0.81582  1.0000
  H   H1873     1.0  0.58401  0.50093  0.89438  1.0000
  H   H1874     1.0  0.58361  0.54982  0.15304  1.0000
  H   H1875     1.0  0.49142  0.73137  0.29455  1.0000
  C   C1055     1.0  0.59134  0.54832  0.13015  1.0000
  S   S235      1.0  0.49960  0.59713  0.05173  1.0000
  C   C1056     1.0  0.62527  0.51962  0.14228  1.0000
  H   H1876     1.0  0.51916  0.55501  0.26771  1.0000
  H   H1877     1.0  0.49245  0.73303  0.41040  1.0000
  H   H1878     1.0  0.49341  0.66757  0.58481  1.0000
  C   C1057     1.0  0.49950  0.57629  0.32173  1.0000
  H   H1879     1.0  0.48811  0.61337  0.41510  1.0000
  C   C1058     1.0  0.64592  0.52658  0.03064  1.0000
  H   H1880     1.0  0.50783  0.51530  0.94170  1.0000
  H   H1881     1.0  0.61867  0.51997  0.16805  1.0000
  H   H1882     1.0  0.48655  0.62201  0.98577  1.0000
  C   C1059     1.0  0.59906  0.49993  0.11608  1.0000
  H   H1883     1.0  0.65120  0.50135  0.18324  1.0000
  H   H1884     1.0  0.64835  0.52931  0.08864  1.0000
  C   C1060     1.0  0.63906  0.52917  0.06763  1.0000
  C   C1061     1.0  0.64596  0.51140  0.17939  1.0000
  C   C1062     1.0  0.49071  0.62834  0.86922  1.0000
  C   C1063     1.0  0.63324  0.50613  0.14821  1.0000
  H   H1885     1.0  0.50929  0.49688  0.96280  1.0000
  N   N59       1.0  0.48744  0.58534  0.31820  1.0000
  Fe  Fe117     1.0  0.48641  0.56492  0.93148  1.0000
  H   H1886     1.0  0.62361  0.49371  0.15570  1.0000
  H   H1887     1.0  0.49051  0.95155  0.98894  1.0000
  S   S236      1.0  0.49132  0.88705  0.98430  1.0000
  C   C1064     1.0  0.48945  0.76002  0.74715  1.0000
  H   H1888     1.0  0.48948  0.85742  0.79918  1.0000
  Fe  Fe118     1.0  0.49804  0.86032  0.90205  1.0000
  S   S237      1.0  0.50121  0.88802  0.89582  1.0000
  H   H1889     1.0  0.50153  0.75479  0.46076  1.0000
  Fe  Fe119     1.0  0.51443  0.89314  0.95042  1.0000
  S   S238      1.0  0.53705  0.91752  0.96667  1.0000
  H   H1890     1.0  0.50586  0.83676  0.14591  1.0000
  S   S239      1.0  0.51332  0.86574  0.95452  1.0000
  H   H1891     1.0  0.54603  0.86217  0.92925  1.0000
  H   H1892     1.0  0.55223  0.98848  0.04897  1.0000
  C   C1065     1.0  0.50051  0.95225  0.96954  1.0000
  Fe  Fe120     1.0  0.48921  0.85956  0.98509  1.0000
  H   H1893     1.0  0.51706  0.75745  0.29651  1.0000
  C   C1066     1.0  0.50726  0.96967  0.94971  1.0000
  H   H1894     1.0  0.50247  0.74606  0.35561  1.0000
  H   H1895     1.0  0.51681  0.87572  0.83030  1.0000
  C   C1067     1.0  0.55537  0.86817  0.98405  1.0000
  H   H1896     1.0  0.50468  0.77059  0.29342  1.0000
  H   H1897     1.0  0.49369  0.89116  0.10390  1.0000
  H   H1898     1.0  0.55274  0.85453  0.98985  1.0000
  H   H1899     1.0  0.51060  0.95003  0.98476  1.0000
  C   C1068     1.0  0.56140  0.97507  0.93627  1.0000
  C   C1069     1.0  0.54887  0.96353  0.91383  1.0000
  C   C1070     1.0  0.54093  0.94610  0.92310  1.0000
  C   C1071     1.0  0.54554  0.93976  0.95485  1.0000
  C   C1072     1.0  0.55799  0.95132  0.97737  1.0000
  C   C1073     1.0  0.56573  0.96880  0.96843  1.0000
  H   H1900     1.0  0.54534  0.96810  0.88888  1.0000
  H   H1901     1.0  0.53153  0.93749  0.90517  1.0000
  H   H1902     1.0  0.56179  0.94668  0.00193  1.0000
  H   H1903     1.0  0.51715  0.96903  0.93119  1.0000
  H   H1904     1.0  0.49293  0.77398  0.75117  1.0000
  H   H1905     1.0  0.48858  0.86848  0.10323  1.0000
  H   H1906     1.0  0.54489  0.87140  0.99460  1.0000
  C   C1074     1.0  0.49370  0.83809  0.09494  1.0000
  N   N60       1.0  0.56160  0.89454  0.89382  1.0000
  C   C1075     1.0  0.54506  0.88499  0.87551  1.0000
  C   C1076     1.0  0.56039  0.88993  0.93378  1.0000
  C   C1077     1.0  0.56479  0.91338  0.89147  1.0000
  C   C1078     1.0  0.57584  0.89124  0.87596  1.0000
  C   C1079     1.0  0.57185  0.87336  0.85802  1.0000
  C   C1080     1.0  0.54323  0.89071  0.83604  1.0000
  C   C1081     1.0  0.57979  0.92558  0.91398  1.0000
  C   C1082     1.0  0.55738  0.87116  0.94289  1.0000
  S   S240      1.0  0.49987  0.84065  0.85969  1.0000
  C   C1083     1.0  0.58775  0.87058  0.84796  1.0000
  C   C1084     1.0  0.52855  0.87755  0.81579  1.0000
  C   C1085     1.0  0.58494  0.94402  0.90129  1.0000
  H   H1907     1.0  0.53489  0.88657  0.89175  1.0000
  H   H1908     1.0  0.54203  0.87102  0.87513  1.0000
  H   H1909     1.0  0.57201  0.89757  0.94869  1.0000
  H   H1910     1.0  0.55035  0.89317  0.94679  1.0000
  H   H1911     1.0  0.55363  0.91592  0.90032  1.0000
  H   H1912     1.0  0.56685  0.91763  0.86261  1.0000
  H   H1913     1.0  0.58142  0.90060  0.85390  1.0000
  H   H1914     1.0  0.58613  0.89348  0.89610  1.0000
  H   H1915     1.0  0.56454  0.87213  0.83249  1.0000
  H   H1916     1.0  0.56450  0.86280  0.87590  1.0000
  H   H1917     1.0  0.54099  0.90284  0.83701  1.0000
  H   H1918     1.0  0.55461  0.89295  0.81987  1.0000
  H   H1919     1.0  0.59072  0.92183  0.91172  1.0000
  H   H1920     1.0  0.57632  0.92534  0.94325  1.0000
  C   C1086     1.0  0.50515  0.75794  0.28644  1.0000
  H   H1921     1.0  0.56825  0.86809  0.93470  1.0000
  H   H1922     1.0  0.53817  0.98370  0.97303  1.0000
  H   H1923     1.0  0.56691  0.87608  0.99887  1.0000
  H   H1924     1.0  0.50401  0.84895  0.08514  1.0000
  H   H1925     1.0  0.58452  0.85794  0.83430  1.0000
  H   H1926     1.0  0.59534  0.88059  0.82892  1.0000
  H   H1927     1.0  0.59520  0.87082  0.87287  1.0000
  H   H1928     1.0  0.48884  0.92516  0.95707  1.0000
  H   H1929     1.0  0.48984  0.75844  0.35014  1.0000
  H   H1930     1.0  0.53012  0.86510  0.81364  1.0000
  H   H1931     1.0  0.57423  0.94818  0.90205  1.0000
  H   H1932     1.0  0.59481  0.95258  0.91967  1.0000
  H   H1933     1.0  0.58984  0.94534  0.87304  1.0000
  C   C1087     1.0  0.48832  0.75351  0.46157  1.0000
  H   H1934     1.0  0.52617  0.97405  0.01128  1.0000
  H   H1935     1.0  0.57531  0.97734  0.98610  1.0000
  H   H1936     1.0  0.52758  0.88203  0.78778  1.0000
  H   H1937     1.0  0.49966  0.75640  0.75791  1.0000
  C   C1088     1.0  0.50140  0.98557  0.00229  1.0000
  N   N61       1.0  0.51391  0.98538  0.97395  1.0000
  C   C1089     1.0  0.49071  0.83353  0.81554  1.0000
  C   C1090     1.0  0.49468  0.83116  0.12957  1.0000
  H   H1938     1.0  0.48738  0.79694  0.44276  1.0000
  H   H1939     1.0  0.49982  0.97555  0.02305  1.0000
  H   H1940     1.0  0.50470  0.75651  0.25621  1.0000
  H   H1941     1.0  0.49736  0.97037  0.93112  1.0000
  C   C1091     1.0  0.52928  0.98528  0.99316  1.0000
  C   C1092     1.0  0.49020  0.74555  0.34515  1.0000
  H   H1942     1.0  0.48889  0.76277  0.40746  1.0000
  H   H1943     1.0  0.48775  0.76518  0.47467  1.0000
  H   H1944     1.0  0.48796  0.75721  0.71735  1.0000
  C   C1093     1.0  0.48731  0.84444  0.79094  1.0000
  C   C1094     1.0  0.49328  0.93746  0.94228  1.0000
  C   C1095     1.0  0.48792  0.81672  0.80379  1.0000
  H   H1945     1.0  0.49064  0.80817  0.82231  1.0000
  H   H1946     1.0  0.50287  0.93722  0.92252  1.0000
  C   C1096     1.0  0.49042  0.74359  0.30298  1.0000
  C   C1097     1.0  0.75563  0.21256  0.33205  1.0000
  H   H1947     1.0  0.74516  0.18597  0.34404  1.0000
  H   H1948     1.0  0.76452  0.22450  0.42370  1.0000
  H   H1949     1.0  0.75139  0.22281  0.67179  1.0000
  N   N62       1.0  0.76200  0.22720  0.53710  1.0000
  H   H1950     1.0  0.78361  0.22038  0.54415  1.0000
  C   C1098     1.0  0.73826  0.21744  0.66536  1.0000
  H   H1951     1.0  0.75508  0.23137  0.48207  1.0000
  C   C1099     1.0  0.77633  0.22423  0.47646  1.0000
  H   H1952     1.0  0.78934  0.22855  0.48670  1.0000
  H   H1953     1.0  0.75415  0.22475  0.33901  1.0000
  H   H1954     1.0  0.76870  0.21408  0.33773  1.0000
  C   C1100     1.0  0.75003  0.20881  0.53602  1.0000
  C   C1101     1.0  0.77661  0.22466  0.59791  1.0000
  C   C1102     1.0  0.79379  0.22827  0.61460  1.0000
  H   H1955     1.0  0.75320  0.20981  0.30243  1.0000
  H   H1956     1.0  0.80507  0.24159  0.01409  1.0000
  H   H1957     1.0  0.73788  0.17732  0.57370  1.0000
  H   H1958     1.0  0.79256  0.22520  0.64413  1.0000
  H   H1959     1.0  0.74806  0.19991  0.38302  1.0000
  H   H1960     1.0  0.76933  0.21089  0.60181  1.0000
  H   H1961     1.0  0.82579  0.24125  0.01040  1.0000
  C   C1103     1.0  0.73739  0.20279  0.56769  1.0000
  H   H1962     1.0  0.77051  0.21015  0.47871  1.0000
  H   H1963     1.0  0.74236  0.20602  0.51056  1.0000
  C   C1104     1.0  0.74384  0.19781  0.35411  1.0000
  C   C1105     1.0  0.77791  0.22891  0.55673  1.0000
  S   S241      1.0  0.75505  0.23623  0.25088  1.0000
  H   H1964     1.0  0.77091  0.23236  0.61349  1.0000
  C   C1106     1.0  0.77715  0.22878  0.43598  1.0000
  H   H1965     1.0  0.74071  0.11026  0.71370  1.0000
  H   H1966     1.0  0.75704  0.20013  0.53464  1.0000
  H   H1967     1.0  0.75047  0.23505  0.58301  1.0000
  C   C1107     1.0  0.74044  0.24166  0.53361  1.0000
  H   H1968     1.0  0.78445  0.22247  0.42101  1.0000
  H   H1969     1.0  0.74330  0.20675  0.59470  1.0000
  H   H1970     1.0  0.79991  0.22038  0.60103  1.0000
  C   C1108     1.0  0.76648  0.23313  0.49834  1.0000
  C   C1109     1.0  0.75484  0.23911  0.55493  1.0000
  H   H1971     1.0  0.80179  0.24196  0.61181  1.0000
  H   H1972     1.0  0.78719  0.24214  0.55373  1.0000
  Fe  Fe121     1.0  0.79516  0.44479  0.70687  1.0000
  S   S242      1.0  0.82035  0.46144  0.68514  1.0000
  S   S243      1.0  0.77381  0.45435  0.70805  1.0000
  Fe  Fe122     1.0  0.80590  0.41496  0.71784  1.0000
  S   S244      1.0  0.83125  0.42906  0.69597  1.0000
  S   S245      1.0  0.79985  0.38846  0.73933  1.0000
  Fe  Fe123     1.0  0.83097  0.45084  0.73199  1.0000
  S   S246      1.0  0.85480  0.46373  0.76725  1.0000
  Fe  Fe124     1.0  0.81846  0.43817  0.65151  1.0000
  S   S247      1.0  0.82136  0.43228  0.59073  1.0000
  S   S248      1.0  0.80587  0.43607  0.75554  1.0000
  S   S249      1.0  0.79297  0.42226  0.67176  1.0000
  Fe  Fe125     1.0  0.80025  0.28045  0.61721  1.0000
  S   S250      1.0  0.77591  0.28273  0.60615  1.0000
  S   S251      1.0  0.81346  0.27444  0.56815  1.0000
  Fe  Fe126     1.0  0.80031  0.28984  0.69986  1.0000
  S   S252      1.0  0.77536  0.29227  0.69233  1.0000
  S   S253      1.0  0.80991  0.29856  0.75902  1.0000
  Fe  Fe127     1.0  0.76743  0.26826  0.65810  1.0000
  Fe  Fe128     1.0  0.78586  0.30617  0.64110  1.0000
  S   S254      1.0  0.78279  0.32983  0.62047  1.0000
  S   S255      1.0  0.79152  0.26450  0.66833  1.0000
  S   S256      1.0  0.81104  0.30512  0.64945  1.0000
  Fe  Fe129     1.0  0.78768  0.43158  0.31777  1.0000
  S   S257      1.0  0.80518  0.45872  0.32733  1.0000
  S   S258      1.0  0.75937  0.41994  0.31278  1.0000
  Fe  Fe130     1.0  0.81554  0.41829  0.32578  1.0000
  S   S259      1.0  0.83494  0.44434  0.33647  1.0000
  S   S260      1.0  0.82428  0.39631  0.32629  1.0000
  Fe  Fe131     1.0  0.81589  0.44822  0.37358  1.0000
  S   S261      1.0  0.82219  0.46223  0.42938  1.0000
  Fe  Fe132     1.0  0.82299  0.45255  0.28931  1.0000
  H   H1973     1.0  0.80313  0.45917  0.14823  1.0000
  S   S262      1.0  0.79747  0.42154  0.36591  1.0000
  S   S263      1.0  0.80454  0.42606  0.27676  1.0000
  Fe  Fe133     1.0  0.78251  0.30057  0.28317  1.0000
  S   S264      1.0  0.80818  0.30431  0.30203  1.0000
  S   S265      1.0  0.77384  0.32274  0.27946  1.0000
  Fe  Fe134     1.0  0.77334  0.26238  0.27039  1.0000
  S   S266      1.0  0.79908  0.26421  0.28772  1.0000
  Fe  Fe135     1.0  0.79598  0.28049  0.33450  1.0000
  S   S267      1.0  0.80129  0.27917  0.39603  1.0000
  Fe  Fe136     1.0  0.80873  0.28809  0.25298  1.0000
  S   S268      1.0  0.83219  0.30018  0.21722  1.0000
  S   S269      1.0  0.77003  0.27764  0.31828  1.0000
  S   S270      1.0  0.78327  0.28515  0.23332  1.0000
  Fe  Fe137     1.0  0.87924  0.33400  0.92758  1.0000
  S   S271      1.0  0.89231  0.32532  0.97290  1.0000
  S   S272      1.0  0.87268  0.32157  0.87003  1.0000
  Fe  Fe138     1.0  0.87693  0.36219  0.97609  1.0000
  S   S273      1.0  0.88911  0.35553  0.02417  1.0000
  S   S274      1.0  0.86644  0.38249  0.98326  1.0000
  Fe  Fe139     1.0  0.90795  0.35352  0.98308  1.0000
  S   S275      1.0  0.93544  0.36890  0.00211  1.0000
  Fe  Fe140     1.0  0.87292  0.32839  0.01107  1.0000
  S   S276      1.0  0.85375  0.30849  0.04768  1.0000
  S   S277      1.0  0.89602  0.36169  0.93544  1.0000
  S   S278      1.0  0.85958  0.33558  0.96503  1.0000
  Fe  Fe141     1.0  0.91855  0.47287  0.02145  1.0000
  S   S279      1.0  0.92616  0.45027  0.02409  1.0000
  S   S280      1.0  0.89250  0.47192  0.02551  1.0000
  C   C1110     1.0  0.95742  0.37777  0.99144  1.0000
  H   H1974     1.0  0.96415  0.39277  0.04115  1.0000
  C   C1111     1.0  0.88295  0.40148  0.99360  1.0000
  C   C1112     1.0  0.87997  0.41459  0.01201  1.0000
  C   C1113     1.0  0.89328  0.42958  0.02165  1.0000
  C   C1114     1.0  0.90948  0.43161  0.01209  1.0000
  C   C1115     1.0  0.91240  0.41855  0.99326  1.0000
  C   C1116     1.0  0.89916  0.40340  0.98445  1.0000
  H   H1975     1.0  0.86745  0.41293  0.01969  1.0000
  H   H1976     1.0  0.89108  0.43932  0.03748  1.0000
  H   H1977     1.0  0.92492  0.42008  0.98567  1.0000
  H   H1978     1.0  0.90157  0.39330  0.97040  1.0000
  C   C1117     1.0  0.83757  0.30274  0.16964  1.0000
  C   C1118     1.0  0.85374  0.31364  0.15983  1.0000
  C   C1119     1.0  0.85874  0.31604  0.12283  1.0000
  C   C1120     1.0  0.84773  0.30727  0.09482  1.0000
  C   C1121     1.0  0.83154  0.29641  0.10459  1.0000
  C   C1122     1.0  0.82642  0.29432  0.14156  1.0000
  H   H1979     1.0  0.86255  0.32018  0.18112  1.0000
  H   H1980     1.0  0.87127  0.32426  0.11608  1.0000
  H   H1981     1.0  0.82290  0.28941  0.08341  1.0000
  H   H1982     1.0  0.81398  0.28585  0.14837  1.0000
  H   H1983     1.0  0.95908  0.47563  0.99786  1.0000
  C   C1123     1.0  0.85929  0.46704  0.19012  1.0000
  H   H1984     1.0  0.75458  0.47354  0.41249  1.0000
  H   H1985     1.0  0.85582  0.45402  0.19913  1.0000
  H   H1986     1.0  0.76677  0.32074  0.80182  1.0000
  C   C1124     1.0  0.80992  0.37614  0.31306  1.0000
  C   C1125     1.0  0.81527  0.36245  0.31171  1.0000
  C   C1126     1.0  0.80428  0.34615  0.30129  1.0000
  C   C1127     1.0  0.78784  0.34331  0.29207  1.0000
  C   C1128     1.0  0.78246  0.35707  0.29315  1.0000
  C   C1129     1.0  0.79348  0.37348  0.30370  1.0000
  H   H1987     1.0  0.82801  0.36448  0.31863  1.0000
  H   H1988     1.0  0.80866  0.33588  0.30017  1.0000
  H   H1989     1.0  0.76974  0.35503  0.28604  1.0000
  H   H1990     1.0  0.78925  0.38403  0.30462  1.0000
  C   C1130     1.0  0.80969  0.27656  0.52074  1.0000
  C   C1131     1.0  0.79559  0.27918  0.50769  1.0000
  C   C1132     1.0  0.79283  0.27979  0.46959  1.0000
  C   C1133     1.0  0.80436  0.27829  0.44419  1.0000
  C   C1134     1.0  0.81846  0.27583  0.45742  1.0000
  C   C1135     1.0  0.82101  0.27483  0.49523  1.0000
  H   H1991     1.0  0.78662  0.28029  0.52691  1.0000
  H   H1992     1.0  0.78168  0.28128  0.45977  1.0000
  H   H1993     1.0  0.82743  0.27454  0.43834  1.0000
  H   H1994     1.0  0.83192  0.27273  0.50477  1.0000
  C   C1136     1.0  0.82770  0.30514  0.78907  1.0000
  C   C1137     1.0  0.82666  0.31227  0.82357  1.0000
  C   C1138     1.0  0.84032  0.31777  0.84825  1.0000
  C   C1139     1.0  0.85517  0.31573  0.83935  1.0000
  C   C1140     1.0  0.85616  0.30847  0.80502  1.0000
  C   C1141     1.0  0.84265  0.30338  0.77995  1.0000
  H   H1995     1.0  0.81517  0.31356  0.83130  1.0000
  H   H1996     1.0  0.83926  0.32335  0.87436  1.0000
  H   H1997     1.0  0.86751  0.30676  0.79767  1.0000
  H   H1998     1.0  0.84375  0.29787  0.75377  1.0000
  C   C1142     1.0  0.82114  0.44101  0.54645  1.0000
  C   C1143     1.0  0.81615  0.42985  0.51606  1.0000
  C   C1144     1.0  0.81631  0.43605  0.48025  1.0000
  C   C1145     1.0  0.82171  0.45361  0.47412  1.0000
  C   C1146     1.0  0.82684  0.46480  0.50448  1.0000
  C   C1147     1.0  0.82644  0.45858  0.54039  1.0000
  H   H1999     1.0  0.81220  0.41625  0.52023  1.0000
  H   H2000     1.0  0.81240  0.42723  0.45736  1.0000
  C   C1148     1.0  0.76153  0.32370  0.37493  1.0000
  H   H2001     1.0  0.83059  0.46739  0.56325  1.0000
  C   C1149     1.0  0.86014  0.46793  0.81492  1.0000
  C   C1150     1.0  0.84826  0.46578  0.84219  1.0000
  C   C1151     1.0  0.85323  0.47005  0.87910  1.0000
  S   S281      1.0  0.83852  0.47180  0.24605  1.0000
  H   H2002     1.0  0.83525  0.46122  0.83470  1.0000
  H   H2003     1.0  0.84050  0.47363  0.12428  1.0000
  C   C1152     1.0  0.79563  0.37258  0.70549  1.0000
  C   C1153     1.0  0.79338  0.35598  0.71585  1.0000
  C   C1154     1.0  0.79050  0.34308  0.68948  1.0000
  C   C1155     1.0  0.78870  0.34646  0.65280  1.0000
  C   C1156     1.0  0.79082  0.36304  0.64228  1.0000
  C   C1157     1.0  0.79462  0.37619  0.66856  1.0000
  H   H2004     1.0  0.79391  0.35310  0.74438  1.0000
  H   H2005     1.0  0.78929  0.33042  0.69770  1.0000
  H   H2006     1.0  0.78957  0.36574  0.61383  1.0000
  H   H2007     1.0  0.79651  0.38902  0.66026  1.0000
  H   H2008     1.0  0.75636  0.40995  0.55867  1.0000
  C   C1158     1.0  0.87063  0.47314  0.16059  1.0000
  H   H2009     1.0  0.80378  0.28396  0.96735  1.0000
  H   H2010     1.0  0.77671  0.31940  0.53333  1.0000
  C   C1159     1.0  0.85263  0.47789  0.20808  1.0000
  C   C1160     1.0  0.75293  0.44086  0.69883  1.0000
  H   H2011     1.0  0.75750  0.41753  0.69581  1.0000
  N   N63       1.0  0.92389  0.39129  0.10525  1.0000
  C   C1161     1.0  0.90881  0.39415  0.09060  1.0000
  C   C1162     1.0  0.93920  0.40186  0.08427  1.0000
  C   C1163     1.0  0.92109  0.37270  0.09871  1.0000
  C   C1164     1.0  0.92634  0.39480  0.14575  1.0000
  C   C1165     1.0  0.92797  0.41278  0.15918  1.0000
  C   C1166     1.0  0.89209  0.38416  0.10963  1.0000
  C   C1167     1.0  0.94068  0.41991  0.07222  1.0000
  C   C1168     1.0  0.95756  0.42967  0.05519  1.0000
  H   H2012     1.0  0.73744  0.29494  0.59429  1.0000
  C   C1169     1.0  0.87791  0.38827  0.09264  1.0000
  H   H2013     1.0  0.90727  0.39091  0.06083  1.0000
  H   H2014     1.0  0.91043  0.40779  0.09217  1.0000
  H   H2015     1.0  0.95067  0.40312  0.09984  1.0000
  H   H2016     1.0  0.93972  0.39522  0.05813  1.0000
  H   H2017     1.0  0.91754  0.36919  0.06966  1.0000
  H   H2018     1.0  0.77396  0.24704  0.49811  1.0000
  H   H2019     1.0  0.91613  0.38513  0.16108  1.0000
  H   H2020     1.0  0.93785  0.39319  0.15526  1.0000
  H   H2021     1.0  0.91819  0.41678  0.14764  1.0000
  H   H2022     1.0  0.94037  0.42219  0.15185  1.0000
  H   H2023     1.0  0.88867  0.37018  0.10685  1.0000
  H   H2024     1.0  0.89276  0.38761  0.13906  1.0000
  H   H2025     1.0  0.93122  0.41870  0.05101  1.0000
  H   H2026     1.0  0.93876  0.42775  0.09471  1.0000
  H   H2027     1.0  0.96774  0.43160  0.07529  1.0000
  H   H2028     1.0  0.74251  0.32283  0.76952  1.0000
  H   H2029     1.0  0.95796  0.44234  0.04623  1.0000
  C   C1170     1.0  0.84557  0.27879  0.91894  1.0000
  H   H2030     1.0  0.80298  0.24676  0.82358  1.0000
  C   C1171     1.0  0.81850  0.24902  0.01885  1.0000
  H   H2031     1.0  0.86624  0.38152  0.10760  1.0000
  H   H2032     1.0  0.88061  0.40220  0.09395  1.0000
  H   H2033     1.0  0.87600  0.38391  0.06369  1.0000
  N   N64       1.0  0.82176  0.34901  0.18056  1.0000
  C   C1172     1.0  0.82575  0.35314  0.14084  1.0000
  C   C1173     1.0  0.81712  0.36296  0.19765  1.0000
  C   C1174     1.0  0.83680  0.34768  0.19897  1.0000
  C   C1175     1.0  0.80729  0.33227  0.18470  1.0000
  C   C1176     1.0  0.79152  0.33031  0.16190  1.0000
  C   C1177     1.0  0.82944  0.33940  0.11795  1.0000
  C   C1178     1.0  0.83554  0.34496  0.24077  1.0000
  C   C1179     1.0  0.83137  0.38069  0.20201  1.0000
  C   C1180     1.0  0.82480  0.39399  0.21656  1.0000
  C   C1181     1.0  0.77749  0.31326  0.16901  1.0000
  C   C1182     1.0  0.83163  0.34409  0.07756  1.0000
  C   C1183     1.0  0.85181  0.34489  0.25679  1.0000
  H   H2034     1.0  0.83695  0.36499  0.13831  1.0000
  H   H2035     1.0  0.81564  0.35602  0.12710  1.0000
  H   H2036     1.0  0.80720  0.36498  0.18124  1.0000
  H   H2037     1.0  0.81149  0.35911  0.22505  1.0000
  H   H2038     1.0  0.84811  0.35910  0.19319  1.0000
  H   H2039     1.0  0.83936  0.33668  0.18756  1.0000
  H   H2040     1.0  0.81101  0.32128  0.17813  1.0000
  H   H2041     1.0  0.80331  0.33036  0.21377  1.0000
  H   H2042     1.0  0.79408  0.33081  0.13221  1.0000
  H   H2043     1.0  0.78685  0.34051  0.16898  1.0000
  H   H2044     1.0  0.84116  0.33835  0.12745  1.0000
  H   H2045     1.0  0.81935  0.32667  0.11988  1.0000
  H   H2046     1.0  0.82565  0.33252  0.24715  1.0000
  H   H2047     1.0  0.83279  0.35522  0.25484  1.0000
  H   H2048     1.0  0.84097  0.38017  0.22154  1.0000
  H   H2049     1.0  0.83744  0.38538  0.17558  1.0000
  H   H2050     1.0  0.81851  0.38997  0.24311  1.0000
  H   H2051     1.0  0.83525  0.40640  0.22087  1.0000
  H   H2052     1.0  0.81585  0.39587  0.19692  1.0000
  H   H2053     1.0  0.78140  0.30250  0.16188  1.0000
  H   H2054     1.0  0.77377  0.31240  0.19815  1.0000
  H   H2055     1.0  0.76649  0.31213  0.15201  1.0000
  H   H2056     1.0  0.82003  0.34476  0.06600  1.0000
  H   H2057     1.0  0.84202  0.35653  0.07382  1.0000
  H   H2058     1.0  0.83458  0.33419  0.06212  1.0000
  H   H2059     1.0  0.85516  0.33467  0.24386  1.0000
  H   H2060     1.0  0.86203  0.35742  0.25268  1.0000
  H   H2061     1.0  0.85034  0.34243  0.28656  1.0000
  N   N65       1.0  0.84563  0.36487  0.71017  1.0000
  C   C1184     1.0  0.85640  0.35455  0.71566  1.0000
  C   C1185     1.0  0.83352  0.35690  0.67942  1.0000
  C   C1186     1.0  0.85664  0.38298  0.70118  1.0000
  C   C1187     1.0  0.83609  0.36520  0.74439  1.0000
  C   C1188     1.0  0.82576  0.34760  0.76105  1.0000
  C   C1189     1.0  0.86790  0.35923  0.74996  1.0000
  C   C1190     1.0  0.84783  0.39532  0.68981  1.0000
  C   C1191     1.0  0.84139  0.35478  0.64255  1.0000
  C   C1192     1.0  0.82869  0.35023  0.61131  1.0000
  C   C1193     1.0  0.81842  0.34986  0.79773  1.0000
  C   C1194     1.0  0.87840  0.34820  0.75196  1.0000
  C   C1195     1.0  0.84812  0.39851  0.64868  1.0000
  H   H2062     1.0  0.86467  0.35592  0.69176  1.0000
  H   H2063     1.0  0.84863  0.34065  0.71652  1.0000
  H   H2064     1.0  0.82497  0.34385  0.68675  1.0000
  H   H2065     1.0  0.82529  0.36413  0.67483  1.0000
  H   H2066     1.0  0.86603  0.38331  0.68030  1.0000
  H   H2067     1.0  0.86439  0.38912  0.72542  1.0000
  H   H2068     1.0  0.84461  0.37315  0.76602  1.0000
  H   H2069     1.0  0.82719  0.37159  0.73932  1.0000
  H   H2070     1.0  0.83331  0.33976  0.76599  1.0000
  H   H2071     1.0  0.81535  0.34017  0.74269  1.0000
  H   H2072     1.0  0.87654  0.37275  0.74933  1.0000
  H   H2073     1.0  0.86066  0.35722  0.77555  1.0000
  H   H2074     1.0  0.85462  0.40794  0.70303  1.0000
  H   H2075     1.0  0.83487  0.39138  0.69940  1.0000
  H   H2076     1.0  0.85188  0.36651  0.63492  1.0000
  H   H2077     1.0  0.84616  0.34429  0.64453  1.0000
  H   H2078     1.0  0.83473  0.34892  0.58539  1.0000
  H   H2079     1.0  0.81843  0.33794  0.61661  1.0000
  H   H2080     1.0  0.82337  0.36023  0.60786  1.0000
  H   H2081     1.0  0.82841  0.35467  0.81868  1.0000
  H   H2082     1.0  0.81193  0.35895  0.79560  1.0000
  H   H2083     1.0  0.80931  0.33738  0.80670  1.0000
  H   H2084     1.0  0.88588  0.35113  0.77761  1.0000
  H   H2085     1.0  0.87034  0.33445  0.75193  1.0000
  H   H2086     1.0  0.88699  0.35073  0.72843  1.0000
  H   H2087     1.0  0.84418  0.40939  0.64334  1.0000
  H   H2088     1.0  0.86080  0.40180  0.63754  1.0000
  H   H2089     1.0  0.83927  0.38733  0.63389  1.0000
  H   H2090     1.0  0.77063  0.47020  0.59048  1.0000
  C   C1196     1.0  0.96402  0.37348  0.95960  1.0000
  H   H2091     1.0  0.88997  0.49004  0.24095  1.0000
  C   C1197     1.0  0.74071  0.44805  0.69656  1.0000
  H   H2092     1.0  0.87604  0.47158  0.26406  1.0000
  H   H2093     1.0  0.82057  0.25185  0.04858  1.0000
  C   C1198     1.0  0.87474  0.48774  0.33007  1.0000
  H   H2094     1.0  0.74402  0.44134  0.61925  1.0000
  C   C1199     1.0  0.76697  0.45776  0.39114  1.0000
  H   H2095     1.0  0.76832  0.45213  0.41764  1.0000
  H   H2096     1.0  0.76547  0.44814  0.36916  1.0000
  C   C1200     1.0  0.78020  0.45107  0.53504  1.0000
  C   C1201     1.0  0.82085  0.26245  0.95605  1.0000
  H   H2097     1.0  0.74283  0.30202  0.71833  1.0000
  H   H2098     1.0  0.87626  0.47012  0.46225  1.0000
  H   H2099     1.0  0.87492  0.27253  0.91601  1.0000
  H   H2100     1.0  0.76474  0.25200  0.55871  1.0000
  H   H2101     1.0  0.86085  0.47970  0.46330  1.0000
  H   H2102     1.0  0.76193  0.33754  0.75202  1.0000
  H   H2103     1.0  0.73952  0.26180  0.57018  1.0000
  H   H2104     1.0  0.84387  0.46861  0.89957  1.0000
  C   C1202     1.0  0.77538  0.43183  0.58717  1.0000
  H   H2105     1.0  0.91061  0.36426  0.11530  1.0000
  C   C1203     1.0  0.74868  0.31608  0.71463  1.0000
  C   C1204     1.0  0.98141  0.38038  0.95314  1.0000
  C   C1205     1.0  0.81508  0.31002  0.98586  1.0000
  C   C1206     1.0  0.83082  0.46922  0.10237  1.0000
  H   H2106     1.0  0.74090  0.37684  0.65001  1.0000
  C   C1207     1.0  0.73692  0.45383  0.29234  1.0000
  H   H2107     1.0  0.85135  0.32198  0.38798  1.0000
  C   C1208     1.0  0.78970  0.47227  0.48316  1.0000
  H   H2108     1.0  0.89709  0.48230  0.28087  1.0000
  C   C1209     1.0  0.85152  0.46344  0.06347  1.0000
  H   H2109     1.0  0.98534  0.46282  0.02851  1.0000
  H   H2110     1.0  0.75085  0.37616  0.69294  1.0000
  C   C1210     1.0  0.81455  0.44755  0.03455  1.0000
  H   H2111     1.0  0.91433  0.40465  0.20995  1.0000
  H   H2112     1.0  0.92829  0.34570  0.06882  1.0000
  C   C1211     1.0  0.84735  0.44636  0.08417  1.0000
  C   C1212     1.0  0.86023  0.43842  0.07661  1.0000
  C   C1213     1.0  0.80145  0.44414  0.00432  1.0000
  H   H2113     1.0  0.74424  0.46168  0.70006  1.0000
  H   H2114     1.0  0.80745  0.44707  0.97713  1.0000
  H   H2115     1.0  0.86565  0.47450  0.32524  1.0000
  H   H2116     1.0  0.82406  0.45544  0.10744  1.0000
  H   H2117     1.0  0.85416  0.46131  0.03446  1.0000
  H   H2118     1.0  0.86366  0.47192  0.07530  1.0000
  C   C1214     1.0  0.74116  0.43243  0.59556  1.0000
  H   H2119     1.0  0.88007  0.29533  0.91410  1.0000
  H   H2120     1.0  0.80831  0.47428  0.08859  1.0000
  H   H2121     1.0  0.83113  0.48798  0.36949  1.0000
  H   H2122     1.0  0.80788  0.44407  0.06079  1.0000
  H   H2123     1.0  0.82137  0.43902  0.02893  1.0000
  H   H2124     1.0  0.78004  0.47731  0.53372  1.0000
  C   C1215     1.0  0.85899  0.28179  0.94897  1.0000
  C   C1216     1.0  0.76334  0.31490  0.77421  1.0000
  C   C1217     1.0  0.73631  0.31519  0.65446  1.0000
  H   H2125     1.0  0.84747  0.44860  0.11411  1.0000
  H   H2126     1.0  0.83500  0.43688  0.07673  1.0000
  H   H2127     1.0  0.86084  0.43601  0.04693  1.0000
  H   H2128     1.0  0.87269  0.44703  0.08648  1.0000
  H   H2129     1.0  0.85683  0.42610  0.09107  1.0000
  H   H2130     1.0  0.79310  0.43048  0.00441  1.0000
  H   H2131     1.0  0.85470  0.49230  0.40764  1.0000
  C   C1218     1.0  0.79531  0.47060  0.60255  1.0000
  H   H2132     1.0  0.73794  0.43990  0.42051  1.0000
  H   H2133     1.0  0.76922  0.38902  0.56987  1.0000
  C   C1219     1.0  0.74825  0.42324  0.69396  1.0000
  N   N66       1.0  0.86429  0.41750  0.88368  1.0000
  C   C1220     1.0  0.85439  0.42635  0.90311  1.0000
  C   C1221     1.0  0.86416  0.42100  0.84338  1.0000
  C   C1222     1.0  0.85655  0.39862  0.89120  1.0000
  C   C1223     1.0  0.88205  0.42398  0.89721  1.0000
  C   C1224     1.0  0.89166  0.44354  0.89520  1.0000
  C   C1225     1.0  0.85513  0.42632  0.94546  1.0000
  C   C1226     1.0  0.86283  0.38690  0.86752  1.0000
  C   C1227     1.0  0.84682  0.41412  0.82446  1.0000
  C   C1228     1.0  0.84842  0.41546  0.78299  1.0000
  C   C1229     1.0  0.90905  0.44857  0.91170  1.0000
  C   C1230     1.0  0.84384  0.43473  0.96187  1.0000
  C   C1231     1.0  0.85531  0.36836  0.88001  1.0000
  H   H2134     1.0  0.84105  0.42038  0.89518  1.0000
  H   H2135     1.0  0.85828  0.43981  0.89419  1.0000
  H   H2136     1.0  0.86919  0.43499  0.83845  1.0000
  H   H2137     1.0  0.87266  0.41608  0.82854  1.0000
  H   H2138     1.0  0.84278  0.39387  0.88848  1.0000
  H   H2139     1.0  0.85877  0.39618  0.92010  1.0000
  H   H2140     1.0  0.88271  0.41998  0.92590  1.0000
  H   H2141     1.0  0.88941  0.41806  0.88127  1.0000
  H   H2142     1.0  0.88528  0.45069  0.91041  1.0000
  H   H2143     1.0  0.89314  0.44782  0.86644  1.0000
  H   H2144     1.0  0.85100  0.41313  0.95595  1.0000
  H   H2145     1.0  0.86791  0.43353  0.95572  1.0000
  H   H2146     1.0  0.87651  0.39091  0.86940  1.0000
  H   H2147     1.0  0.85932  0.38712  0.83842  1.0000
  H   H2148     1.0  0.83968  0.40057  0.83078  1.0000
  H   H2149     1.0  0.83943  0.42175  0.83333  1.0000
  H   H2150     1.0  0.85513  0.40747  0.77254  1.0000
  H   H2151     1.0  0.83586  0.41095  0.77020  1.0000
  H   H2152     1.0  0.85520  0.42891  0.77492  1.0000
  H   H2153     1.0  0.90829  0.44607  0.94149  1.0000
  H   H2154     1.0  0.91599  0.44140  0.89842  1.0000
  H   H2155     1.0  0.91605  0.46241  0.90763  1.0000
  H   H2156     1.0  0.83075  0.42783  0.95311  1.0000
  H   H2157     1.0  0.84449  0.43443  0.99208  1.0000
  H   H2158     1.0  0.84792  0.44825  0.95334  1.0000
  H   H2159     1.0  0.84153  0.36367  0.87960  1.0000
  H   H2160     1.0  0.85934  0.36012  0.86160  1.0000
  H   H2161     1.0  0.85959  0.36720  0.90813  1.0000
  N   N67       1.0  0.80530  0.33644  0.42122  1.0000
  C   C1232     1.0  0.79047  0.33795  0.40207  1.0000
  C   C1233     1.0  0.81630  0.35387  0.43528  1.0000
  C   C1234     1.0  0.81429  0.32935  0.39438  1.0000
  C   C1235     1.0  0.80008  0.32456  0.45328  1.0000
  C   C1236     1.0  0.78838  0.32832  0.48114  1.0000
  C   C1237     1.0  0.77710  0.32097  0.38802  1.0000
  C   C1238     1.0  0.83099  0.32864  0.40796  1.0000
  C   C1239     1.0  0.82473  0.36738  0.40587  1.0000
  C   C1240     1.0  0.83594  0.38425  0.42340  1.0000
  C   C1241     1.0  0.78414  0.31571  0.51266  1.0000
  H   H2162     1.0  0.82338  0.32263  0.97564  1.0000
  C   C1242     1.0  0.83932  0.32213  0.37781  1.0000
  H   H2163     1.0  0.79447  0.34611  0.37756  1.0000
  H   H2164     1.0  0.78444  0.34473  0.41974  1.0000
  H   H2165     1.0  0.80901  0.35946  0.45242  1.0000
  H   H2166     1.0  0.82613  0.35295  0.45382  1.0000
  H   H2167     1.0  0.81653  0.33656  0.36842  1.0000
  H   H2168     1.0  0.80635  0.31603  0.38643  1.0000
  H   H2169     1.0  0.79410  0.31111  0.44373  1.0000
  H   H2170     1.0  0.81118  0.32483  0.46905  1.0000
  H   H2171     1.0  0.77649  0.32730  0.46805  1.0000
  H   H2172     1.0  0.79433  0.34129  0.49322  1.0000
  H   H2173     1.0  0.78197  0.31587  0.36453  1.0000
  H   H2174     1.0  0.77320  0.31111  0.40942  1.0000
  H   H2175     1.0  0.82892  0.31980  0.43130  1.0000
  H   H2176     1.0  0.83984  0.34140  0.41661  1.0000
  H   H2177     1.0  0.83252  0.36312  0.38731  1.0000
  H   H2178     1.0  0.81526  0.37009  0.38943  1.0000
  H   H2179     1.0  0.82862  0.38948  0.44132  1.0000
  H   H2180     1.0  0.84603  0.38250  0.43962  1.0000
  H   H2181     1.0  0.84167  0.39369  0.40168  1.0000
  H   H2182     1.0  0.77853  0.46893  0.38591  1.0000
  S   S282      1.0  0.92387  0.48796  0.97000  1.0000
  C   C1243     1.0  0.86114  0.48653  0.38872  1.0000
  C   C1244     1.0  0.88198  0.47801  0.86260  1.0000
  C   C1245     1.0  0.76984  0.41487  0.56492  1.0000
  H   H2183     1.0  0.75930  0.37172  0.65072  1.0000
  H   H2184     1.0  0.83137  0.30890  0.36953  1.0000
  H   H2185     1.0  0.84173  0.33050  0.35358  1.0000
  H   H2186     1.0  0.76221  0.45488  0.29629  1.0000
  C   C1246     1.0  0.81782  0.27518  0.89738  1.0000
  H   H2187     1.0  0.77667  0.30266  0.50255  1.0000
  H   H2188     1.0  0.88004  0.47507  0.39629  1.0000
  H   H2189     1.0  0.77677  0.41666  0.53889  1.0000
  C   C1247     1.0  0.96872  0.38935  0.01621  1.0000
  H   H2190     1.0  0.96572  0.45861  0.98471  1.0000
  H   H2191     1.0  0.86927  0.49108  0.02683  1.0000
  H   H2192     1.0  0.95575  0.36459  0.94016  1.0000
  H   H2193     1.0  0.76500  0.46211  0.50424  1.0000
  H   H2194     1.0  0.80148  0.46199  0.61215  1.0000
  H   H2195     1.0  0.88640  0.47578  0.80500  1.0000
  C   C1248     1.0  0.75019  0.46255  0.79731  1.0000
  C   C1249     1.0  0.87703  0.47398  0.82562  1.0000
  C   C1250     1.0  0.74919  0.44683  0.29763  1.0000
  H   H2196     1.0  0.86071  0.29335  0.96564  1.0000
  H   H2197     1.0  0.79366  0.45386  0.53883  1.0000
  C   C1251     1.0  0.87013  0.47625  0.88973  1.0000
  H   H2198     1.0  0.88518  0.28602  0.95418  1.0000
  H   H2199     1.0  0.95383  0.48019  0.93273  1.0000
  H   H2200     1.0  0.96063  0.46311  0.91926  1.0000
  H   H2201     1.0  0.76030  0.31821  0.69935  1.0000
  C   C1252     1.0  0.75367  0.32391  0.75345  1.0000
  C   C1253     1.0  0.87578  0.28404  0.93215  1.0000
  C   C1254     1.0  0.82409  0.26574  0.99784  1.0000
  Fe  Fe142     1.0  0.89839  0.48892  0.97632  1.0000
  H   H2202     1.0  0.75532  0.32734  0.39819  1.0000
  H   H2203     1.0  0.77025  0.42899  0.61525  1.0000
  H   H2204     1.0  0.78927  0.46137  0.46540  1.0000
  C   C1255     1.0  0.75207  0.46330  0.39175  1.0000
  H   H2205     1.0  0.84489  0.26682  0.90493  1.0000
  H   H2206     1.0  0.93962  0.36929  0.13626  1.0000
  H   H2207     1.0  0.78904  0.43591  0.59087  1.0000
  C   C1256     1.0  0.82669  0.46636  0.03440  1.0000
  H   H2208     1.0  0.77602  0.44023  0.51521  1.0000
  H   H2209     1.0  0.85565  0.27052  0.96690  1.0000
  N   N68       1.0  0.73740  0.32246  0.69268  1.0000
  C   C1257     1.0  0.93602  0.36729  0.10701  1.0000
  N   N69       1.0  0.77116  0.44604  0.57072  1.0000
  H   H2210     1.0  0.83731  0.27291  0.00459  1.0000
  H   H2211     1.0  0.79088  0.25415  0.85438  1.0000
  H   H2212     1.0  0.97717  0.48453  0.04498  1.0000
  H   H2213     1.0  0.82851  0.26259  0.85740  1.0000
  H   H2214     1.0  0.83694  0.30500  0.93065  1.0000
  H   H2215     1.0  0.94248  0.34483  0.10402  1.0000
  C   C1258     1.0  0.93161  0.34837  0.09820  1.0000
  H   H2216     1.0  0.92102  0.34033  0.11506  1.0000
  H   H2217     1.0  0.77137  0.45626  0.62530  1.0000
  H   H2218     1.0  0.94697  0.37453  0.09032  1.0000
  H   H2219     1.0  0.79381  0.45201  0.00875  1.0000
  C   C1259     1.0  0.77630  0.46079  0.59767  1.0000
  H   H2220     1.0  0.88587  0.48645  0.34273  1.0000
  H   H2221     1.0  0.93652  0.40981  0.21395  1.0000
  H   H2222     1.0  0.80709  0.25700  0.95268  1.0000
  H   H2223     1.0  0.75142  0.46895  0.36475  1.0000
  H   H2224     1.0  0.80802  0.29951  0.93198  1.0000
  H   H2225     1.0  0.85148  0.47404  0.38064  1.0000
  H   H2226     1.0  0.80278  0.31067  0.99170  1.0000
  H   H2227     1.0  0.87577  0.46475  0.14728  1.0000
  H   H2228     1.0  0.82493  0.25188  0.94788  1.0000
  H   H2229     1.0  0.82027  0.30726  0.01177  1.0000
  H   H2230     1.0  0.75273  0.31171  0.36232  1.0000
  H   H2231     1.0  0.89502  0.48277  0.86998  1.0000
  H   H2232     1.0  0.94239  0.45863  0.94690  1.0000
  C   C1260     1.0  0.80335  0.25739  0.84210  1.0000
  S   S283      1.0  0.73998  0.25084  0.65599  1.0000
  C   C1261     1.0  0.81657  0.26001  0.87176  1.0000
  H   H2233     1.0  0.81706  0.27333  0.00878  1.0000
  H   H2234     1.0  0.79561  0.31569  0.52630  1.0000
  H   H2235     1.0  0.83123  0.47842  0.50022  1.0000
  H   H2236     1.0  0.95946  0.42264  0.03088  1.0000
  H   H2237     1.0  0.92849  0.42657  0.20978  1.0000
  C   C1262     1.0  0.86658  0.47257  0.44589  1.0000
  C   C1263     1.0  0.73675  0.35118  0.66840  1.0000
  N   N70       1.0  0.82856  0.27754  0.93122  1.0000
  H   H2238     1.0  0.80260  0.47891  0.49330  1.0000
  H   H2239     1.0  0.83738  0.29672  0.97437  1.0000
  C   C1264     1.0  0.74456  0.42943  0.30467  1.0000
  C   C1265     1.0  0.81311  0.29607  0.95730  1.0000
  H   H2240     1.0  0.75845  0.34533  0.68069  1.0000
  H   H2241     1.0  0.80488  0.27338  0.90498  1.0000
  C   C1266     1.0  0.96551  0.47110  0.97638  1.0000
  C   C1267     1.0  0.98323  0.48451  0.97030  1.0000
  H   H2242     1.0  0.80632  0.26911  0.82551  1.0000
  H   H2243     1.0  0.82239  0.28690  0.88048  1.0000
  H   H2244     1.0  0.85047  0.28912  0.89844  1.0000
  H   H2245     1.0  0.81928  0.47463  0.03277  1.0000
  C   C1268     1.0  0.87540  0.49013  0.14872  1.0000
  C   C1269     1.0  0.82992  0.29424  0.94881  1.0000
  S   S284      1.0  0.87553  0.48137  0.93713  1.0000
  H   H2246     1.0  0.78692  0.40500  0.59159  1.0000
  H   H2247     1.0  0.80117  0.47644  0.57662  1.0000
  C   C1270     1.0  0.75278  0.44051  0.56319  1.0000
  H   H2248     1.0  0.85690  0.46008  0.43794  1.0000
  H   H2249     1.0  0.75482  0.47666  0.79513  1.0000
  H   H2250     1.0  0.74978  0.45166  0.55463  1.0000
  H   H2251     1.0  0.74849  0.32107  0.64053  1.0000
  C   C1271     1.0  0.92674  0.41341  0.20077  1.0000
  H   H2252     1.0  0.75571  0.30112  0.77734  1.0000
  C   C1272     1.0  0.77784  0.46620  0.51526  1.0000
  H   H2253     1.0  0.75932  0.45909  0.81347  1.0000
  C   C1273     1.0  0.95502  0.46813  0.94154  1.0000
  C   C1274     1.0  0.98605  0.39652  0.00938  1.0000
  H   H2254     1.0  0.74938  0.45685  0.76964  1.0000
  H   H2255     1.0  0.84688  0.48848  0.31624  1.0000
  H   H2256     1.0  0.76667  0.39863  0.61246  1.0000
  H   H2257     1.0  0.74556  0.25043  0.51044  1.0000
  H   H2258     1.0  0.77496  0.31624  0.75960  1.0000
  C   C1275     1.0  0.77339  0.40107  0.58611  1.0000
  H   H2259     1.0  0.73847  0.48176  0.51942  1.0000
  H   H2260     1.0  0.74900  0.43141  0.53965  1.0000
  C   C1276     1.0  0.74764  0.37011  0.66542  1.0000
  C   C1277     1.0  0.87438  0.48279  0.41196  1.0000
  C   C1278     1.0  0.74558  0.34167  0.69120  1.0000
  H   H2261     1.0  0.74061  0.46731  0.28701  1.0000
  H   H2262     1.0  0.74681  0.34744  0.71899  1.0000
  H   H2263     1.0  0.74416  0.46700  0.46674  1.0000
  H   H2264     1.0  0.76471  0.33385  0.35406  1.0000
  C   C1279     1.0  0.79900  0.48511  0.63052  1.0000
  H   H2265     1.0  0.79395  0.48007  0.65763  1.0000
  H   H2266     1.0  0.78336  0.24278  0.43248  1.0000
  N   N71       1.0  0.83908  0.47212  0.06547  1.0000
  H   H2267     1.0  0.83326  0.46804  0.00783  1.0000
  C   C1280     1.0  0.81020  0.47315  0.14691  1.0000
  H   H2268     1.0  0.74221  0.29215  0.66014  1.0000
  C   C1281     1.0  0.88625  0.48418  0.26817  1.0000
  C   C1282     1.0  0.81833  0.47806  0.10956  1.0000
  H   H2269     1.0  0.78626  0.48139  0.46650  1.0000
  H   H2270     1.0  0.81265  0.49185  0.63350  1.0000
  H   H2271     1.0  0.81338  0.24801  0.88731  1.0000
  H   H2272     1.0  0.81976  0.47696  0.16902  1.0000
  H   H2273     1.0  0.74239  0.42041  0.60433  1.0000
  H   H2274     1.0  0.80147  0.47977  0.15181  1.0000
  H   H2275     1.0  0.82467  0.49214  0.10979  1.0000
  C   C1283     1.0  0.84845  0.49112  0.06173  1.0000
  C   C1284     1.0  0.88046  0.49581  0.29206  1.0000
  C   C1285     1.0  0.85747  0.49473  0.19590  1.0000
  H   H2276     1.0  0.83973  0.49797  0.06038  1.0000
  C   C1286     1.0  0.86868  0.50074  0.16689  1.0000
  H   H2277     1.0  0.88790  0.54934  0.42297  1.0000
  H   H2278     1.0  0.87642  0.52009  0.00273  1.0000
  Fe  Fe143     1.0  0.93408  0.51073  0.00844  1.0000
  S   S285      1.0  0.95965  0.53041  0.98965  1.0000
  S   S286      1.0  0.90862  0.51289  0.01165  1.0000
  H   H2279     1.0  0.87731  0.52036  0.05196  1.0000
  H   H2280     1.0  0.89217  0.51260  0.37385  1.0000
  C   C1287     1.0  0.86886  0.51624  0.02785  1.0000
  H   H2281     1.0  0.85640  0.49631  0.08635  1.0000
  C   C1288     1.0  0.87621  0.52562  0.39262  1.0000
  C   C1289     1.0  0.85973  0.49689  0.02765  1.0000
  H   H2282     1.0  0.97664  0.53612  0.06182  1.0000
  H   H2283     1.0  0.90101  0.53727  0.41670  1.0000
  C   C1290     1.0  0.88069  0.51433  0.36435  1.0000
  H   H2284     1.0  0.85991  0.52283  0.02841  1.0000
  C   C1291     1.0  0.83847  0.50070  0.35819  1.0000
  H   H2285     1.0  0.85256  0.50333  0.20918  1.0000
  H   H2286     1.0  0.86706  0.53043  0.38055  1.0000
  H   H2287     1.0  0.87214  0.51384  0.15835  1.0000
  H   H2288     1.0  0.85235  0.49341  0.00198  1.0000
  H   H2289     1.0  0.88446  0.52221  0.33939  1.0000
  C   C1292     1.0  0.89151  0.54123  0.40335  1.0000
  S   S287      1.0  0.92965  0.49513  0.05978  1.0000
  C   C1293     1.0  0.82671  0.50619  0.33484  1.0000
  H   H2290     1.0  0.98404  0.50474  0.02451  1.0000
  H   H2291     1.0  0.89699  0.54897  0.37895  1.0000
  H   H2292     1.0  0.84278  0.50975  0.38143  1.0000
  C   C1294     1.0  0.98087  0.54118  0.00461  1.0000
  H   H2293     1.0  0.83317  0.51939  0.32490  1.0000
  S   S288      1.0  0.88924  0.49918  0.11132  1.0000
  H   H2294     1.0  0.87113  0.51864  0.41804  1.0000
  H   H2295     1.0  0.85759  0.51090  0.31713  1.0000
  H   H2296     1.0  0.79352  0.49443  0.62161  1.0000
  C   C1295     1.0  0.85298  0.49953  0.33506  1.0000
  H   H2297     1.0  0.81589  0.50583  0.35141  1.0000
  Fe  Fe144     1.0  0.90357  0.49532  0.06066  1.0000
  H   H2298     1.0  0.87029  0.49798  0.27710  1.0000
  H   H2299     1.0  0.88430  0.49480  0.42135  1.0000
  H   H2300     1.0  0.89104  0.50819  0.29489  1.0000
  H   H2301     1.0  0.82206  0.49743  0.31098  1.0000
  N   N72       1.0  0.86732  0.49729  0.35521  1.0000
  H   H2302     1.0  0.98150  0.49657  0.96335  1.0000
  H   H2303     1.0  0.98595  0.51511  0.09146  1.0000
  H   H2304     1.0  0.98216  0.49410  0.10926  1.0000
  C   C1296     1.0  0.98584  0.54209  0.04129  1.0000
